data_image0
_cell_length_a       13.987
_cell_length_b       29.324
_cell_length_c       17.419
_cell_angle_alpha    90
_cell_angle_beta     90
_cell_angle_gamma    90

_symmetry_space_group_name_H-M    "P 1"
_symmetry_int_tables_number       1

loop_
  _symmetry_equiv_pos_as_xyz
  'x, y, z'

loop_
  _atom_site_label
  _atom_site_occupancy
  _atom_site_fract_x
  _atom_site_fract_y
  _atom_site_fract_z
  _atom_site_thermal_displace_type
  _atom_site_B_iso_or_equiv
  _atom_site_type_symbol
  Cu1      1.0000 0.87207  0.12846  0.62731  Biso   1.000  Cu
  Cu2      1.0000 0.12793  0.37154  0.62731  Biso   1.000  Cu
  Cu3      1.0000 0.37207  0.87154  0.87269  Biso   1.000  Cu
  Cu4      1.0000 0.62793  0.62846  0.87269  Biso   1.000  Cu
  Cu5      1.0000 0.37207  0.62846  0.62731  Biso   1.000  Cu
  Cu6      1.0000 0.62793  0.87154  0.62731  Biso   1.000  Cu
  Cu7      1.0000 0.87207  0.37154  0.87269  Biso   1.000  Cu
  Cu8      1.0000 0.12793  0.12846  0.87269  Biso   1.000  Cu
  Cu9      1.0000 0.12793  0.87154  0.37269  Biso   1.000  Cu
  Cu10     1.0000 0.87207  0.62846  0.37269  Biso   1.000  Cu
  Cu11     1.0000 0.62793  0.12846  0.12731  Biso   1.000  Cu
  Cu12     1.0000 0.37207  0.37154  0.12731  Biso   1.000  Cu
  Cu13     1.0000 0.62793  0.37154  0.37269  Biso   1.000  Cu
  Cu14     1.0000 0.37207  0.12846  0.37269  Biso   1.000  Cu
  Cu15     1.0000 0.12793  0.62846  0.12731  Biso   1.000  Cu
  Cu16     1.0000 0.87207  0.87154  0.12731  Biso   1.000  Cu
  N1       1.0000 0.95870  0.08960  0.56540  Biso   1.000  N
  N2       1.0000 0.04130  0.41040  0.56540  Biso   1.000  N
  N3       1.0000 0.45870  0.91040  0.93460  Biso   1.000  N
  N4       1.0000 0.54130  0.58960  0.93460  Biso   1.000  N
  N5       1.0000 0.45870  0.58960  0.56540  Biso   1.000  N
  N6       1.0000 0.54130  0.91040  0.56540  Biso   1.000  N
  N7       1.0000 0.95870  0.41040  0.93460  Biso   1.000  N
  N8       1.0000 0.04130  0.08960  0.93460  Biso   1.000  N
  N9       1.0000 0.04130  0.91040  0.43460  Biso   1.000  N
  N10      1.0000 0.95870  0.58960  0.43460  Biso   1.000  N
  N11      1.0000 0.54130  0.08960  0.06540  Biso   1.000  N
  N12      1.0000 0.45870  0.41040  0.06540  Biso   1.000  N
  N13      1.0000 0.54130  0.41040  0.43460  Biso   1.000  N
  N14      1.0000 0.45870  0.08960  0.43460  Biso   1.000  N
  N15      1.0000 0.04130  0.58960  0.06540  Biso   1.000  N
  N16      1.0000 0.95870  0.91040  0.06540  Biso   1.000  N
  C1       1.0000 0.03521  0.06950  0.59110  Biso   1.000  C
  C2       1.0000 0.96479  0.43050  0.59110  Biso   1.000  C
  C3       1.0000 0.53521  0.93050  0.90890  Biso   1.000  C
  C4       1.0000 0.46479  0.56950  0.90890  Biso   1.000  C
  C5       1.0000 0.53521  0.56950  0.59110  Biso   1.000  C
  C6       1.0000 0.46479  0.93050  0.59110  Biso   1.000  C
  C7       1.0000 0.03521  0.43050  0.90890  Biso   1.000  C
  C8       1.0000 0.96479  0.06950  0.90890  Biso   1.000  C
  C9       1.0000 0.96479  0.93050  0.40890  Biso   1.000  C
  C10      1.0000 0.03521  0.56950  0.40890  Biso   1.000  C
  C11      1.0000 0.46479  0.06950  0.09110  Biso   1.000  C
  C12      1.0000 0.53521  0.43050  0.09110  Biso   1.000  C
  C13      1.0000 0.46479  0.43050  0.40890  Biso   1.000  C
  C14      1.0000 0.53521  0.06950  0.40890  Biso   1.000  C
  C15      1.0000 0.96479  0.56950  0.09110  Biso   1.000  C
  C16      1.0000 0.03521  0.93050  0.09110  Biso   1.000  C
  C17      1.0000 0.95800  0.08130  0.48510  Biso   1.000  C
  C18      1.0000 0.04200  0.41870  0.48510  Biso   1.000  C
  C19      1.0000 0.45800  0.91870  0.01490  Biso   1.000  C
  C20      1.0000 0.54200  0.58130  0.01490  Biso   1.000  C
  C21      1.0000 0.45800  0.58130  0.48510  Biso   1.000  C
  C22      1.0000 0.54200  0.91870  0.48510  Biso   1.000  C
  C23      1.0000 0.95800  0.41870  0.01490  Biso   1.000  C
  C24      1.0000 0.04200  0.08130  0.01490  Biso   1.000  C
  C25      1.0000 0.04200  0.91870  0.51490  Biso   1.000  C
  C26      1.0000 0.95800  0.58130  0.51490  Biso   1.000  C
  C27      1.0000 0.54200  0.08130  0.98510  Biso   1.000  C
  C28      1.0000 0.45800  0.41870  0.98510  Biso   1.000  C
  C29      1.0000 0.54200  0.41870  0.51490  Biso   1.000  C
  C30      1.0000 0.45800  0.08130  0.51490  Biso   1.000  C
  C31      1.0000 0.04200  0.58130  0.98510  Biso   1.000  C
  C32      1.0000 0.95800  0.91870  0.98510  Biso   1.000  C
  C33      1.0000 0.03320  0.05500  0.46840  Biso   1.000  C
  C34      1.0000 0.96680  0.44500  0.46840  Biso   1.000  C
  C35      1.0000 0.53320  0.94500  0.03160  Biso   1.000  C
  C36      1.0000 0.46680  0.55500  0.03160  Biso   1.000  C
  C37      1.0000 0.53320  0.55500  0.46840  Biso   1.000  C
  C38      1.0000 0.46680  0.94500  0.46840  Biso   1.000  C
  C39      1.0000 0.03320  0.44500  0.03160  Biso   1.000  C
  C40      1.0000 0.96680  0.05500  0.03160  Biso   1.000  C
  C41      1.0000 0.96680  0.94500  0.53160  Biso   1.000  C
  C42      1.0000 0.03320  0.55500  0.53160  Biso   1.000  C
  C43      1.0000 0.46680  0.05500  0.96840  Biso   1.000  C
  C44      1.0000 0.53320  0.44500  0.96840  Biso   1.000  C
  C45      1.0000 0.46680  0.44500  0.53160  Biso   1.000  C
  C46      1.0000 0.53320  0.05500  0.53160  Biso   1.000  C
  C47      1.0000 0.96680  0.55500  0.96840  Biso   1.000  C
  C48      1.0000 0.03320  0.94500  0.96840  Biso   1.000  C
  N17      1.0000 0.08340  0.04850  0.53600  Biso   1.000  N
  N18      1.0000 0.91660  0.45150  0.53600  Biso   1.000  N
  N19      1.0000 0.58340  0.95150  0.96400  Biso   1.000  N
  N20      1.0000 0.41660  0.54850  0.96400  Biso   1.000  N
  N21      1.0000 0.58340  0.54850  0.53600  Biso   1.000  N
  N22      1.0000 0.41660  0.95150  0.53600  Biso   1.000  N
  N23      1.0000 0.08340  0.45150  0.96400  Biso   1.000  N
  N24      1.0000 0.91660  0.04850  0.96400  Biso   1.000  N
  N25      1.0000 0.91660  0.95150  0.46400  Biso   1.000  N
  N26      1.0000 0.08340  0.54850  0.46400  Biso   1.000  N
  N27      1.0000 0.41660  0.04850  0.03600  Biso   1.000  N
  N28      1.0000 0.58340  0.45150  0.03600  Biso   1.000  N
  N29      1.0000 0.41660  0.45150  0.46400  Biso   1.000  N
  N30      1.0000 0.58340  0.04850  0.46400  Biso   1.000  N
  N31      1.0000 0.91660  0.54850  0.03600  Biso   1.000  N
  N32      1.0000 0.08340  0.95150  0.03600  Biso   1.000  N
  C49      1.0000 0.17030  0.02350  0.54060  Biso   1.000  C
  C50      1.0000 0.82970  0.47650  0.54060  Biso   1.000  C
  C51      1.0000 0.67030  0.97650  0.95940  Biso   1.000  C
  C52      1.0000 0.32970  0.52350  0.95940  Biso   1.000  C
  C53      1.0000 0.67030  0.52350  0.54060  Biso   1.000  C
  C54      1.0000 0.32970  0.97650  0.54060  Biso   1.000  C
  C55      1.0000 0.17030  0.47650  0.95940  Biso   1.000  C
  C56      1.0000 0.82970  0.02350  0.95940  Biso   1.000  C
  C57      1.0000 0.82970  0.97650  0.45940  Biso   1.000  C
  C58      1.0000 0.17030  0.52350  0.45940  Biso   1.000  C
  C59      1.0000 0.32970  0.02350  0.04060  Biso   1.000  C
  C60      1.0000 0.67030  0.47650  0.04060  Biso   1.000  C
  C61      1.0000 0.32970  0.47650  0.45940  Biso   1.000  C
  C62      1.0000 0.67030  0.02350  0.45940  Biso   1.000  C
  C63      1.0000 0.82970  0.52350  0.04060  Biso   1.000  C
  C64      1.0000 0.17030  0.97650  0.04060  Biso   1.000  C
  N33      1.0000 0.20830  0.01220  0.47530  Biso   1.000  N
  N34      1.0000 0.79170  0.48780  0.47530  Biso   1.000  N
  N35      1.0000 0.70830  0.98780  0.02470  Biso   1.000  N
  N36      1.0000 0.29170  0.51220  0.02470  Biso   1.000  N
  N37      1.0000 0.70830  0.51220  0.47530  Biso   1.000  N
  N38      1.0000 0.29170  0.98780  0.47530  Biso   1.000  N
  N39      1.0000 0.20830  0.48780  0.02470  Biso   1.000  N
  N40      1.0000 0.79170  0.01220  0.02470  Biso   1.000  N
  N41      1.0000 0.79170  0.98780  0.52470  Biso   1.000  N
  N42      1.0000 0.20830  0.51220  0.52470  Biso   1.000  N
  N43      1.0000 0.29170  0.01220  0.97530  Biso   1.000  N
  N44      1.0000 0.70830  0.48780  0.97530  Biso   1.000  N
  N45      1.0000 0.29170  0.48780  0.52470  Biso   1.000  N
  N46      1.0000 0.70830  0.01220  0.52470  Biso   1.000  N
  N47      1.0000 0.79170  0.51220  0.97530  Biso   1.000  N
  N48      1.0000 0.20830  0.98780  0.97530  Biso   1.000  N
  C65      1.0000 0.20930  0.01180  0.61380  Biso   1.000  C
  C66      1.0000 0.79070  0.48820  0.61380  Biso   1.000  C
  C67      1.0000 0.70930  0.98820  0.88620  Biso   1.000  C
  C68      1.0000 0.29070  0.51180  0.88620  Biso   1.000  C
  C69      1.0000 0.70930  0.51180  0.61380  Biso   1.000  C
  C70      1.0000 0.29070  0.98820  0.61380  Biso   1.000  C
  C71      1.0000 0.20930  0.48820  0.88620  Biso   1.000  C
  C72      1.0000 0.79070  0.01180  0.88620  Biso   1.000  C
  C73      1.0000 0.79070  0.98820  0.38620  Biso   1.000  C
  C74      1.0000 0.20930  0.51180  0.38620  Biso   1.000  C
  C75      1.0000 0.29070  0.01180  0.11380  Biso   1.000  C
  C76      1.0000 0.70930  0.48820  0.11380  Biso   1.000  C
  C77      1.0000 0.29070  0.48820  0.38620  Biso   1.000  C
  C78      1.0000 0.70930  0.01180  0.38620  Biso   1.000  C
  C79      1.0000 0.79070  0.51180  0.11380  Biso   1.000  C
  C80      1.0000 0.20930  0.98820  0.11380  Biso   1.000  C
  N49      1.0000 0.91630  0.18710  0.57990  Biso   1.000  N
  N50      1.0000 0.08370  0.31290  0.57990  Biso   1.000  N
  N51      1.0000 0.41630  0.81290  0.92010  Biso   1.000  N
  N52      1.0000 0.58370  0.68710  0.92010  Biso   1.000  N
  N53      1.0000 0.41630  0.68710  0.57990  Biso   1.000  N
  N54      1.0000 0.58370  0.81290  0.57990  Biso   1.000  N
  N55      1.0000 0.91630  0.31290  0.92010  Biso   1.000  N
  N56      1.0000 0.08370  0.18710  0.92010  Biso   1.000  N
  N57      1.0000 0.08370  0.81290  0.42010  Biso   1.000  N
  N58      1.0000 0.91630  0.68710  0.42010  Biso   1.000  N
  N59      1.0000 0.58370  0.18710  0.07990  Biso   1.000  N
  N60      1.0000 0.41630  0.31290  0.07990  Biso   1.000  N
  N61      1.0000 0.58370  0.31290  0.42010  Biso   1.000  N
  N62      1.0000 0.41630  0.18710  0.42010  Biso   1.000  N
  N63      1.0000 0.08370  0.68710  0.07990  Biso   1.000  N
  N64      1.0000 0.91630  0.81290  0.07990  Biso   1.000  N
  C81      1.0000 0.87180  0.22590  0.62180  Biso   1.000  C
  C82      1.0000 0.12820  0.27410  0.62180  Biso   1.000  C
  C83      1.0000 0.37180  0.77410  0.87820  Biso   1.000  C
  C84      1.0000 0.62820  0.72590  0.87820  Biso   1.000  C
  C85      1.0000 0.37180  0.72590  0.62180  Biso   1.000  C
  C86      1.0000 0.62820  0.77410  0.62180  Biso   1.000  C
  C87      1.0000 0.87180  0.27410  0.87820  Biso   1.000  C
  C88      1.0000 0.12820  0.22590  0.87820  Biso   1.000  C
  C89      1.0000 0.12820  0.77410  0.37820  Biso   1.000  C
  C90      1.0000 0.87180  0.72590  0.37820  Biso   1.000  C
  C91      1.0000 0.62820  0.22590  0.12180  Biso   1.000  C
  C92      1.0000 0.37180  0.27410  0.12180  Biso   1.000  C
  C93      1.0000 0.62820  0.27410  0.37820  Biso   1.000  C
  C94      1.0000 0.37180  0.22590  0.37820  Biso   1.000  C
  C95      1.0000 0.12820  0.72590  0.12180  Biso   1.000  C
  C96      1.0000 0.87180  0.77410  0.12180  Biso   1.000  C
  C97      1.0000 0.77570  0.21130  0.64590  Biso   1.000  C
  C98      1.0000 0.22430  0.28870  0.64590  Biso   1.000  C
  C99      1.0000 0.27570  0.78870  0.85410  Biso   1.000  C
  C100     1.0000 0.72430  0.71130  0.85410  Biso   1.000  C
  C101     1.0000 0.27570  0.71130  0.64590  Biso   1.000  C
  C102     1.0000 0.72430  0.78870  0.64590  Biso   1.000  C
  C103     1.0000 0.77570  0.28870  0.85410  Biso   1.000  C
  C104     1.0000 0.22430  0.21130  0.85410  Biso   1.000  C
  C105     1.0000 0.22430  0.78870  0.35410  Biso   1.000  C
  C106     1.0000 0.77570  0.71130  0.35410  Biso   1.000  C
  C107     1.0000 0.72430  0.21130  0.14590  Biso   1.000  C
  C108     1.0000 0.27570  0.28870  0.14590  Biso   1.000  C
  C109     1.0000 0.72430  0.28870  0.35410  Biso   1.000  C
  C110     1.0000 0.27570  0.21130  0.35410  Biso   1.000  C
  C111     1.0000 0.22430  0.71130  0.14590  Biso   1.000  C
  C112     1.0000 0.77570  0.78870  0.14590  Biso   1.000  C
  N65      1.0000 0.77900  0.16700  0.68420  Biso   1.000  N
  N66      1.0000 0.22100  0.33300  0.68420  Biso   1.000  N
  N67      1.0000 0.27900  0.83300  0.81580  Biso   1.000  N
  N68      1.0000 0.72100  0.66700  0.81580  Biso   1.000  N
  N69      1.0000 0.27900  0.66700  0.68420  Biso   1.000  N
  N70      1.0000 0.72100  0.83300  0.68420  Biso   1.000  N
  N71      1.0000 0.77900  0.33300  0.81580  Biso   1.000  N
  N72      1.0000 0.22100  0.16700  0.81580  Biso   1.000  N
  N73      1.0000 0.22100  0.83300  0.31580  Biso   1.000  N
  N74      1.0000 0.77900  0.66700  0.31580  Biso   1.000  N
  N75      1.0000 0.72100  0.16700  0.18420  Biso   1.000  N
  N76      1.0000 0.27900  0.33300  0.18420  Biso   1.000  N
  N77      1.0000 0.72100  0.33300  0.31580  Biso   1.000  N
  N78      1.0000 0.27900  0.16700  0.31580  Biso   1.000  N
  N79      1.0000 0.22100  0.66700  0.18420  Biso   1.000  N
  N80      1.0000 0.77900  0.83300  0.18420  Biso   1.000  N
  C113     1.0000 0.68850  0.14230  0.69220  Biso   1.000  C
  C114     1.0000 0.31150  0.35770  0.69220  Biso   1.000  C
  C115     1.0000 0.18850  0.85770  0.80780  Biso   1.000  C
  C116     1.0000 0.81150  0.64230  0.80780  Biso   1.000  C
  C117     1.0000 0.18850  0.64230  0.69220  Biso   1.000  C
  C118     1.0000 0.81150  0.85770  0.69220  Biso   1.000  C
  C119     1.0000 0.68850  0.35770  0.80780  Biso   1.000  C
  C120     1.0000 0.31150  0.14230  0.80780  Biso   1.000  C
  C121     1.0000 0.31150  0.85770  0.30780  Biso   1.000  C
  C122     1.0000 0.68850  0.64230  0.30780  Biso   1.000  C
  C123     1.0000 0.81150  0.14230  0.19220  Biso   1.000  C
  C124     1.0000 0.18850  0.35770  0.19220  Biso   1.000  C
  C125     1.0000 0.81150  0.35770  0.30780  Biso   1.000  C
  C126     1.0000 0.18850  0.14230  0.30780  Biso   1.000  C
  C127     1.0000 0.31150  0.64230  0.19220  Biso   1.000  C
  C128     1.0000 0.68850  0.85770  0.19220  Biso   1.000  C
  C129     1.0000 0.71540  0.09400  0.71540  Biso   1.000  C
  C130     1.0000 0.28460  0.40600  0.71540  Biso   1.000  C
  C131     1.0000 0.21540  0.90600  0.78460  Biso   1.000  C
  C132     1.0000 0.78460  0.59400  0.78460  Biso   1.000  C
  C133     1.0000 0.21540  0.59400  0.71540  Biso   1.000  C
  C134     1.0000 0.78460  0.90600  0.71540  Biso   1.000  C
  C135     1.0000 0.71540  0.40600  0.78460  Biso   1.000  C
  C136     1.0000 0.28460  0.09400  0.78460  Biso   1.000  C
  C137     1.0000 0.28460  0.90600  0.28460  Biso   1.000  C
  C138     1.0000 0.71540  0.59400  0.28460  Biso   1.000  C
  C139     1.0000 0.78460  0.09400  0.21540  Biso   1.000  C
  C140     1.0000 0.21540  0.40600  0.21540  Biso   1.000  C
  C141     1.0000 0.78460  0.40600  0.28460  Biso   1.000  C
  C142     1.0000 0.21540  0.09400  0.28460  Biso   1.000  C
  C143     1.0000 0.28460  0.59400  0.21540  Biso   1.000  C
  C144     1.0000 0.71540  0.90600  0.21540  Biso   1.000  C
  N81      1.0000 0.78650  0.07720  0.65930  Biso   1.000  N
  N82      1.0000 0.21350  0.42280  0.65930  Biso   1.000  N
  N83      1.0000 0.28650  0.92280  0.84070  Biso   1.000  N
  N84      1.0000 0.71350  0.57720  0.84070  Biso   1.000  N
  N85      1.0000 0.28650  0.57720  0.65930  Biso   1.000  N
  N86      1.0000 0.71350  0.92280  0.65930  Biso   1.000  N
  N87      1.0000 0.78650  0.42280  0.84070  Biso   1.000  N
  N88      1.0000 0.21350  0.07720  0.84070  Biso   1.000  N
  N89      1.0000 0.21350  0.92280  0.34070  Biso   1.000  N
  N90      1.0000 0.78650  0.57720  0.34070  Biso   1.000  N
  N91      1.0000 0.71350  0.07720  0.15930  Biso   1.000  N
  N92      1.0000 0.28650  0.42280  0.15930  Biso   1.000  N
  N93      1.0000 0.71350  0.42280  0.34070  Biso   1.000  N
  N94      1.0000 0.28650  0.07720  0.34070  Biso   1.000  N
  N95      1.0000 0.21350  0.57720  0.15930  Biso   1.000  N
  N96      1.0000 0.78650  0.92280  0.15930  Biso   1.000  N
  B1       1.0000 0.21820  0.15630  0.55790  Biso   1.000  B
  B2       1.0000 0.78180  0.34370  0.55790  Biso   1.000  B
  B3       1.0000 0.71820  0.84370  0.94210  Biso   1.000  B
  B4       1.0000 0.28180  0.65630  0.94210  Biso   1.000  B
  B5       1.0000 0.71820  0.65630  0.55790  Biso   1.000  B
  B6       1.0000 0.28180  0.84370  0.55790  Biso   1.000  B
  B7       1.0000 0.21820  0.34370  0.94210  Biso   1.000  B
  B8       1.0000 0.78180  0.15630  0.94210  Biso   1.000  B
  B9       1.0000 0.78180  0.84370  0.44210  Biso   1.000  B
  B10      1.0000 0.21820  0.65630  0.44210  Biso   1.000  B
  B11      1.0000 0.28180  0.15630  0.05790  Biso   1.000  B
  B12      1.0000 0.71820  0.34370  0.05790  Biso   1.000  B
  B13      1.0000 0.28180  0.34370  0.44210  Biso   1.000  B
  B14      1.0000 0.71820  0.15630  0.44210  Biso   1.000  B
  B15      1.0000 0.78180  0.65630  0.05790  Biso   1.000  B
  B16      1.0000 0.21820  0.84370  0.05790  Biso   1.000  B
  F1       1.0000 0.24450  0.12380  0.50140  Biso   1.000  F
  F2       1.0000 0.75550  0.37620  0.50140  Biso   1.000  F
  F3       1.0000 0.74450  0.87620  0.99860  Biso   1.000  F
  F4       1.0000 0.25550  0.62380  0.99860  Biso   1.000  F
  F5       1.0000 0.74450  0.62380  0.50140  Biso   1.000  F
  F6       1.0000 0.25550  0.87620  0.50140  Biso   1.000  F
  F7       1.0000 0.24450  0.37620  0.99860  Biso   1.000  F
  F8       1.0000 0.75550  0.12380  0.99860  Biso   1.000  F
  F9       1.0000 0.75550  0.87620  0.49860  Biso   1.000  F
  F10      1.0000 0.24450  0.62380  0.49860  Biso   1.000  F
  F11      1.0000 0.25550  0.12380  0.00140  Biso   1.000  F
  F12      1.0000 0.74450  0.37620  0.00140  Biso   1.000  F
  F13      1.0000 0.25550  0.37620  0.49860  Biso   1.000  F
  F14      1.0000 0.74450  0.12380  0.49860  Biso   1.000  F
  F15      1.0000 0.75550  0.62380  0.00140  Biso   1.000  F
  F16      1.0000 0.24450  0.87620  0.00140  Biso   1.000  F
  F17      1.0000 0.28150  0.19060  0.55650  Biso   1.000  F
  F18      1.0000 0.71850  0.30940  0.55650  Biso   1.000  F
  F19      1.0000 0.78150  0.80940  0.94350  Biso   1.000  F
  F20      1.0000 0.21850  0.69060  0.94350  Biso   1.000  F
  F21      1.0000 0.78150  0.69060  0.55650  Biso   1.000  F
  F22      1.0000 0.21850  0.80940  0.55650  Biso   1.000  F
  F23      1.0000 0.28150  0.30940  0.94350  Biso   1.000  F
  F24      1.0000 0.71850  0.19060  0.94350  Biso   1.000  F
  F25      1.0000 0.71850  0.80940  0.44350  Biso   1.000  F
  F26      1.0000 0.28150  0.69060  0.44350  Biso   1.000  F
  F27      1.0000 0.21850  0.19060  0.05650  Biso   1.000  F
  F28      1.0000 0.78150  0.30940  0.05650  Biso   1.000  F
  F29      1.0000 0.21850  0.30940  0.44350  Biso   1.000  F
  F30      1.0000 0.78150  0.19060  0.44350  Biso   1.000  F
  F31      1.0000 0.71850  0.69060  0.05650  Biso   1.000  F
  F32      1.0000 0.28150  0.80940  0.05650  Biso   1.000  F
  F33      1.0000 0.12870  0.17090  0.53140  Biso   1.000  F
  F34      1.0000 0.87130  0.32910  0.53140  Biso   1.000  F
  F35      1.0000 0.62870  0.82910  0.96860  Biso   1.000  F
  F36      1.0000 0.37130  0.67090  0.96860  Biso   1.000  F
  F37      1.0000 0.62870  0.67090  0.53140  Biso   1.000  F
  F38      1.0000 0.37130  0.82910  0.53140  Biso   1.000  F
  F39      1.0000 0.12870  0.32910  0.96860  Biso   1.000  F
  F40      1.0000 0.87130  0.17090  0.96860  Biso   1.000  F
  F41      1.0000 0.87130  0.82910  0.46860  Biso   1.000  F
  F42      1.0000 0.12870  0.67090  0.46860  Biso   1.000  F
  F43      1.0000 0.37130  0.17090  0.03140  Biso   1.000  F
  F44      1.0000 0.62870  0.32910  0.03140  Biso   1.000  F
  F45      1.0000 0.37130  0.32910  0.46860  Biso   1.000  F
  F46      1.0000 0.62870  0.17090  0.46860  Biso   1.000  F
  F47      1.0000 0.87130  0.67090  0.03140  Biso   1.000  F
  F48      1.0000 0.12870  0.82910  0.03140  Biso   1.000  F
  F49      1.0000 0.20890  0.13600  0.62160  Biso   1.000  F
  F50      1.0000 0.79110  0.36400  0.62160  Biso   1.000  F
  F51      1.0000 0.70890  0.86400  0.87840  Biso   1.000  F
  F52      1.0000 0.29110  0.63600  0.87840  Biso   1.000  F
  F53      1.0000 0.70890  0.63600  0.62160  Biso   1.000  F
  F54      1.0000 0.29110  0.86400  0.62160  Biso   1.000  F
  F55      1.0000 0.20890  0.36400  0.87840  Biso   1.000  F
  F56      1.0000 0.79110  0.13600  0.87840  Biso   1.000  F
  F57      1.0000 0.79110  0.86400  0.37840  Biso   1.000  F
  F58      1.0000 0.20890  0.63600  0.37840  Biso   1.000  F
  F59      1.0000 0.29110  0.13600  0.12160  Biso   1.000  F
  F60      1.0000 0.70890  0.36400  0.12160  Biso   1.000  F
  F61      1.0000 0.29110  0.36400  0.37840  Biso   1.000  F
  F62      1.0000 0.70890  0.13600  0.37840  Biso   1.000  F
  F63      1.0000 0.79110  0.63600  0.12160  Biso   1.000  F
  F64      1.0000 0.20890  0.86400  0.12160  Biso   1.000  F
  B17      1.0000 0.00000  0.98140  0.75000  Biso   1.000  B
  B18      1.0000 0.00000  0.51860  0.75000  Biso   1.000  B
  B19      1.0000 0.50000  0.01860  0.75000  Biso   1.000  B
  B20      1.0000 0.50000  0.48140  0.75000  Biso   1.000  B
  B21      1.0000 0.00000  0.01860  0.25000  Biso   1.000  B
  B22      1.0000 0.00000  0.48140  0.25000  Biso   1.000  B
  B23      1.0000 0.50000  0.98140  0.25000  Biso   1.000  B
  B24      1.0000 0.50000  0.51860  0.25000  Biso   1.000  B
  F65      1.0000 0.07460  0.01020  0.77590  Biso   1.000  F
  F66      1.0000 0.92540  0.48980  0.77590  Biso   1.000  F
  F67      1.0000 0.57460  0.98980  0.72410  Biso   1.000  F
  F68      1.0000 0.42540  0.51020  0.72410  Biso   1.000  F
  F69      1.0000 0.57460  0.51020  0.77590  Biso   1.000  F
  F70      1.0000 0.42540  0.98980  0.77590  Biso   1.000  F
  F71      1.0000 0.07460  0.48980  0.72410  Biso   1.000  F
  F72      1.0000 0.92540  0.01020  0.72410  Biso   1.000  F
  F73      1.0000 0.92540  0.98980  0.22410  Biso   1.000  F
  F74      1.0000 0.07460  0.51020  0.22410  Biso   1.000  F
  F75      1.0000 0.42540  0.01020  0.27590  Biso   1.000  F
  F76      1.0000 0.57460  0.48980  0.27590  Biso   1.000  F
  F77      1.0000 0.42540  0.48980  0.22410  Biso   1.000  F
  F78      1.0000 0.57460  0.01020  0.22410  Biso   1.000  F
  F79      1.0000 0.92540  0.51020  0.27590  Biso   1.000  F
  F80      1.0000 0.07460  0.98980  0.27590  Biso   1.000  F
  F81      1.0000 0.03210  0.95740  0.69060  Biso   1.000  F
  F82      1.0000 0.96790  0.54260  0.69060  Biso   1.000  F
  F83      1.0000 0.53210  0.04260  0.80940  Biso   1.000  F
  F84      1.0000 0.46790  0.45740  0.80940  Biso   1.000  F
  F85      1.0000 0.53210  0.45740  0.69060  Biso   1.000  F
  F86      1.0000 0.46790  0.04260  0.69060  Biso   1.000  F
  F87      1.0000 0.03210  0.54260  0.80940  Biso   1.000  F
  F88      1.0000 0.96790  0.95740  0.80940  Biso   1.000  F
  F89      1.0000 0.96790  0.04260  0.30940  Biso   1.000  F
  F90      1.0000 0.03210  0.45740  0.30940  Biso   1.000  F
  F91      1.0000 0.46790  0.95740  0.19060  Biso   1.000  F
  F92      1.0000 0.53210  0.54260  0.19060  Biso   1.000  F
  F93      1.0000 0.46790  0.54260  0.30940  Biso   1.000  F
  F94      1.0000 0.53210  0.95740  0.30940  Biso   1.000  F
  F95      1.0000 0.96790  0.45740  0.19060  Biso   1.000  F
  F96      1.0000 0.03210  0.04260  0.19060  Biso   1.000  F
  N97      1.0000 0.98320  0.13810  0.73730  Biso   1.000  N
  N98      1.0000 0.01680  0.36190  0.73730  Biso   1.000  N
  N99      1.0000 0.48320  0.86190  0.76270  Biso   1.000  N
  N100     1.0000 0.51680  0.63810  0.76270  Biso   1.000  N
  N101     1.0000 0.48320  0.63810  0.73730  Biso   1.000  N
  N102     1.0000 0.51680  0.86190  0.73730  Biso   1.000  N
  N103     1.0000 0.98320  0.36190  0.76270  Biso   1.000  N
  N104     1.0000 0.01680  0.13810  0.76270  Biso   1.000  N
  N105     1.0000 0.01680  0.86190  0.26270  Biso   1.000  N
  N106     1.0000 0.98320  0.63810  0.26270  Biso   1.000  N
  N107     1.0000 0.51680  0.13810  0.23730  Biso   1.000  N
  N108     1.0000 0.48320  0.36190  0.23730  Biso   1.000  N
  N109     1.0000 0.51680  0.36190  0.26270  Biso   1.000  N
  N110     1.0000 0.48320  0.13810  0.26270  Biso   1.000  N
  N111     1.0000 0.01680  0.63810  0.23730  Biso   1.000  N
  N112     1.0000 0.98320  0.86190  0.23730  Biso   1.000  N
  O1       1.0000 0.95400  0.11500  0.74150  Biso   1.000  O
  O2       1.0000 0.04600  0.38500  0.74150  Biso   1.000  O
  O3       1.0000 0.45400  0.88500  0.75850  Biso   1.000  O
  O4       1.0000 0.54600  0.61500  0.75850  Biso   1.000  O
  O5       1.0000 0.45400  0.61500  0.74150  Biso   1.000  O
  O6       1.0000 0.54600  0.88500  0.74150  Biso   1.000  O
  O7       1.0000 0.95400  0.38500  0.75850  Biso   1.000  O
  O8       1.0000 0.04600  0.11500  0.75850  Biso   1.000  O
  O9       1.0000 0.04600  0.88500  0.25850  Biso   1.000  O
  O10      1.0000 0.95400  0.61500  0.25850  Biso   1.000  O
  O11      1.0000 0.54600  0.11500  0.24150  Biso   1.000  O
  O12      1.0000 0.45400  0.38500  0.24150  Biso   1.000  O
  O13      1.0000 0.54600  0.38500  0.25850  Biso   1.000  O
  O14      1.0000 0.45400  0.11500  0.25850  Biso   1.000  O
  O15      1.0000 0.04600  0.61500  0.24150  Biso   1.000  O
  O16      1.0000 0.95400  0.88500  0.24150  Biso   1.000  O
  O17      1.0000 0.96300  0.17480  0.77190  Biso   1.000  O
  O18      1.0000 0.03700  0.32520  0.77190  Biso   1.000  O
  O19      1.0000 0.46300  0.82520  0.72810  Biso   1.000  O
  O20      1.0000 0.53700  0.67480  0.72810  Biso   1.000  O
  O21      1.0000 0.46300  0.67480  0.77190  Biso   1.000  O
  O22      1.0000 0.53700  0.82520  0.77190  Biso   1.000  O
  O23      1.0000 0.96300  0.32520  0.72810  Biso   1.000  O
  O24      1.0000 0.03700  0.17480  0.72810  Biso   1.000  O
  O25      1.0000 0.03700  0.82520  0.22810  Biso   1.000  O
  O26      1.0000 0.96300  0.67480  0.22810  Biso   1.000  O
  O27      1.0000 0.53700  0.17480  0.27190  Biso   1.000  O
  O28      1.0000 0.46300  0.32520  0.27190  Biso   1.000  O
  O29      1.0000 0.53700  0.32520  0.22810  Biso   1.000  O
  O30      1.0000 0.46300  0.17480  0.22810  Biso   1.000  O
  O31      1.0000 0.03700  0.67480  0.27190  Biso   1.000  O
  O32      1.0000 0.96300  0.82520  0.27190  Biso   1.000  O
  N113     1.0000 0.50000  0.25000  0.12200  Biso   1.000  N
  N114     1.0000 0.00000  0.75000  0.37800  Biso   1.000  N
  N115     1.0000 0.00000  0.75000  0.12200  Biso   1.000  N
  N116     1.0000 0.50000  0.25000  0.37800  Biso   1.000  N
  N117     1.0000 0.50000  0.75000  0.87800  Biso   1.000  N
  N118     1.0000 0.00000  0.25000  0.62200  Biso   1.000  N
  N119     1.0000 0.00000  0.25000  0.87800  Biso   1.000  N
  N120     1.0000 0.50000  0.75000  0.62200  Biso   1.000  N
  C145     1.0000 0.50000  0.25000  0.21500  Biso   1.000  C
  C146     1.0000 0.00000  0.75000  0.28500  Biso   1.000  C
  C147     1.0000 0.00000  0.75000  0.21500  Biso   1.000  C
  C148     1.0000 0.50000  0.25000  0.28500  Biso   1.000  C
  C149     1.0000 0.50000  0.75000  0.78500  Biso   1.000  C
  C150     1.0000 0.00000  0.25000  0.71500  Biso   1.000  C
  C151     1.0000 0.00000  0.25000  0.78500  Biso   1.000  C
  C152     1.0000 0.50000  0.75000  0.71500  Biso   1.000  C
  C153     1.0000 0.50000  0.25000  0.27000  Biso   1.000  C
  C154     1.0000 0.00000  0.75000  0.23000  Biso   1.000  C
  C155     1.0000 0.00000  0.75000  0.27000  Biso   1.000  C
  C156     1.0000 0.50000  0.25000  0.23000  Biso   1.000  C
  C157     1.0000 0.50000  0.75000  0.73000  Biso   1.000  C
  C158     1.0000 0.00000  0.25000  0.77000  Biso   1.000  C
  C159     1.0000 0.00000  0.25000  0.73000  Biso   1.000  C
  C160     1.0000 0.50000  0.75000  0.77000  Biso   1.000  C
  H1       1.0000 0.05490  0.06970  0.64630  Biso   1.000  H
  H2       1.0000 0.94510  0.43030  0.64630  Biso   1.000  H
  H3       1.0000 0.55490  0.93030  0.85370  Biso   1.000  H
  H4       1.0000 0.44510  0.56970  0.85370  Biso   1.000  H
  H5       1.0000 0.55490  0.56970  0.64630  Biso   1.000  H
  H6       1.0000 0.44510  0.93030  0.64630  Biso   1.000  H
  H7       1.0000 0.05490  0.43030  0.85370  Biso   1.000  H
  H8       1.0000 0.94510  0.06970  0.85370  Biso   1.000  H
  H9       1.0000 0.94510  0.93030  0.35370  Biso   1.000  H
  H10      1.0000 0.05490  0.56970  0.35370  Biso   1.000  H
  H11      1.0000 0.44510  0.06970  0.14630  Biso   1.000  H
  H12      1.0000 0.55490  0.43030  0.14630  Biso   1.000  H
  H13      1.0000 0.44510  0.43030  0.35370  Biso   1.000  H
  H14      1.0000 0.55490  0.06970  0.35370  Biso   1.000  H
  H15      1.0000 0.94510  0.56970  0.14630  Biso   1.000  H
  H16      1.0000 0.05490  0.93030  0.14630  Biso   1.000  H
  H17      1.0000 0.91040  0.09320  0.44720  Biso   1.000  H
  H18      1.0000 0.08960  0.40680  0.44720  Biso   1.000  H
  H19      1.0000 0.41040  0.90680  0.05280  Biso   1.000  H
  H20      1.0000 0.58960  0.59320  0.05280  Biso   1.000  H
  H21      1.0000 0.41040  0.59320  0.44720  Biso   1.000  H
  H22      1.0000 0.58960  0.90680  0.44720  Biso   1.000  H
  H23      1.0000 0.91040  0.40680  0.05280  Biso   1.000  H
  H24      1.0000 0.08960  0.09320  0.05280  Biso   1.000  H
  H25      1.0000 0.08960  0.90680  0.55280  Biso   1.000  H
  H26      1.0000 0.91040  0.59320  0.55280  Biso   1.000  H
  H27      1.0000 0.58960  0.09320  0.94720  Biso   1.000  H
  H28      1.0000 0.41040  0.40680  0.94720  Biso   1.000  H
  H29      1.0000 0.58960  0.40680  0.55280  Biso   1.000  H
  H30      1.0000 0.41040  0.09320  0.55280  Biso   1.000  H
  H31      1.0000 0.08960  0.59320  0.94720  Biso   1.000  H
  H32      1.0000 0.91040  0.90680  0.94720  Biso   1.000  H
  H33      1.0000 0.05050  0.04230  0.41700  Biso   1.000  H
  H34      1.0000 0.94950  0.45770  0.41700  Biso   1.000  H
  H35      1.0000 0.55050  0.95770  0.08300  Biso   1.000  H
  H36      1.0000 0.44950  0.54230  0.08300  Biso   1.000  H
  H37      1.0000 0.55050  0.54230  0.41700  Biso   1.000  H
  H38      1.0000 0.44950  0.95770  0.41700  Biso   1.000  H
  H39      1.0000 0.05050  0.45770  0.08300  Biso   1.000  H
  H40      1.0000 0.94950  0.04230  0.08300  Biso   1.000  H
  H41      1.0000 0.94950  0.95770  0.58300  Biso   1.000  H
  H42      1.0000 0.05050  0.54230  0.58300  Biso   1.000  H
  H43      1.0000 0.44950  0.04230  0.91700  Biso   1.000  H
  H44      1.0000 0.55050  0.45770  0.91700  Biso   1.000  H
  H45      1.0000 0.44950  0.45770  0.58300  Biso   1.000  H
  H46      1.0000 0.55050  0.04230  0.58300  Biso   1.000  H
  H47      1.0000 0.94950  0.54230  0.91700  Biso   1.000  H
  H48      1.0000 0.05050  0.95770  0.91700  Biso   1.000  H
  H49      1.0000 0.17690  0.02130  0.66240  Biso   1.000  H
  H50      1.0000 0.82310  0.47870  0.66240  Biso   1.000  H
  H51      1.0000 0.67690  0.97870  0.83760  Biso   1.000  H
  H52      1.0000 0.32310  0.52130  0.83760  Biso   1.000  H
  H53      1.0000 0.67690  0.52130  0.66240  Biso   1.000  H
  H54      1.0000 0.32310  0.97870  0.66240  Biso   1.000  H
  H55      1.0000 0.17690  0.47870  0.83760  Biso   1.000  H
  H56      1.0000 0.82310  0.02130  0.83760  Biso   1.000  H
  H57      1.0000 0.82310  0.97870  0.33760  Biso   1.000  H
  H58      1.0000 0.17690  0.52130  0.33760  Biso   1.000  H
  H59      1.0000 0.32310  0.02130  0.16240  Biso   1.000  H
  H60      1.0000 0.67690  0.47870  0.16240  Biso   1.000  H
  H61      1.0000 0.32310  0.47870  0.33760  Biso   1.000  H
  H62      1.0000 0.67690  0.02130  0.33760  Biso   1.000  H
  H63      1.0000 0.82310  0.52130  0.16240  Biso   1.000  H
  H64      1.0000 0.17690  0.97870  0.16240  Biso   1.000  H
  H65      1.0000 0.89700  0.18810  0.52460  Biso   1.000  H
  H66      1.0000 0.10300  0.31190  0.52460  Biso   1.000  H
  H67      1.0000 0.39700  0.81190  0.97540  Biso   1.000  H
  H68      1.0000 0.60300  0.68810  0.97540  Biso   1.000  H
  H69      1.0000 0.39700  0.68810  0.52460  Biso   1.000  H
  H70      1.0000 0.60300  0.81190  0.52460  Biso   1.000  H
  H71      1.0000 0.89700  0.31190  0.97540  Biso   1.000  H
  H72      1.0000 0.10300  0.18810  0.97540  Biso   1.000  H
  H73      1.0000 0.10300  0.81190  0.47540  Biso   1.000  H
  H74      1.0000 0.89700  0.68810  0.47540  Biso   1.000  H
  H75      1.0000 0.60300  0.18810  0.02460  Biso   1.000  H
  H76      1.0000 0.39700  0.31190  0.02460  Biso   1.000  H
  H77      1.0000 0.60300  0.31190  0.47540  Biso   1.000  H
  H78      1.0000 0.39700  0.18810  0.47540  Biso   1.000  H
  H79      1.0000 0.10300  0.68810  0.02460  Biso   1.000  H
  H80      1.0000 0.89700  0.81190  0.02460  Biso   1.000  H
  H81      1.0000 0.98750  0.18930  0.58380  Biso   1.000  H
  H82      1.0000 0.01250  0.31070  0.58380  Biso   1.000  H
  H83      1.0000 0.48750  0.81070  0.91620  Biso   1.000  H
  H84      1.0000 0.51250  0.68930  0.91620  Biso   1.000  H
  H85      1.0000 0.48750  0.68930  0.58380  Biso   1.000  H
  H86      1.0000 0.51250  0.81070  0.58380  Biso   1.000  H
  H87      1.0000 0.98750  0.31070  0.91620  Biso   1.000  H
  H88      1.0000 0.01250  0.18930  0.91620  Biso   1.000  H
  H89      1.0000 0.01250  0.81070  0.41620  Biso   1.000  H
  H90      1.0000 0.98750  0.68930  0.41620  Biso   1.000  H
  H91      1.0000 0.51250  0.18930  0.08380  Biso   1.000  H
  H92      1.0000 0.48750  0.31070  0.08380  Biso   1.000  H
  H93      1.0000 0.51250  0.31070  0.41620  Biso   1.000  H
  H94      1.0000 0.48750  0.18930  0.41620  Biso   1.000  H
  H95      1.0000 0.01250  0.68930  0.08380  Biso   1.000  H
  H96      1.0000 0.98750  0.81070  0.08380  Biso   1.000  H
  H97      1.0000 0.86720  0.25310  0.58750  Biso   1.000  H
  H98      1.0000 0.13280  0.24690  0.58750  Biso   1.000  H
  H99      1.0000 0.36720  0.74690  0.91250  Biso   1.000  H
  H100     1.0000 0.63280  0.75310  0.91250  Biso   1.000  H
  H101     1.0000 0.36720  0.75310  0.58750  Biso   1.000  H
  H102     1.0000 0.63280  0.74690  0.58750  Biso   1.000  H
  H103     1.0000 0.86720  0.24690  0.91250  Biso   1.000  H
  H104     1.0000 0.13280  0.25310  0.91250  Biso   1.000  H
  H105     1.0000 0.13280  0.74690  0.41250  Biso   1.000  H
  H106     1.0000 0.86720  0.75310  0.41250  Biso   1.000  H
  H107     1.0000 0.63280  0.25310  0.08750  Biso   1.000  H
  H108     1.0000 0.36720  0.24690  0.08750  Biso   1.000  H
  H109     1.0000 0.63280  0.24690  0.41250  Biso   1.000  H
  H110     1.0000 0.36720  0.25310  0.41250  Biso   1.000  H
  H111     1.0000 0.13280  0.75310  0.08750  Biso   1.000  H
  H112     1.0000 0.86720  0.74690  0.08750  Biso   1.000  H
  H113     1.0000 0.91090  0.23370  0.66800  Biso   1.000  H
  H114     1.0000 0.08910  0.26630  0.66800  Biso   1.000  H
  H115     1.0000 0.41090  0.76630  0.83200  Biso   1.000  H
  H116     1.0000 0.58910  0.73370  0.83200  Biso   1.000  H
  H117     1.0000 0.41090  0.73370  0.66800  Biso   1.000  H
  H118     1.0000 0.58910  0.76630  0.66800  Biso   1.000  H
  H119     1.0000 0.91090  0.26630  0.83200  Biso   1.000  H
  H120     1.0000 0.08910  0.23370  0.83200  Biso   1.000  H
  H121     1.0000 0.08910  0.76630  0.33200  Biso   1.000  H
  H122     1.0000 0.91090  0.73370  0.33200  Biso   1.000  H
  H123     1.0000 0.58910  0.23370  0.16800  Biso   1.000  H
  H124     1.0000 0.41090  0.26630  0.16800  Biso   1.000  H
  H125     1.0000 0.58910  0.26630  0.33200  Biso   1.000  H
  H126     1.0000 0.41090  0.23370  0.33200  Biso   1.000  H
  H127     1.0000 0.08910  0.73370  0.16800  Biso   1.000  H
  H128     1.0000 0.91090  0.76630  0.16800  Biso   1.000  H
  H129     1.0000 0.73390  0.20900  0.59940  Biso   1.000  H
  H130     1.0000 0.26610  0.29100  0.59940  Biso   1.000  H
  H131     1.0000 0.23390  0.79100  0.90060  Biso   1.000  H
  H132     1.0000 0.76610  0.70900  0.90060  Biso   1.000  H
  H133     1.0000 0.23390  0.70900  0.59940  Biso   1.000  H
  H134     1.0000 0.76610  0.79100  0.59940  Biso   1.000  H
  H135     1.0000 0.73390  0.29100  0.90060  Biso   1.000  H
  H136     1.0000 0.26610  0.20900  0.90060  Biso   1.000  H
  H137     1.0000 0.26610  0.79100  0.40060  Biso   1.000  H
  H138     1.0000 0.73390  0.70900  0.40060  Biso   1.000  H
  H139     1.0000 0.76610  0.20900  0.09940  Biso   1.000  H
  H140     1.0000 0.23390  0.29100  0.09940  Biso   1.000  H
  H141     1.0000 0.76610  0.29100  0.40060  Biso   1.000  H
  H142     1.0000 0.23390  0.20900  0.40060  Biso   1.000  H
  H143     1.0000 0.26610  0.70900  0.09940  Biso   1.000  H
  H144     1.0000 0.73390  0.79100  0.09940  Biso   1.000  H
  H145     1.0000 0.74870  0.23450  0.68190  Biso   1.000  H
  H146     1.0000 0.25130  0.26550  0.68190  Biso   1.000  H
  H147     1.0000 0.24870  0.76550  0.81810  Biso   1.000  H
  H148     1.0000 0.75130  0.73450  0.81810  Biso   1.000  H
  H149     1.0000 0.24870  0.73450  0.68190  Biso   1.000  H
  H150     1.0000 0.75130  0.76550  0.68190  Biso   1.000  H
  H151     1.0000 0.74870  0.26550  0.81810  Biso   1.000  H
  H152     1.0000 0.25130  0.23450  0.81810  Biso   1.000  H
  H153     1.0000 0.25130  0.76550  0.31810  Biso   1.000  H
  H154     1.0000 0.74870  0.73450  0.31810  Biso   1.000  H
  H155     1.0000 0.75130  0.23450  0.18190  Biso   1.000  H
  H156     1.0000 0.24870  0.26550  0.18190  Biso   1.000  H
  H157     1.0000 0.75130  0.26550  0.31810  Biso   1.000  H
  H158     1.0000 0.24870  0.23450  0.31810  Biso   1.000  H
  H159     1.0000 0.25130  0.73450  0.18190  Biso   1.000  H
  H160     1.0000 0.74870  0.76550  0.18190  Biso   1.000  H
  H161     1.0000 0.77810  0.17880  0.73810  Biso   1.000  H
  H162     1.0000 0.22190  0.32120  0.73810  Biso   1.000  H
  H163     1.0000 0.27810  0.82120  0.76190  Biso   1.000  H
  H164     1.0000 0.72190  0.67880  0.76190  Biso   1.000  H
  H165     1.0000 0.27810  0.67880  0.73810  Biso   1.000  H
  H166     1.0000 0.72190  0.82120  0.73810  Biso   1.000  H
  H167     1.0000 0.77810  0.32120  0.76190  Biso   1.000  H
  H168     1.0000 0.22190  0.17880  0.76190  Biso   1.000  H
  H169     1.0000 0.22190  0.82120  0.26190  Biso   1.000  H
  H170     1.0000 0.77810  0.67880  0.26190  Biso   1.000  H
  H171     1.0000 0.72190  0.17880  0.23810  Biso   1.000  H
  H172     1.0000 0.27810  0.32120  0.23810  Biso   1.000  H
  H173     1.0000 0.72190  0.32120  0.26190  Biso   1.000  H
  H174     1.0000 0.27810  0.17880  0.26190  Biso   1.000  H
  H175     1.0000 0.22190  0.67880  0.23810  Biso   1.000  H
  H176     1.0000 0.77810  0.82120  0.23810  Biso   1.000  H
  H177     1.0000 0.65260  0.14210  0.64260  Biso   1.000  H
  H178     1.0000 0.34740  0.35790  0.64260  Biso   1.000  H
  H179     1.0000 0.15260  0.85790  0.85740  Biso   1.000  H
  H180     1.0000 0.84740  0.64210  0.85740  Biso   1.000  H
  H181     1.0000 0.15260  0.64210  0.64260  Biso   1.000  H
  H182     1.0000 0.84740  0.85790  0.64260  Biso   1.000  H
  H183     1.0000 0.65260  0.35790  0.85740  Biso   1.000  H
  H184     1.0000 0.34740  0.14210  0.85740  Biso   1.000  H
  H185     1.0000 0.34740  0.85790  0.35740  Biso   1.000  H
  H186     1.0000 0.65260  0.64210  0.35740  Biso   1.000  H
  H187     1.0000 0.84740  0.14210  0.14260  Biso   1.000  H
  H188     1.0000 0.15260  0.35790  0.14260  Biso   1.000  H
  H189     1.0000 0.84740  0.35790  0.35740  Biso   1.000  H
  H190     1.0000 0.15260  0.14210  0.35740  Biso   1.000  H
  H191     1.0000 0.34740  0.64210  0.14260  Biso   1.000  H
  H192     1.0000 0.65260  0.85790  0.14260  Biso   1.000  H
  H193     1.0000 0.64840  0.15680  0.73300  Biso   1.000  H
  H194     1.0000 0.35160  0.34320  0.73300  Biso   1.000  H
  H195     1.0000 0.14840  0.84320  0.76700  Biso   1.000  H
  H196     1.0000 0.85160  0.65680  0.76700  Biso   1.000  H
  H197     1.0000 0.14840  0.65680  0.73300  Biso   1.000  H
  H198     1.0000 0.85160  0.84320  0.73300  Biso   1.000  H
  H199     1.0000 0.64840  0.34320  0.76700  Biso   1.000  H
  H200     1.0000 0.35160  0.15680  0.76700  Biso   1.000  H
  H201     1.0000 0.35160  0.84320  0.26700  Biso   1.000  H
  H202     1.0000 0.64840  0.65680  0.26700  Biso   1.000  H
  H203     1.0000 0.85160  0.15680  0.23300  Biso   1.000  H
  H204     1.0000 0.14840  0.34320  0.23300  Biso   1.000  H
  H205     1.0000 0.85160  0.34320  0.26700  Biso   1.000  H
  H206     1.0000 0.14840  0.15680  0.26700  Biso   1.000  H
  H207     1.0000 0.35160  0.65680  0.23300  Biso   1.000  H
  H208     1.0000 0.64840  0.84320  0.23300  Biso   1.000  H
  H209     1.0000 0.65730  0.07410  0.71450  Biso   1.000  H
  H210     1.0000 0.34270  0.42590  0.71450  Biso   1.000  H
  H211     1.0000 0.15730  0.92590  0.78550  Biso   1.000  H
  H212     1.0000 0.84270  0.57410  0.78550  Biso   1.000  H
  H213     1.0000 0.15730  0.57410  0.71450  Biso   1.000  H
  H214     1.0000 0.84270  0.92590  0.71450  Biso   1.000  H
  H215     1.0000 0.65730  0.42590  0.78550  Biso   1.000  H
  H216     1.0000 0.34270  0.07410  0.78550  Biso   1.000  H
  H217     1.0000 0.34270  0.92590  0.28550  Biso   1.000  H
  H218     1.0000 0.65730  0.57410  0.28550  Biso   1.000  H
  H219     1.0000 0.84270  0.07410  0.21450  Biso   1.000  H
  H220     1.0000 0.15730  0.42590  0.21450  Biso   1.000  H
  H221     1.0000 0.84270  0.42590  0.28550  Biso   1.000  H
  H222     1.0000 0.15730  0.07410  0.28550  Biso   1.000  H
  H223     1.0000 0.34270  0.57410  0.21450  Biso   1.000  H
  H224     1.0000 0.65730  0.92590  0.21450  Biso   1.000  H
  H225     1.0000 0.74380  0.09380  0.76800  Biso   1.000  H
  H226     1.0000 0.25620  0.40620  0.76800  Biso   1.000  H
  H227     1.0000 0.24380  0.90620  0.73200  Biso   1.000  H
  H228     1.0000 0.75620  0.59380  0.73200  Biso   1.000  H
  H229     1.0000 0.24380  0.59380  0.76800  Biso   1.000  H
  H230     1.0000 0.75620  0.90620  0.76800  Biso   1.000  H
  H231     1.0000 0.74380  0.40620  0.73200  Biso   1.000  H
  H232     1.0000 0.25620  0.09380  0.73200  Biso   1.000  H
  H233     1.0000 0.25620  0.90620  0.23200  Biso   1.000  H
  H234     1.0000 0.74380  0.59380  0.23200  Biso   1.000  H
  H235     1.0000 0.75620  0.09380  0.26800  Biso   1.000  H
  H236     1.0000 0.24380  0.40620  0.26800  Biso   1.000  H
  H237     1.0000 0.75620  0.40620  0.23200  Biso   1.000  H
  H238     1.0000 0.24380  0.09380  0.23200  Biso   1.000  H
  H239     1.0000 0.25620  0.59380  0.26800  Biso   1.000  H
  H240     1.0000 0.74380  0.90620  0.26800  Biso   1.000  H
  H241     1.0000 0.75230  0.06500  0.61320  Biso   1.000  H
  H242     1.0000 0.24770  0.43500  0.61320  Biso   1.000  H
  H243     1.0000 0.25230  0.93500  0.88680  Biso   1.000  H
  H244     1.0000 0.74770  0.56500  0.88680  Biso   1.000  H
  H245     1.0000 0.25230  0.56500  0.61320  Biso   1.000  H
  H246     1.0000 0.74770  0.93500  0.61320  Biso   1.000  H
  H247     1.0000 0.75230  0.43500  0.88680  Biso   1.000  H
  H248     1.0000 0.24770  0.06500  0.88680  Biso   1.000  H
  H249     1.0000 0.24770  0.93500  0.38680  Biso   1.000  H
  H250     1.0000 0.75230  0.56500  0.38680  Biso   1.000  H
  H251     1.0000 0.74770  0.06500  0.11320  Biso   1.000  H
  H252     1.0000 0.25230  0.43500  0.11320  Biso   1.000  H
  H253     1.0000 0.74770  0.43500  0.38680  Biso   1.000  H
  H254     1.0000 0.25230  0.06500  0.38680  Biso   1.000  H
  H255     1.0000 0.24770  0.56500  0.11320  Biso   1.000  H
  H256     1.0000 0.75230  0.93500  0.11320  Biso   1.000  H
  H257     1.0000 0.82600  0.05240  0.68280  Biso   1.000  H
  H258     1.0000 0.17400  0.44760  0.68280  Biso   1.000  H
  H259     1.0000 0.32600  0.94760  0.81720  Biso   1.000  H
  H260     1.0000 0.67400  0.55240  0.81720  Biso   1.000  H
  H261     1.0000 0.32600  0.55240  0.68280  Biso   1.000  H
  H262     1.0000 0.67400  0.94760  0.68280  Biso   1.000  H
  H263     1.0000 0.82600  0.44760  0.81720  Biso   1.000  H
  H264     1.0000 0.17400  0.05240  0.81720  Biso   1.000  H
  H265     1.0000 0.17400  0.94760  0.31720  Biso   1.000  H
  H266     1.0000 0.82600  0.55240  0.31720  Biso   1.000  H
  H267     1.0000 0.67400  0.05240  0.18280  Biso   1.000  H
  H268     1.0000 0.32600  0.44760  0.18280  Biso   1.000  H
  H269     1.0000 0.67400  0.44760  0.31720  Biso   1.000  H
  H270     1.0000 0.32600  0.05240  0.31720  Biso   1.000  H
  H271     1.0000 0.17400  0.55240  0.18280  Biso   1.000  H
  H272     1.0000 0.82600  0.94760  0.18280  Biso   1.000  H
