data_image0
_cell_length_a       13.473
_cell_length_b       20.6981
_cell_length_c       31.192
_cell_angle_alpha    100.417
_cell_angle_beta     100.896
_cell_angle_gamma    108.778

_symmetry_space_group_name_H-M    "P 1"
_symmetry_int_tables_number       1

loop_
  _symmetry_equiv_pos_as_xyz
  'x, y, z'

loop_
  _atom_site_label
  _atom_site_occupancy
  _atom_site_fract_x
  _atom_site_fract_y
  _atom_site_fract_z
  _atom_site_thermal_displace_type
  _atom_site_B_iso_or_equiv
  _atom_site_type_symbol
  Cu1      1.0000 0.82940  0.51787  0.49149  Biso   1.000  Cu
  Cu2      1.0000 0.17060  0.48213  0.50851  Biso   1.000  Cu
  Cu3      1.0000 0.89640  0.05469  0.46541  Biso   1.000  Cu
  Cu4      1.0000 0.10360  0.94531  0.53459  Biso   1.000  Cu
  O1       1.0000 0.89940  0.60575  0.53863  Biso   1.000  O
  O2       1.0000 0.10060  0.39425  0.46137  Biso   1.000  O
  O3       1.0000 0.05500  0.64366  0.51816  Biso   1.000  O
  O4       1.0000 0.94500  0.35634  0.48184  Biso   1.000  O
  O5       1.0000 0.75420  0.43092  0.44412  Biso   1.000  O
  O6       1.0000 0.24580  0.56908  0.55588  Biso   1.000  O
  O7       1.0000 0.90030  0.45755  0.41712  Biso   1.000  O
  O8       1.0000 0.09970  0.54245  0.58288  Biso   1.000  O
  O9       1.0000 0.90680  0.46888  0.52550  Biso   1.000  O
  O10      1.0000 0.09320  0.53112  0.47450  Biso   1.000  O
  H1       1.0000 0.86560  0.44550  0.53990  Biso   1.000  H
  H2       1.0000 0.13440  0.55450  0.46010  Biso   1.000  H
  H3       1.0000 0.92300  0.44000  0.50700  Biso   1.000  H
  H4       1.0000 0.07700  0.56000  0.49300  Biso   1.000  H
  O11      1.0000 0.77310  0.56967  0.45197  Biso   1.000  O
  O12      1.0000 0.22690  0.43033  0.54803  Biso   1.000  O
  H5       1.0000 0.70290  0.55100  0.44340  Biso   1.000  H
  H6       1.0000 0.29710  0.44900  0.55660  Biso   1.000  H
  H7       1.0000 0.79300  0.61330  0.46680  Biso   1.000  H
  H8       1.0000 0.20700  0.38670  0.53320  Biso   1.000  H
  O13      1.0000 0.68300  0.49172  0.52426  Biso   1.000  O
  O14      1.0000 0.31700  0.50828  0.47574  Biso   1.000  O
  O15      1.0000 0.41930  0.26319  0.04843  Biso   1.000  O
  O16      1.0000 0.58070  0.73681  0.95157  Biso   1.000  O
  O17      1.0000 0.34410  0.20439  0.11517  Biso   1.000  O
  O18      1.0000 0.65590  0.79561  0.88483  Biso   1.000  O
  O19      1.0000 0.28120  0.14670  0.21188  Biso   1.000  O
  O20      1.0000 0.71880  0.85330  0.78812  Biso   1.000  O
  O21      1.0000 0.04240  0.05398  0.17853  Biso   1.000  O
  O22      1.0000 0.95760  0.94602  0.82147  Biso   1.000  O
  O23      1.0000 0.97780  0.02866  0.08396  Biso   1.000  O
  O24      1.0000 0.02220  0.97134  0.91604  Biso   1.000  O
  O25      1.0000 0.90060  0.13530  0.92018  Biso   1.000  O
  O26      1.0000 0.09940  0.86470  0.07982  Biso   1.000  O
  O27      1.0000 0.83670  0.11182  0.82369  Biso   1.000  O
  O28      1.0000 0.16330  0.88818  0.17631  Biso   1.000  O
  O29      1.0000 0.95520  0.18350  0.76633  Biso   1.000  O
  O30      1.0000 0.04480  0.81650  0.23367  Biso   1.000  O
  O31      1.0000 0.06250  0.31338  0.82873  Biso   1.000  O
  O32      1.0000 0.93750  0.68662  0.17127  Biso   1.000  O
  O33      1.0000 0.25370  0.32967  0.89335  Biso   1.000  O
  O34      1.0000 0.74630  0.67033  0.10665  Biso   1.000  O
  O35      1.0000 0.82100  0.97430  0.41351  Biso   1.000  O
  O36      1.0000 0.17900  0.02570  0.58649  Biso   1.000  O
  O37      1.0000 0.42017  0.75992  0.05309  Biso   1.000  O
  O38      1.0000 0.57983  0.24008  0.94691  Biso   1.000  O
  O39      1.0000 0.36310  0.71401  0.12654  Biso   1.000  O
  O40      1.0000 0.63690  0.28599  0.87346  Biso   1.000  O
  O41      1.0000 0.28740  0.68810  0.21742  Biso   1.000  O
  O42      1.0000 0.71260  0.31190  0.78258  Biso   1.000  O
  O43      1.0000 0.06940  0.53540  0.17693  Biso   1.000  O
  O44      1.0000 0.93060  0.46460  0.82307  Biso   1.000  O
  O45      1.0000 0.00420  0.52802  0.08436  Biso   1.000  O
  O46      1.0000 0.99580  0.47198  0.91564  Biso   1.000  O
  O47      1.0000 0.91670  0.66267  0.93541  Biso   1.000  O
  O48      1.0000 0.08330  0.33733  0.06459  Biso   1.000  O
  O49      1.0000 0.85890  0.65002  0.84048  Biso   1.000  O
  O50      1.0000 0.14110  0.34998  0.15952  Biso   1.000  O
  O51      1.0000 0.93750  0.67540  0.76556  Biso   1.000  O
  O52      1.0000 0.06250  0.32460  0.23444  Biso   1.000  O
  O53      1.0000 0.09900  0.79870  0.82066  Biso   1.000  O
  O54      1.0000 0.90100  0.20130  0.17934  Biso   1.000  O
  O55      1.0000 0.26820  0.82216  0.89430  Biso   1.000  O
  O56      1.0000 0.73180  0.17784  0.10570  Biso   1.000  O
  O57      1.0000 0.94900  0.07370  0.56830  Biso   1.000  O
  O58      1.0000 0.05100  0.92630  0.43170  Biso   1.000  O
  O59      1.0000 0.96260  0.14020  0.51250  Biso   1.000  O
  O60      1.0000 0.03740  0.85980  0.48750  Biso   1.000  O
  O61      1.0000 0.04100  0.05480  0.46280  Biso   1.000  O
  O62      1.0000 0.95900  0.94520  0.53720  Biso   1.000  O
  H9       1.0000 0.03650  0.01230  0.45120  Biso   1.000  H
  H10      1.0000 0.96350  0.98770  0.54880  Biso   1.000  H
  H11      1.0000 0.06660  0.08200  0.44620  Biso   1.000  H
  H12      1.0000 0.93340  0.91800  0.55380  Biso   1.000  H
  O63      1.0000 0.74750  0.04890  0.46880  Biso   1.000  O
  O64      1.0000 0.25250  0.95110  0.53120  Biso   1.000  O
  H13      1.0000 0.71440  0.01110  0.47730  Biso   1.000  H
  H14      1.0000 0.28560  0.98890  0.52270  Biso   1.000  H
  H15      1.0000 0.75060  0.08630  0.48850  Biso   1.000  H
  H16      1.0000 0.24940  0.91370  0.51150  Biso   1.000  H
  N1       1.0000 0.57980  0.53480  0.56100  Biso   1.000  N
  N2       1.0000 0.42020  0.46520  0.43900  Biso   1.000  N
  C1       1.0000 0.99270  0.65200  0.54141  Biso   1.000  C
  C2       1.0000 0.00730  0.34800  0.45859  Biso   1.000  C
  C3       1.0000 0.02420  0.72060  0.57626  Biso   1.000  C
  C4       1.0000 0.97580  0.27940  0.42374  Biso   1.000  C
  C5       1.0000 0.95750  0.73190  0.60269  Biso   1.000  C
  C6       1.0000 0.04250  0.26810  0.39731  Biso   1.000  C
  H17      1.0000 0.89010  0.69590  0.59870  Biso   1.000  H
  H18      1.0000 0.10990  0.30410  0.40130  Biso   1.000  H
  C7       1.0000 0.98730  0.79490  0.63504  Biso   1.000  C
  C8       1.0000 0.01270  0.20510  0.36496  Biso   1.000  C
  H19      1.0000 0.93860  0.80260  0.65150  Biso   1.000  H
  H20      1.0000 0.06140  0.19740  0.34850  Biso   1.000  H
  C9       1.0000 0.09170  0.84760  0.64331  Biso   1.000  C
  C10      1.0000 0.90830  0.15240  0.35669  Biso   1.000  C
  C11      1.0000 0.15970  0.83700  0.61648  Biso   1.000  C
  C12      1.0000 0.84030  0.16300  0.38352  Biso   1.000  C
  C13      1.0000 0.12510  0.77420  0.58286  Biso   1.000  C
  C14      1.0000 0.87490  0.22580  0.41714  Biso   1.000  C
  H21      1.0000 0.17030  0.76760  0.56430  Biso   1.000  H
  H22      1.0000 0.82970  0.23240  0.43570  Biso   1.000  H
  C15      1.0000 0.12750  0.91230  0.68202  Biso   1.000  C
  C16      1.0000 0.87250  0.08770  0.31798  Biso   1.000  C
  C17      1.0000 0.21930  0.92820  0.71642  Biso   1.000  C
  C18      1.0000 0.78070  0.07180  0.28358  Biso   1.000  C
  H23      1.0000 0.26160  0.90000  0.71430  Biso   1.000  H
  H24      1.0000 0.73840  0.10000  0.28570  Biso   1.000  H
  C19      1.0000 0.25100  0.98450  0.75409  Biso   1.000  C
  C20      1.0000 0.74900  0.01550  0.24591  Biso   1.000  C
  H25      1.0000 0.31380  0.99330  0.77690  Biso   1.000  H
  H26      1.0000 0.68620  0.00670  0.22310  Biso   1.000  H
  C21      1.0000 0.19230  0.02824  0.75892  Biso   1.000  C
  C22      1.0000 0.80770  0.97176  0.24108  Biso   1.000  C
  C23      1.0000 0.10220  0.01310  0.72259  Biso   1.000  C
  C24      1.0000 0.89780  0.98690  0.27741  Biso   1.000  C
  H27      1.0000 0.06170  0.04260  0.72330  Biso   1.000  H
  H28      1.0000 0.93830  0.95740  0.27670  Biso   1.000  H
  C25      1.0000 0.07170  0.95650  0.68604  Biso   1.000  C
  C26      1.0000 0.92830  0.04350  0.31396  Biso   1.000  C
  H29      1.0000 0.00970  0.94780  0.66280  Biso   1.000  H
  H30      1.0000 0.99030  0.05220  0.33720  Biso   1.000  H
  C27      1.0000 0.22220  0.08647  0.80032  Biso   1.000  C
  C28      1.0000 0.77780  0.91353  0.19968  Biso   1.000  C
  C29      1.0000 0.17110  0.13501  0.80469  Biso   1.000  C
  C30      1.0000 0.82890  0.86499  0.19531  Biso   1.000  C
  H31      1.0000 0.11760  0.13280  0.77960  Biso   1.000  H
  H32      1.0000 0.88240  0.86720  0.22040  Biso   1.000  H
  C31      1.0000 0.19540  0.18625  0.84425  Biso   1.000  C
  C32      1.0000 0.80460  0.81375  0.15575  Biso   1.000  C
  H33      1.0000 0.15790  0.21750  0.84550  Biso   1.000  H
  H34      1.0000 0.84210  0.78250  0.15450  Biso   1.000  H
  C33      1.0000 0.27500  0.19264  0.88266  Biso   1.000  C
  C34      1.0000 0.72500  0.80736  0.11734  Biso   1.000  C
  C35      1.0000 0.32800  0.14463  0.87806  Biso   1.000  C
  C36      1.0000 0.67200  0.85537  0.12194  Biso   1.000  C
  H35      1.0000 0.38280  0.14740  0.90280  Biso   1.000  H
  H36      1.0000 0.61720  0.85260  0.09720  Biso   1.000  H
  C37      1.0000 0.30210  0.09340  0.83836  Biso   1.000  C
  C38      1.0000 0.69790  0.90660  0.16164  Biso   1.000  C
  H37      1.0000 0.33960  0.06220  0.83690  Biso   1.000  H
  H38      1.0000 0.66040  0.93780  0.16310  Biso   1.000  H
  C39      1.0000 0.30430  0.24566  0.92701  Biso   1.000  C
  C40      1.0000 0.69570  0.75434  0.07299  Biso   1.000  C
  C41      1.0000 0.34580  0.22998  0.96674  Biso   1.000  C
  C42      1.0000 0.65420  0.77002  0.03326  Biso   1.000  C
  H39      1.0000 0.35090  0.18540  0.96470  Biso   1.000  H
  H40      1.0000 0.64910  0.81460  0.03530  Biso   1.000  H
  C43      1.0000 0.37970  0.27710  0.00913  Biso   1.000  C
  C44      1.0000 0.62030  0.72290  0.99087  Biso   1.000  C
  C45      1.0000 0.37610  0.34477  0.01309  Biso   1.000  C
  C46      1.0000 0.62390  0.65523  0.98691  Biso   1.000  C
  C47      1.0000 0.33250  0.35949  0.97360  Biso   1.000  C
  C48      1.0000 0.66750  0.64051  0.02640  Biso   1.000  C
  H41      1.0000 0.32750  0.40420  0.97560  Biso   1.000  H
  H42      1.0000 0.67250  0.59580  0.02440  Biso   1.000  H
  C49      1.0000 0.29600  0.31194  0.93153  Biso   1.000  C
  C50      1.0000 0.70400  0.68806  0.06847  Biso   1.000  C
  C51      1.0000 0.41490  0.39975  0.05688  Biso   1.000  C
  C52      1.0000 0.58510  0.60025  0.94312  Biso   1.000  C
  C53      1.0000 0.39100  0.38640  0.09644  Biso   1.000  C
  C54      1.0000 0.60900  0.61360  0.90356  Biso   1.000  C
  H43      1.0000 0.35270  0.33980  0.09690  Biso   1.000  H
  H44      1.0000 0.64730  0.66020  0.90310  Biso   1.000  H
  C55      1.0000 0.42280  0.44070  0.13536  Biso   1.000  C
  C56      1.0000 0.57720  0.55930  0.86464  Biso   1.000  C
  H45      1.0000 0.40380  0.43010  0.16150  Biso   1.000  H
  H46      1.0000 0.59620  0.56990  0.83850  Biso   1.000  H
  C57      1.0000 0.48210  0.51078  0.13703  Biso   1.000  C
  C58      1.0000 0.51790  0.48922  0.86297  Biso   1.000  C
  C59      1.0000 0.50810  0.52295  0.09733  Biso   1.000  C
  C60      1.0000 0.49190  0.47705  0.90267  Biso   1.000  C
  H47      1.0000 0.54870  0.56920  0.09710  Biso   1.000  H
  H48      1.0000 0.45130  0.43080  0.90290  Biso   1.000  H
  C61      1.0000 0.47660  0.46983  0.05881  Biso   1.000  C
  C62      1.0000 0.52340  0.53017  0.94119  Biso   1.000  C
  H49      1.0000 0.49670  0.48040  0.03290  Biso   1.000  H
  H50      1.0000 0.50330  0.51960  0.96710  Biso   1.000  H
  C63      1.0000 0.51750  0.56831  0.17910  Biso   1.000  C
  C64      1.0000 0.48250  0.43169  0.82090  Biso   1.000  C
  C65      1.0000 0.46450  0.56380  0.21327  Biso   1.000  C
  C66      1.0000 0.53550  0.43620  0.78673  Biso   1.000  C
  H51      1.0000 0.40220  0.52370  0.20920  Biso   1.000  H
  H52      1.0000 0.59780  0.47630  0.79080  Biso   1.000  H
  C67      1.0000 0.50080  0.61660  0.25283  Biso   1.000  C
  C68      1.0000 0.49920  0.38340  0.74717  Biso   1.000  C
  H53      1.0000 0.46280  0.61150  0.27510  Biso   1.000  H
  H54      1.0000 0.53720  0.38850  0.72490  Biso   1.000  H
  C69      1.0000 0.59240  0.67745  0.26069  Biso   1.000  C
  C70      1.0000 0.40760  0.32255  0.73931  Biso   1.000  C
  C71      1.0000 0.64250  0.68355  0.22559  Biso   1.000  C
  C72      1.0000 0.35750  0.31645  0.77441  Biso   1.000  C
  H55      1.0000 0.70250  0.72480  0.22900  Biso   1.000  H
  H56      1.0000 0.29750  0.27520  0.77100  Biso   1.000  H
  C73      1.0000 0.60640  0.63076  0.18614  Biso   1.000  C
  C74      1.0000 0.39360  0.36924  0.81386  Biso   1.000  C
  H57      1.0000 0.64240  0.63680  0.16330  Biso   1.000  H
  H58      1.0000 0.35760  0.36320  0.83670  Biso   1.000  H
  C75      1.0000 0.63590  0.73460  0.30330  Biso   1.000  C
  C76      1.0000 0.36410  0.26540  0.69670  Biso   1.000  C
  C77      1.0000 0.65080  0.72290  0.34565  Biso   1.000  C
  C78      1.0000 0.34920  0.27710  0.65435  Biso   1.000  C
  C79      1.0000 0.70250  0.78260  0.38393  Biso   1.000  C
  C80      1.0000 0.29750  0.21740  0.61607  Biso   1.000  C
  H59      1.0000 0.71340  0.77540  0.41310  Biso   1.000  H
  H60      1.0000 0.28660  0.22460  0.58690  Biso   1.000  H
  C81      1.0000 0.73750  0.85160  0.37901  Biso   1.000  C
  C82      1.0000 0.26250  0.14840  0.62099  Biso   1.000  C
  C83      1.0000 0.71890  0.86180  0.33729  Biso   1.000  C
  C84      1.0000 0.28110  0.13820  0.66271  Biso   1.000  C
  H61      1.0000 0.74080  0.90800  0.33380  Biso   1.000  H
  H62      1.0000 0.25920  0.09200  0.66620  Biso   1.000  H
  C85      1.0000 0.66890  0.80610  0.29999  Biso   1.000  C
  C86      1.0000 0.33110  0.19390  0.70001  Biso   1.000  C
  H63      1.0000 0.65570  0.81490  0.27130  Biso   1.000  H
  H64      1.0000 0.34430  0.18510  0.72870  Biso   1.000  H
  C87      1.0000 0.62070  0.65300  0.35530  Biso   1.000  C
  C88      1.0000 0.37930  0.34700  0.64470  Biso   1.000  C
  H65      1.0000 0.54600  0.63730  0.35710  Biso   1.000  H
  H66      1.0000 0.45400  0.36270  0.64290  Biso   1.000  H
  H67      1.0000 0.66830  0.65630  0.38380  Biso   1.000  H
  H68      1.0000 0.33170  0.34370  0.61620  Biso   1.000  H
  H69      1.0000 0.62820  0.61930  0.33130  Biso   1.000  H
  H70      1.0000 0.37180  0.38070  0.66870  Biso   1.000  H
  C89      1.0000 0.79570  0.91400  0.42030  Biso   1.000  C
  C90      1.0000 0.20430  0.08600  0.57970  Biso   1.000  C
  C91      1.0000 0.40450  0.19186  0.04890  Biso   1.000  C
  C92      1.0000 0.59550  0.80814  0.95110  Biso   1.000  C
  H71      1.0000 0.45510  0.17670  0.03470  Biso   1.000  H
  H72      1.0000 0.54490  0.82330  0.96530  Biso   1.000  H
  H73      1.0000 0.33010  0.16020  0.03240  Biso   1.000  H
  H74      1.0000 0.66990  0.83980  0.96760  Biso   1.000  H
  C93      1.0000 0.42640  0.19049  0.09770  Biso   1.000  C
  C94      1.0000 0.57360  0.80951  0.90230  Biso   1.000  C
  H75      1.0000 0.42680  0.14410  0.10030  Biso   1.000  H
  H76      1.0000 0.57320  0.85590  0.89970  Biso   1.000  H
  H77      1.0000 0.49760  0.22630  0.11480  Biso   1.000  H
  H78      1.0000 0.50240  0.77370  0.88520  Biso   1.000  H
  C95      1.0000 0.35390  0.20350  0.16120  Biso   1.000  C
  C96      1.0000 0.64610  0.79650  0.83880  Biso   1.000  C
  H79      1.0000 0.34640  0.24590  0.17770  Biso   1.000  H
  H80      1.0000 0.65360  0.75410  0.82230  Biso   1.000  H
  H81      1.0000 0.42630  0.20430  0.17480  Biso   1.000  H
  H82      1.0000 0.57370  0.79570  0.82520  Biso   1.000  H
  C97      1.0000 0.27330  0.14240  0.16520  Biso   1.000  C
  C98      1.0000 0.72670  0.85760  0.83480  Biso   1.000  C
  H83      1.0000 0.28430  0.09990  0.15100  Biso   1.000  H
  H84      1.0000 0.71570  0.90010  0.84900  Biso   1.000  H
  H85      1.0000 0.20090  0.13950  0.14980  Biso   1.000  H
  H86      1.0000 0.79910  0.86050  0.85020  Biso   1.000  H
  C99      1.0000 0.23060  0.08050  0.22067  Biso   1.000  C
  C100     1.0000 0.76940  0.91950  0.77933  Biso   1.000  C
  H87      1.0000 0.27160  0.07980  0.25000  Biso   1.000  H
  H88      1.0000 0.72840  0.92020  0.75000  Biso   1.000  H
  H89      1.0000 0.23390  0.04290  0.19750  Biso   1.000  H
  H90      1.0000 0.76610  0.95710  0.80250  Biso   1.000  H
  C101     1.0000 0.11400  0.06510  0.22116  Biso   1.000  C
  C102     1.0000 0.88600  0.93490  0.77884  Biso   1.000  C
  H91      1.0000 0.08860  0.02300  0.23230  Biso   1.000  H
  H92      1.0000 0.91140  0.97700  0.76770  Biso   1.000  H
  H93      1.0000 0.11030  0.10470  0.24260  Biso   1.000  H
  H94      1.0000 0.88970  0.89530  0.75740  Biso   1.000  H
  C103     1.0000 0.02020  0.98830  0.14824  Biso   1.000  C
  C104     1.0000 0.97980  0.01170  0.85176  Biso   1.000  C
  H95      1.0000 0.99610  0.95000  0.16280  Biso   1.000  H
  H96      1.0000 0.00390  0.05000  0.83720  Biso   1.000  H
  H97      1.0000 0.08620  0.98760  0.13970  Biso   1.000  H
  H98      1.0000 0.91380  0.01240  0.86030  Biso   1.000  H
  C105     1.0000 0.93340  0.97807  0.10718  Biso   1.000  C
  C106     1.0000 0.06660  0.02193  0.89282  Biso   1.000  C
  H99      1.0000 0.90960  0.93020  0.08770  Biso   1.000  H
  H100     1.0000 0.09040  0.06980  0.91230  Biso   1.000  H
  H101     1.0000 0.87050  0.98470  0.11590  Biso   1.000  H
  H102     1.0000 0.12950  0.01530  0.88410  Biso   1.000  H
  C107     1.0000 0.91430  0.02849  0.04426  Biso   1.000  C
  C108     1.0000 0.08570  0.97151  0.95574  Biso   1.000  C
  C109     1.0000 0.80610  0.98573  0.02579  Biso   1.000  C
  C110     1.0000 0.19390  0.01427  0.97421  Biso   1.000  C
  H103     1.0000 0.77060  0.95310  0.04050  Biso   1.000  H
  H104     1.0000 0.22940  0.04690  0.95950  Biso   1.000  H
  C111     1.0000 0.75030  0.99130  0.98526  Biso   1.000  C
  C112     1.0000 0.24970  0.00870  0.01474  Biso   1.000  C
  H105     1.0000 0.67690  0.96160  0.97290  Biso   1.000  H
  H106     1.0000 0.32310  0.03840  0.02710  Biso   1.000  H
  C113     1.0000 0.79780  0.03852  0.96228  Biso   1.000  C
  C114     1.0000 0.20220  0.96148  0.03772  Biso   1.000  C
  H107     1.0000 0.75820  0.04080  0.93470  Biso   1.000  H
  H108     1.0000 0.24180  0.95920  0.06530  Biso   1.000  H
  C115     1.0000 0.90850  0.08366  0.98150  Biso   1.000  C
  C116     1.0000 0.09150  0.91634  0.01850  Biso   1.000  C
  C117     1.0000 0.96800  0.07929  0.02281  Biso   1.000  C
  C118     1.0000 0.03200  0.92071  0.97719  Biso   1.000  C
  C119     1.0000 0.07870  0.12564  0.04223  Biso   1.000  C
  C120     1.0000 0.92130  0.87436  0.95777  Biso   1.000  C
  H109     1.0000 0.11920  0.12190  0.06910  Biso   1.000  H
  H110     1.0000 0.88080  0.87810  0.93090  Biso   1.000  H
  C121     1.0000 0.12500  0.17560  0.02125  Biso   1.000  C
  C122     1.0000 0.87500  0.82440  0.97875  Biso   1.000  C
  H111     1.0000 0.19660  0.20790  0.03490  Biso   1.000  H
  H112     1.0000 0.80340  0.79210  0.96510  Biso   1.000  H
  C123     1.0000 0.06840  0.18000  0.97975  Biso   1.000  C
  C124     1.0000 0.93160  0.82000  0.02025  Biso   1.000  C
  H113     1.0000 0.10330  0.21360  0.96540  Biso   1.000  H
  H114     1.0000 0.89670  0.78640  0.03460  Biso   1.000  H
  C125     1.0000 0.96240  0.13550  0.96018  Biso   1.000  C
  C126     1.0000 0.03760  0.86450  0.03982  Biso   1.000  C
  C127     1.0000 0.95130  0.18390  0.89650  Biso   1.000  C
  C128     1.0000 0.04870  0.81610  0.10350  Biso   1.000  C
  H115     1.0000 0.01130  0.17280  0.88770  Biso   1.000  H
  H116     1.0000 0.98870  0.82720  0.11230  Biso   1.000  H
  H117     1.0000 0.98090  0.23220  0.91600  Biso   1.000  H
  H118     1.0000 0.01910  0.76780  0.08400  Biso   1.000  H
  C129     1.0000 0.86780  0.17790  0.85537  Biso   1.000  C
  C130     1.0000 0.13220  0.82210  0.14463  Biso   1.000  C
  H119     1.0000 0.80380  0.18280  0.86410  Biso   1.000  H
  H120     1.0000 0.19620  0.81720  0.13590  Biso   1.000  H
  H121     1.0000 0.89750  0.21620  0.84150  Biso   1.000  H
  H122     1.0000 0.10250  0.78380  0.15850  Biso   1.000  H
  C131     1.0000 0.78400  0.10850  0.78003  Biso   1.000  C
  C132     1.0000 0.21600  0.89150  0.21997  Biso   1.000  C
  H123     1.0000 0.74950  0.14360  0.78130  Biso   1.000  H
  H124     1.0000 0.25050  0.85640  0.21870  Biso   1.000  H
  H125     1.0000 0.72660  0.06160  0.76670  Biso   1.000  H
  H126     1.0000 0.27340  0.93840  0.23330  Biso   1.000  H
  C133     1.0000 0.86110  0.12190  0.75007  Biso   1.000  C
  C134     1.0000 0.13890  0.87810  0.24993  Biso   1.000  C
  H127     1.0000 0.88370  0.08140  0.74430  Biso   1.000  H
  H128     1.0000 0.11630  0.91860  0.25570  Biso   1.000  H
  H129     1.0000 0.82040  0.12340  0.72090  Biso   1.000  H
  H130     1.0000 0.17960  0.87660  0.27910  Biso   1.000  H
  C135     1.0000 0.93200  0.23970  0.75971  Biso   1.000  C
  C136     1.0000 0.06800  0.76030  0.24029  Biso   1.000  C
  H131     1.0000 0.87140  0.24150  0.77240  Biso   1.000  H
  H132     1.0000 0.12860  0.75850  0.22760  Biso   1.000  H
  H133     1.0000 0.90960  0.23520  0.72720  Biso   1.000  H
  H134     1.0000 0.09040  0.76480  0.27280  Biso   1.000  H
  C137     1.0000 0.03130  0.30820  0.78222  Biso   1.000  C
  C138     1.0000 0.96870  0.69180  0.21778  Biso   1.000  C
  H135     1.0000 0.09130  0.30760  0.76880  Biso   1.000  H
  H136     1.0000 0.90870  0.69240  0.23120  Biso   1.000  H
  H137     1.0000 0.01300  0.34900  0.77750  Biso   1.000  H
  H138     1.0000 0.98700  0.65100  0.22250  Biso   1.000  H
  C139     1.0000 0.14250  0.37986  0.85316  Biso   1.000  C
  C140     1.0000 0.85750  0.62014  0.14684  Biso   1.000  C
  H139     1.0000 0.10890  0.41540  0.85640  Biso   1.000  H
  H140     1.0000 0.89110  0.58460  0.14360  Biso   1.000  H
  H141     1.0000 0.19740  0.39400  0.83660  Biso   1.000  H
  H142     1.0000 0.80260  0.60600  0.16340  Biso   1.000  H
  C141     1.0000 0.19510  0.37641  0.89865  Biso   1.000  C
  C142     1.0000 0.80490  0.62359  0.10135  Biso   1.000  C
  H143     1.0000 0.24520  0.42370  0.91660  Biso   1.000  H
  H144     1.0000 0.75480  0.57630  0.08340  Biso   1.000  H
  H145     1.0000 0.13980  0.35890  0.91450  Biso   1.000  H
  H146     1.0000 0.86020  0.64110  0.08550  Biso   1.000  H
  C143     1.0000 0.80800  0.41848  0.41597  Biso   1.000  C
  C144     1.0000 0.19200  0.58152  0.58403  Biso   1.000  C
  C145     1.0000 0.75130  0.35355  0.37765  Biso   1.000  C
  C146     1.0000 0.24870  0.64645  0.62235  Biso   1.000  C
  C147     1.0000 0.64020  0.31622  0.36750  Biso   1.000  C
  C148     1.0000 0.35980  0.68378  0.63250  Biso   1.000  C
  H147     1.0000 0.60060  0.33080  0.38640  Biso   1.000  H
  H148     1.0000 0.39940  0.66920  0.61360  Biso   1.000  H
  C149     1.0000 0.58490  0.25775  0.33027  Biso   1.000  C
  C150     1.0000 0.41510  0.74225  0.66973  Biso   1.000  C
  C151     1.0000 0.64500  0.23541  0.30291  Biso   1.000  C
  C152     1.0000 0.35500  0.76459  0.69709  Biso   1.000  C
  C153     1.0000 0.75810  0.27320  0.31393  Biso   1.000  C
  C154     1.0000 0.24190  0.72680  0.68607  Biso   1.000  C
  H149     1.0000 0.79920  0.25820  0.29590  Biso   1.000  H
  H150     1.0000 0.20080  0.74180  0.70410  Biso   1.000  H
  C155     1.0000 0.80990  0.33110  0.35025  Biso   1.000  C
  C156     1.0000 0.19010  0.66890  0.64975  Biso   1.000  C
  H151     1.0000 0.88530  0.35560  0.35660  Biso   1.000  H
  H152     1.0000 0.11470  0.64440  0.64340  Biso   1.000  H
  C157     1.0000 0.46350  0.22350  0.31965  Biso   1.000  C
  C158     1.0000 0.53650  0.77650  0.68035  Biso   1.000  C
  H153     1.0000 0.44460  0.18050  0.32980  Biso   1.000  H
  H154     1.0000 0.55540  0.81950  0.67020  Biso   1.000  H
  H155     1.0000 0.43240  0.21200  0.28730  Biso   1.000  H
  H156     1.0000 0.56760  0.78800  0.71270  Biso   1.000  H
  H157     1.0000 0.43500  0.25570  0.33500  Biso   1.000  H
  H158     1.0000 0.56500  0.74430  0.66500  Biso   1.000  H
  C159     1.0000 0.59650  0.17804  0.26067  Biso   1.000  C
  C160     1.0000 0.40350  0.82196  0.73933  Biso   1.000  C
  C161     1.0000 0.52570  0.11110  0.25792  Biso   1.000  C
  C162     1.0000 0.47430  0.88890  0.74208  Biso   1.000  C
  H159     1.0000 0.50120  0.10210  0.28330  Biso   1.000  H
  H160     1.0000 0.49880  0.89790  0.71670  Biso   1.000  H
  C163     1.0000 0.49010  0.05720  0.21874  Biso   1.000  C
  C164     1.0000 0.50990  0.94280  0.78126  Biso   1.000  C
  H161     1.0000 0.44230  0.01230  0.21830  Biso   1.000  H
  H162     1.0000 0.55770  0.98770  0.78170  Biso   1.000  H
  C165     1.0000 0.52270  0.06716  0.17984  Biso   1.000  C
  C166     1.0000 0.47730  0.93284  0.82016  Biso   1.000  C
  C167     1.0000 0.59200  0.13554  0.18251  Biso   1.000  C
  C168     1.0000 0.40800  0.86446  0.81749  Biso   1.000  C
  H163     1.0000 0.61410  0.14510  0.15670  Biso   1.000  H
  H164     1.0000 0.38590  0.85490  0.84330  Biso   1.000  H
  C169     1.0000 0.62860  0.18905  0.22135  Biso   1.000  C
  C170     1.0000 0.37140  0.81095  0.77865  Biso   1.000  C
  H165     1.0000 0.67610  0.23400  0.22180  Biso   1.000  H
  H166     1.0000 0.32390  0.76600  0.77820  Biso   1.000  H
  C171     1.0000 0.48800  0.00927  0.13825  Biso   1.000  C
  C172     1.0000 0.51200  0.99073  0.86175  Biso   1.000  C
  C173     1.0000 0.42450  0.93975  0.13623  Biso   1.000  C
  C174     1.0000 0.57550  0.06025  0.86377  Biso   1.000  C
  H167     1.0000 0.40260  0.92980  0.16200  Biso   1.000  H
  H168     1.0000 0.59740  0.07020  0.83800  Biso   1.000  H
  C175     1.0000 0.39300  0.88547  0.09779  Biso   1.000  C
  C176     1.0000 0.60700  0.11453  0.90221  Biso   1.000  C
  H169     1.0000 0.35110  0.83950  0.09810  Biso   1.000  H
  H170     1.0000 0.64890  0.16050  0.90190  Biso   1.000  H
  C177     1.0000 0.42170  0.89703  0.05836  Biso   1.000  C
  C178     1.0000 0.57830  0.10297  0.94164  Biso   1.000  C
  C179     1.0000 0.48600  0.96635  0.06022  Biso   1.000  C
  C180     1.0000 0.51400  0.03365  0.93978  Biso   1.000  C
  H171     1.0000 0.50800  0.97620  0.03450  Biso   1.000  H
  H172     1.0000 0.49200  0.02380  0.96550  Biso   1.000  H
  C181     1.0000 0.51740  0.02020  0.09865  Biso   1.000  C
  C182     1.0000 0.48260  0.97980  0.90135  Biso   1.000  C
  H173     1.0000 0.56020  0.06600  0.09840  Biso   1.000  H
  H174     1.0000 0.43980  0.93400  0.90160  Biso   1.000  H
  C183     1.0000 0.38160  0.84100  0.01561  Biso   1.000  C
  C184     1.0000 0.61840  0.15900  0.98439  Biso   1.000  C
  C185     1.0000 0.38100  0.77266  0.01339  Biso   1.000  C
  C186     1.0000 0.61900  0.22734  0.98661  Biso   1.000  C
  C187     1.0000 0.34450  0.72296  0.97220  Biso   1.000  C
  C188     1.0000 0.65550  0.27704  0.02780  Biso   1.000  C
  H175     1.0000 0.34560  0.67760  0.97150  Biso   1.000  H
  H176     1.0000 0.65440  0.32240  0.02850  Biso   1.000  H
  C189     1.0000 0.30590  0.73746  0.93132  Biso   1.000  C
  C190     1.0000 0.69410  0.26254  0.06868  Biso   1.000  C
  C191     1.0000 0.30340  0.80523  0.93388  Biso   1.000  C
  C192     1.0000 0.69660  0.19477  0.06612  Biso   1.000  C
  C193     1.0000 0.34090  0.85461  0.97510  Biso   1.000  C
  C194     1.0000 0.65910  0.14539  0.02490  Biso   1.000  C
  H177     1.0000 0.33890  0.89980  0.97590  Biso   1.000  H
  H178     1.0000 0.66110  0.10020  0.02410  Biso   1.000  H
  C195     1.0000 0.27270  0.68127  0.88838  Biso   1.000  C
  C196     1.0000 0.72730  0.31873  0.11162  Biso   1.000  C
  C197     1.0000 0.32440  0.63211  0.88510  Biso   1.000  C
  C198     1.0000 0.67560  0.36789  0.11490  Biso   1.000  C
  H179     1.0000 0.38200  0.63720  0.90940  Biso   1.000  H
  H180     1.0000 0.61800  0.36280  0.09060  Biso   1.000  H
  C199     1.0000 0.29300  0.57658  0.84726  Biso   1.000  C
  C200     1.0000 0.70700  0.42342  0.15274  Biso   1.000  C
  H181     1.0000 0.32960  0.54480  0.84640  Biso   1.000  H
  H182     1.0000 0.67040  0.45520  0.15360  Biso   1.000  H
  C201     1.0000 0.20830  0.56653  0.81032  Biso   1.000  C
  C202     1.0000 0.79170  0.43347  0.18968  Biso   1.000  C
  C203     1.0000 0.15860  0.61668  0.81327  Biso   1.000  C
  C204     1.0000 0.84140  0.38332  0.18673  Biso   1.000  C
  H183     1.0000 0.10250  0.61220  0.78850  Biso   1.000  H
  H184     1.0000 0.89750  0.38780  0.21150  Biso   1.000  H
  C205     1.0000 0.18840  0.67201  0.85085  Biso   1.000  C
  C206     1.0000 0.81160  0.32799  0.14915  Biso   1.000  C
  H185     1.0000 0.15210  0.70390  0.85150  Biso   1.000  H
  H186     1.0000 0.84790  0.29610  0.14850  Biso   1.000  H
  C207     1.0000 0.17330  0.50559  0.77029  Biso   1.000  C
  C208     1.0000 0.82670  0.49441  0.22971  Biso   1.000  C
  C209     1.0000 0.24170  0.47051  0.76029  Biso   1.000  C
  C210     1.0000 0.75830  0.52949  0.23971  Biso   1.000  C
  H187     1.0000 0.31300  0.48670  0.77880  Biso   1.000  H
  H188     1.0000 0.68700  0.51330  0.22120  Biso   1.000  H
  C211     1.0000 0.20720  0.41239  0.72374  Biso   1.000  C
  C212     1.0000 0.79280  0.58761  0.27626  Biso   1.000  C
  H189     1.0000 0.25560  0.38970  0.71830  Biso   1.000  H
  H190     1.0000 0.74440  0.61030  0.28170  Biso   1.000  H
  C213     1.0000 0.10380  0.38671  0.69500  Biso   1.000  C
  C214     1.0000 0.89620  0.61329  0.30500  Biso   1.000  C
  C215     1.0000 0.03450  0.42130  0.70443  Biso   1.000  C
  C216     1.0000 0.96550  0.57870  0.29557  Biso   1.000  C
  H191     1.0000 0.96360  0.40490  0.68550  Biso   1.000  H
  H192     1.0000 0.03640  0.59510  0.31450  Biso   1.000  H
  C217     1.0000 0.06790  0.47950  0.74128  Biso   1.000  C
  C218     1.0000 0.93210  0.52050  0.25872  Biso   1.000  C
  H193     1.0000 0.01920  0.50170  0.74690  Biso   1.000  H
  H194     1.0000 0.98080  0.49830  0.25310  Biso   1.000  H
  C219     1.0000 0.06710  0.32200  0.65732  Biso   1.000  C
  C220     1.0000 0.93290  0.67800  0.34268  Biso   1.000  C
  C221     1.0000 0.02110  0.31890  0.61274  Biso   1.000  C
  C222     1.0000 0.97890  0.68110  0.38726  Biso   1.000  C
  C223     1.0000 0.99000  0.25580  0.58014  Biso   1.000  C
  C224     1.0000 0.01000  0.74420  0.41986  Biso   1.000  C
  H195     1.0000 0.95950  0.25370  0.55000  Biso   1.000  H
  H196     1.0000 0.04050  0.74630  0.45000  Biso   1.000  H
  C225     1.0000 0.00190  0.19660  0.59003  Biso   1.000  C
  C226     1.0000 0.99810  0.80340  0.40997  Biso   1.000  C
  C227     1.0000 0.04590  0.19930  0.63527  Biso   1.000  C
  C228     1.0000 0.95410  0.80070  0.36473  Biso   1.000  C
  H197     1.0000 0.05260  0.15870  0.64290  Biso   1.000  H
  H198     1.0000 0.94740  0.84130  0.35710  Biso   1.000  H
  C229     1.0000 0.07860  0.26070  0.66787  Biso   1.000  C
  C230     1.0000 0.92140  0.73930  0.33213  Biso   1.000  C
  H199     1.0000 0.10950  0.26250  0.69790  Biso   1.000  H
  H200     1.0000 0.89050  0.73750  0.30210  Biso   1.000  H
  C231     1.0000 0.00900  0.38170  0.59886  Biso   1.000  C
  C232     1.0000 0.99100  0.61830  0.40114  Biso   1.000  C
  H201     1.0000 0.94010  0.38440  0.60210  Biso   1.000  H
  H202     1.0000 0.05990  0.61560  0.39790  Biso   1.000  H
  H203     1.0000 0.01090  0.37740  0.56760  Biso   1.000  H
  H204     1.0000 0.98910  0.62260  0.43240  Biso   1.000  H
  H205     1.0000 0.06800  0.42410  0.61790  Biso   1.000  H
  H206     1.0000 0.93200  0.57590  0.38210  Biso   1.000  H
  C233     1.0000 0.96710  0.13030  0.55350  Biso   1.000  C
  C234     1.0000 0.03290  0.86970  0.44650  Biso   1.000  C
  C235     1.0000 0.39890  0.68873  0.05505  Biso   1.000  C
  C236     1.0000 0.60110  0.31127  0.94495  Biso   1.000  C
  H207     1.0000 0.44180  0.66860  0.03860  Biso   1.000  H
  H208     1.0000 0.55820  0.33140  0.96140  Biso   1.000  H
  H209     1.0000 0.32170  0.65990  0.04140  Biso   1.000  H
  H210     1.0000 0.67830  0.34010  0.95860  Biso   1.000  H
  C237     1.0000 0.42960  0.69000  0.10336  Biso   1.000  C
  C238     1.0000 0.57040  0.31000  0.89664  Biso   1.000  C
  H211     1.0000 0.42230  0.64240  0.10610  Biso   1.000  H
  H212     1.0000 0.57770  0.35760  0.89390  Biso   1.000  H
  H213     1.0000 0.50580  0.72120  0.11700  Biso   1.000  H
  H214     1.0000 0.49420  0.27880  0.88300  Biso   1.000  H
  C239     1.0000 0.41380  0.73580  0.17366  Biso   1.000  C
  C240     1.0000 0.58620  0.26420  0.82634  Biso   1.000  C
  H215     1.0000 0.44270  0.69990  0.18050  Biso   1.000  H
  H216     1.0000 0.55730  0.30010  0.81950  Biso   1.000  H
  H217     1.0000 0.47680  0.77940  0.17900  Biso   1.000  H
  H218     1.0000 0.52320  0.22060  0.82100  Biso   1.000  H
  C241     1.0000 0.36540  0.74690  0.20240  Biso   1.000  C
  C242     1.0000 0.63460  0.25310  0.79760  Biso   1.000  C
  H219     1.0000 0.32360  0.77460  0.19180  Biso   1.000  H
  H220     1.0000 0.67640  0.22540  0.80820  Biso   1.000  H
  H221     1.0000 0.42130  0.77810  0.22980  Biso   1.000  H
  H222     1.0000 0.57870  0.22190  0.77020  Biso   1.000  H
  C243     1.0000 0.22530  0.64500  0.18180  Biso   1.000  C
  C244     1.0000 0.77470  0.35500  0.81820  Biso   1.000  C
  H223     1.0000 0.26420  0.63150  0.16030  Biso   1.000  H
  H224     1.0000 0.73580  0.36850  0.83970  Biso   1.000  H
  H225     1.0000 0.17040  0.66140  0.16710  Biso   1.000  H
  H226     1.0000 0.82960  0.33860  0.83290  Biso   1.000  H
  C245     1.0000 0.17030  0.57680  0.20810  Biso   1.000  C
  C246     1.0000 0.82970  0.42320  0.79190  Biso   1.000  C
  H227     1.0000 0.21680  0.54930  0.21230  Biso   1.000  H
  H228     1.0000 0.78320  0.45070  0.78770  Biso   1.000  H
  H229     1.0000 0.16100  0.59640  0.23750  Biso   1.000  H
  H230     1.0000 0.83900  0.40360  0.76250  Biso   1.000  H
  C247     1.0000 0.05960  0.47890  0.14180  Biso   1.000  C
  C248     1.0000 0.94040  0.52110  0.85820  Biso   1.000  C
  H231     1.0000 0.04490  0.43550  0.15200  Biso   1.000  H
  H232     1.0000 0.95510  0.56450  0.84800  Biso   1.000  H
  H233     1.0000 0.12740  0.48880  0.13250  Biso   1.000  H
  H234     1.0000 0.87260  0.51120  0.86750  Biso   1.000  H
  C249     1.0000 0.96810  0.47000  0.10288  Biso   1.000  C
  C250     1.0000 0.03190  0.53000  0.89712  Biso   1.000  C
  H235     1.0000 0.94950  0.42550  0.08020  Biso   1.000  H
  H236     1.0000 0.05050  0.57450  0.91980  Biso   1.000  H
  H237     1.0000 0.90350  0.46930  0.11320  Biso   1.000  H
  H238     1.0000 0.09650  0.53070  0.88680  Biso   1.000  H
  C251     1.0000 0.93950  0.53186  0.04645  Biso   1.000  C
  C252     1.0000 0.06050  0.46814  0.95355  Biso   1.000  C
  C253     1.0000 0.83610  0.48453  0.02407  Biso   1.000  C
  C254     1.0000 0.16390  0.51547  0.97593  Biso   1.000  C
  H239     1.0000 0.80480  0.44490  0.03450  Biso   1.000  H
  H240     1.0000 0.19520  0.55510  0.96550  Biso   1.000  H
  C255     1.0000 0.77860  0.49510  0.98649  Biso   1.000  C
  C256     1.0000 0.22140  0.50490  0.01351  Biso   1.000  C
  H241     1.0000 0.70700  0.46330  0.97250  Biso   1.000  H
  H242     1.0000 0.29300  0.53670  0.02750  Biso   1.000  H
  C257     1.0000 0.82130  0.55044  0.96848  Biso   1.000  C
  C258     1.0000 0.17870  0.44956  0.03152  Biso   1.000  C
  H243     1.0000 0.78090  0.55540  0.94200  Biso   1.000  H
  H244     1.0000 0.21910  0.44460  0.05800  Biso   1.000  H
  C259     1.0000 0.92830  0.60007  0.99084  Biso   1.000  C
  C260     1.0000 0.07170  0.39993  0.00916  Biso   1.000  C
  C261     1.0000 0.98810  0.59196  0.03043  Biso   1.000  C
  C262     1.0000 0.01190  0.40804  0.96957  Biso   1.000  C
  C263     1.0000 0.09290  0.64170  0.05333  Biso   1.000  C
  C264     1.0000 0.90710  0.35830  0.94667  Biso   1.000  C
  H245     1.0000 0.13220  0.63600  0.07970  Biso   1.000  H
  H246     1.0000 0.86780  0.36400  0.92030  Biso   1.000  H
  C265     1.0000 0.13780  0.69890  0.03693  Biso   1.000  C
  C266     1.0000 0.86220  0.30110  0.96307  Biso   1.000  C
  H247     1.0000 0.20710  0.73270  0.05260  Biso   1.000  H
  H248     1.0000 0.79290  0.26730  0.94740  Biso   1.000  H
  C267     1.0000 0.08130  0.70690  0.99740  Biso   1.000  C
  C268     1.0000 0.91870  0.29310  0.00260  Biso   1.000  C
  H249     1.0000 0.11370  0.74540  0.98620  Biso   1.000  H
  H250     1.0000 0.88630  0.25460  0.01380  Biso   1.000  H
  C269     1.0000 0.97840  0.65930  0.97444  Biso   1.000  C
  C270     1.0000 0.02160  0.34070  0.02556  Biso   1.000  C
  C271     1.0000 0.96790  0.71580  0.91482  Biso   1.000  C
  C272     1.0000 0.03210  0.28420  0.08518  Biso   1.000  C
  H251     1.0000 0.02970  0.70730  0.90610  Biso   1.000  H
  H252     1.0000 0.97030  0.29270  0.09390  Biso   1.000  H
  H253     1.0000 0.99540  0.76230  0.93640  Biso   1.000  H
  H254     1.0000 0.00460  0.23770  0.06360  Biso   1.000  H
  C273     1.0000 0.88850  0.71460  0.87406  Biso   1.000  C
  C274     1.0000 0.11150  0.28540  0.12594  Biso   1.000  C
  H255     1.0000 0.82360  0.71880  0.88220  Biso   1.000  H
  H256     1.0000 0.17640  0.28120  0.11780  Biso   1.000  H
  H257     1.0000 0.92100  0.75480  0.86210  Biso   1.000  H
  H258     1.0000 0.07900  0.24520  0.13790  Biso   1.000  H
  C275     1.0000 0.79040  0.64360  0.79996  Biso   1.000  C
  C276     1.0000 0.20960  0.35640  0.20004  Biso   1.000  C
  H259     1.0000 0.72630  0.65250  0.80570  Biso   1.000  H
  H260     1.0000 0.27370  0.34750  0.19430  Biso   1.000  H
  H261     1.0000 0.76550  0.59490  0.78140  Biso   1.000  H
  H262     1.0000 0.23450  0.40510  0.21860  Biso   1.000  H
  C277     1.0000 0.84380  0.69470  0.77320  Biso   1.000  C
  C278     1.0000 0.15620  0.30530  0.22680  Biso   1.000  C
  H263     1.0000 0.79270  0.68810  0.74440  Biso   1.000  H
  H264     1.0000 0.20730  0.31190  0.25560  Biso   1.000  H
  H265     1.0000 0.86850  0.74400  0.79060  Biso   1.000  H
  H266     1.0000 0.13150  0.25600  0.20940  Biso   1.000  H
  C279     1.0000 0.00260  0.72130  0.74750  Biso   1.000  C
  C280     1.0000 0.99740  0.27870  0.25250  Biso   1.000  C
  H267     1.0000 0.95920  0.72120  0.71850  Biso   1.000  H
  H268     1.0000 0.04080  0.27880  0.28150  Biso   1.000  H
  H269     1.0000 0.05940  0.70400  0.74130  Biso   1.000  H
  H270     1.0000 0.94060  0.29600  0.25870  Biso   1.000  H
  C281     1.0000 0.05630  0.79600  0.77582  Biso   1.000  C
  C282     1.0000 0.94370  0.20400  0.22418  Biso   1.000  C
  H271     1.0000 0.11470  0.82180  0.76380  Biso   1.000  H
  H272     1.0000 0.88530  0.17820  0.23620  Biso   1.000  H
  H273     1.0000 0.00300  0.81900  0.77430  Biso   1.000  H
  H274     1.0000 0.99700  0.18100  0.22570  Biso   1.000  H
  C283     1.0000 0.16070  0.86720  0.84805  Biso   1.000  C
  C284     1.0000 0.83930  0.13280  0.15195  Biso   1.000  C
  H275     1.0000 0.11570  0.89620  0.84780  Biso   1.000  H
  H276     1.0000 0.88430  0.10380  0.15220  Biso   1.000  H
  H277     1.0000 0.22230  0.88900  0.83630  Biso   1.000  H
  H278     1.0000 0.77770  0.11100  0.16370  Biso   1.000  H
  C285     1.0000 0.20140  0.86380  0.89534  Biso   1.000  C
  C286     1.0000 0.79860  0.13620  0.10466  Biso   1.000  C
  H279     1.0000 0.24380  0.91150  0.91490  Biso   1.000  H
  H280     1.0000 0.75620  0.08850  0.08510  Biso   1.000  H
  H281     1.0000 0.14000  0.84220  0.90730  Biso   1.000  H
  H282     1.0000 0.86000  0.15780  0.09270  Biso   1.000  H
  C287     1.0000 0.65600  0.54060  0.53972  Biso   1.000  C
  C288     1.0000 0.34400  0.45940  0.46028  Biso   1.000  C
  H283     1.0000 0.69280  0.58540  0.53600  Biso   1.000  H
  H284     1.0000 0.30720  0.41460  0.46400  Biso   1.000  H
  C289     1.0000 0.51980  0.46580  0.56820  Biso   1.000  C
  C290     1.0000 0.48020  0.53420  0.43180  Biso   1.000  C
  H285     1.0000 0.52810  0.42840  0.54720  Biso   1.000  H
  H286     1.0000 0.47190  0.57160  0.45280  Biso   1.000  H
  H287     1.0000 0.44340  0.45870  0.56310  Biso   1.000  H
  H288     1.0000 0.55660  0.54130  0.43690  Biso   1.000  H
  H289     1.0000 0.54860  0.46500  0.59890  Biso   1.000  H
  H290     1.0000 0.45140  0.53500  0.40110  Biso   1.000  H
  C291     1.0000 0.54750  0.59610  0.57540  Biso   1.000  C
  C292     1.0000 0.45250  0.40390  0.42460  Biso   1.000  C
  H291     1.0000 0.56850  0.61200  0.60810  Biso   1.000  H
  H292     1.0000 0.43150  0.38800  0.39190  Biso   1.000  H
  H293     1.0000 0.46940  0.58190  0.56420  Biso   1.000  H
  H294     1.0000 0.53060  0.41810  0.43580  Biso   1.000  H
  H295     1.0000 0.58370  0.63430  0.56310  Biso   1.000  H
  H296     1.0000 0.41630  0.36570  0.43690  Biso   1.000  H
  C293     1.0000 0.27640  0.89260  0.62110  Biso   1.000  C
  C294     1.0000 0.72360  0.10740  0.37890  Biso   1.000  C
  H297     1.0000 0.27530  0.94000  0.62790  Biso   1.000  H
  H298     1.0000 0.72470  0.06000  0.37210  Biso   1.000  H
  H299     1.0000 0.29610  0.88330  0.59290  Biso   1.000  H
  H300     1.0000 0.70390  0.11670  0.40710  Biso   1.000  H
  H301     1.0000 0.32920  0.88860  0.64530  Biso   1.000  H
  H302     1.0000 0.67080  0.11140  0.35470  Biso   1.000  H
  O65      1.0000 0.80920  0.90120  0.45829  Biso   1.000  O
  O66      1.0000 0.19080  0.09880  0.54171  Biso   1.000  O
  O67      1.0000 0.69230  0.47310  0.69360  Biso   1.000  O
  O68      1.0000 0.30770  0.52690  0.30640  Biso   1.000  O
  N3       1.0000 0.80130  0.49460  0.64993  Biso   1.000  N
  N4       1.0000 0.19870  0.50540  0.35007  Biso   1.000  N
  C295     1.0000 0.77080  0.50600  0.68650  Biso   1.000  C
  C296     1.0000 0.22920  0.49400  0.31350  Biso   1.000  C
  H303     1.0000 0.81840  0.54560  0.70990  Biso   1.000  H
  H304     1.0000 0.18160  0.45440  0.29010  Biso   1.000  H
  C297     1.0000 0.74290  0.41900  0.61940  Biso   1.000  C
  C298     1.0000 0.25710  0.58100  0.38060  Biso   1.000  C
  H305     1.0000 0.75910  0.38600  0.63540  Biso   1.000  H
  H306     1.0000 0.24090  0.61400  0.36460  Biso   1.000  H
  H307     1.0000 0.76770  0.41520  0.59210  Biso   1.000  H
  H308     1.0000 0.23230  0.58480  0.40790  Biso   1.000  H
  H309     1.0000 0.66510  0.40800  0.61140  Biso   1.000  H
  H310     1.0000 0.33490  0.59200  0.38860  Biso   1.000  H
  C299     1.0000 0.89050  0.53840  0.64000  Biso   1.000  C
  C300     1.0000 0.10950  0.46160  0.36000  Biso   1.000  C
  H311     1.0000 0.87740  0.58000  0.63450  Biso   1.000  H
  H312     1.0000 0.12260  0.42000  0.36550  Biso   1.000  H
  H313     1.0000 0.90260  0.51350  0.61320  Biso   1.000  H
  H314     1.0000 0.09740  0.48650  0.38680  Biso   1.000  H
  H315     1.0000 0.95400  0.55260  0.66530  Biso   1.000  H
  H316     1.0000 0.04600  0.44740  0.33470  Biso   1.000  H
  O69      1.0000 0.66090  0.50570  0.36355  Biso   1.000  O
  O70      1.0000 0.33910  0.49430  0.63645  Biso   1.000  O
  N5       1.0000 0.58840  0.42730  0.29557  Biso   1.000  N
  N6       1.0000 0.41160  0.57270  0.70443  Biso   1.000  N
  C301     1.0000 0.67040  0.46610  0.33101  Biso   1.000  C
  C302     1.0000 0.32960  0.53390  0.66899  Biso   1.000  C
  H317     1.0000 0.73910  0.46360  0.33170  Biso   1.000  H
  H318     1.0000 0.26090  0.53640  0.66830  Biso   1.000  H
  C303     1.0000 0.48350  0.42980  0.29240  Biso   1.000  C
  C304     1.0000 0.51650  0.57020  0.70760  Biso   1.000  C
  H319     1.0000 0.43370  0.38440  0.29310  Biso   1.000  H
  H320     1.0000 0.56630  0.61560  0.70690  Biso   1.000  H
  H321     1.0000 0.45810  0.44040  0.26420  Biso   1.000  H
  H322     1.0000 0.54190  0.55960  0.73580  Biso   1.000  H
  H323     1.0000 0.48670  0.46620  0.31760  Biso   1.000  H
  H324     1.0000 0.51330  0.53380  0.68240  Biso   1.000  H
  C305     1.0000 0.60210  0.37740  0.25945  Biso   1.000  C
  C306     1.0000 0.39790  0.62260  0.74055  Biso   1.000  C
  H325     1.0000 0.67620  0.37900  0.26690  Biso   1.000  H
  H326     1.0000 0.32380  0.62100  0.73310  Biso   1.000  H
  H327     1.0000 0.58690  0.39030  0.23120  Biso   1.000  H
  H328     1.0000 0.41310  0.60970  0.76880  Biso   1.000  H
  H329     1.0000 0.55230  0.33000  0.25640  Biso   1.000  H
  H330     1.0000 0.44770  0.67000  0.74360  Biso   1.000  H
  Cu5      1.0000 0.82080  0.02410  0.47890  Biso   1.000  Cu
  Cu6      1.0000 0.17920  0.97590  0.52110  Biso   1.000  Cu
  O71      1.0000 0.97700  0.07230  0.55980  Biso   1.000  O
  O72      1.0000 0.02300  0.92770  0.44020  Biso   1.000  O
  O73      1.0000 0.88940  0.11840  0.51800  Biso   1.000  O
  O74      1.0000 0.11060  0.88160  0.48200  Biso   1.000  O
  O75      1.0000 0.96390  0.03190  0.47450  Biso   1.000  O
  O76      1.0000 0.03610  0.96810  0.52550  Biso   1.000  O
  H331     1.0000 0.98870  0.99920  0.48550  Biso   1.000  H
  H332     1.0000 0.01130  0.00080  0.51450  Biso   1.000  H
  H333     1.0000 0.97260  0.02550  0.44490  Biso   1.000  H
  H334     1.0000 0.02740  0.97450  0.55510  Biso   1.000  H
  O77      1.0000 0.67460  0.01530  0.48140  Biso   1.000  O
  O78      1.0000 0.32540  0.98470  0.51860  Biso   1.000  O
  H335     1.0000 0.61920  0.96730  0.47250  Biso   1.000  H
  H336     1.0000 0.38080  0.03270  0.52750  Biso   1.000  H
  H337     1.0000 0.66340  0.03390  0.51090  Biso   1.000  H
  H338     1.0000 0.33660  0.96610  0.48910  Biso   1.000  H
  H339     1.0000 0.22840  0.87200  0.62100  Biso   1.000  H
  H340     1.0000 0.77160  0.12800  0.37900  Biso   1.000  H
  C307     1.0000 0.88500  0.79940  0.65720  Biso   1.000  C
  C308     1.0000 0.11500  0.20060  0.34280  Biso   1.000  C
  H341     1.0000 0.86420  0.83760  0.64980  Biso   1.000  H
  H342     1.0000 0.13580  0.16240  0.35020  Biso   1.000  H
  H343     1.0000 0.90840  0.80830  0.68980  Biso   1.000  H
  H344     1.0000 0.09160  0.19170  0.31020  Biso   1.000  H
  H345     1.0000 0.82330  0.75510  0.64490  Biso   1.000  H
  H346     1.0000 0.17670  0.24490  0.35510  Biso   1.000  H
