data_image0
_cell_length_a       24.33
_cell_length_b       15.23
_cell_length_c       21.71
_cell_angle_alpha    90
_cell_angle_beta     97.09
_cell_angle_gamma    90

_symmetry_space_group_name_H-M    "P 1"
_symmetry_int_tables_number       1

loop_
  _symmetry_equiv_pos_as_xyz
  'x, y, z'

loop_
  _atom_site_label
  _atom_site_occupancy
  _atom_site_fract_x
  _atom_site_fract_y
  _atom_site_fract_z
  _atom_site_thermal_displace_type
  _atom_site_B_iso_or_equiv
  _atom_site_type_symbol
  Cu1      1.0000 0.27992  0.19517  0.66021  Biso   1.000  Cu
  Cu2      1.0000 0.72008  0.19517  0.83979  Biso   1.000  Cu
  Cu3      1.0000 0.77992  0.69517  0.66021  Biso   1.000  Cu
  Cu4      1.0000 0.22008  0.69517  0.83979  Biso   1.000  Cu
  Cu5      1.0000 0.72008  0.80483  0.33979  Biso   1.000  Cu
  Cu6      1.0000 0.27992  0.80483  0.16021  Biso   1.000  Cu
  Cu7      1.0000 0.22008  0.30483  0.33979  Biso   1.000  Cu
  Cu8      1.0000 0.77992  0.30483  0.16021  Biso   1.000  Cu
  O1       1.0000 0.28886  0.47972  0.60846  Biso   1.000  O
  O2       1.0000 0.71114  0.47972  0.89154  Biso   1.000  O
  O3       1.0000 0.78886  0.97972  0.60846  Biso   1.000  O
  O4       1.0000 0.21114  0.97972  0.89154  Biso   1.000  O
  O5       1.0000 0.71114  0.52028  0.39154  Biso   1.000  O
  O6       1.0000 0.28886  0.52028  0.10846  Biso   1.000  O
  O7       1.0000 0.21114  0.02028  0.39154  Biso   1.000  O
  O8       1.0000 0.78886  0.02028  0.10846  Biso   1.000  O
  O9       1.0000 0.34827  0.35618  0.87250  Biso   1.000  O
  O10      1.0000 0.65173  0.35618  0.62750  Biso   1.000  O
  O11      1.0000 0.84827  0.85618  0.87250  Biso   1.000  O
  O12      1.0000 0.15173  0.85618  0.62750  Biso   1.000  O
  O13      1.0000 0.65173  0.64382  0.12750  Biso   1.000  O
  O14      1.0000 0.34827  0.64382  0.37250  Biso   1.000  O
  O15      1.0000 0.15173  0.14382  0.12750  Biso   1.000  O
  O16      1.0000 0.84827  0.14382  0.37250  Biso   1.000  O
  O17      1.0000 0.37017  0.08090  0.94605  Biso   1.000  O
  O18      1.0000 0.62983  0.08090  0.55395  Biso   1.000  O
  O19      1.0000 0.87017  0.58090  0.94605  Biso   1.000  O
  O20      1.0000 0.12983  0.58090  0.55395  Biso   1.000  O
  O21      1.0000 0.62983  0.91910  0.05395  Biso   1.000  O
  O22      1.0000 0.37017  0.91910  0.44605  Biso   1.000  O
  O23      1.0000 0.12983  0.41910  0.05395  Biso   1.000  O
  O24      1.0000 0.87017  0.41910  0.44605  Biso   1.000  O
  O25      1.0000 0.37460  0.35455  0.65304  Biso   1.000  O
  O26      1.0000 0.62540  0.35455  0.84696  Biso   1.000  O
  O27      1.0000 0.87460  0.85455  0.65304  Biso   1.000  O
  O28      1.0000 0.12540  0.85455  0.84696  Biso   1.000  O
  O29      1.0000 0.62540  0.64545  0.34696  Biso   1.000  O
  O30      1.0000 0.37460  0.64545  0.15304  Biso   1.000  O
  O31      1.0000 0.12540  0.14545  0.34696  Biso   1.000  O
  O32      1.0000 0.87460  0.14545  0.15304  Biso   1.000  O
  O33      1.0000 0.30921  0.24336  0.76849  Biso   1.000  O
  O34      1.0000 0.69079  0.24336  0.73151  Biso   1.000  O
  O35      1.0000 0.80921  0.74336  0.76849  Biso   1.000  O
  O36      1.0000 0.19079  0.74336  0.73151  Biso   1.000  O
  O37      1.0000 0.69079  0.75664  0.23151  Biso   1.000  O
  O38      1.0000 0.30921  0.75664  0.26849  Biso   1.000  O
  O39      1.0000 0.19079  0.25664  0.23151  Biso   1.000  O
  O40      1.0000 0.80921  0.25664  0.26849  Biso   1.000  O
  O41      1.0000 0.30652  0.27563  0.60133  Biso   1.000  O
  O42      1.0000 0.69348  0.27563  0.89867  Biso   1.000  O
  O43      1.0000 0.80652  0.77563  0.60133  Biso   1.000  O
  O44      1.0000 0.19348  0.77563  0.89867  Biso   1.000  O
  O45      1.0000 0.69348  0.72437  0.39867  Biso   1.000  O
  O46      1.0000 0.30652  0.72437  0.10133  Biso   1.000  O
  O47      1.0000 0.19348  0.22437  0.39867  Biso   1.000  O
  O48      1.0000 0.80652  0.22437  0.10133  Biso   1.000  O
  O49      1.0000 0.39694  0.27801  0.75653  Biso   1.000  O
  O50      1.0000 0.60306  0.27801  0.74347  Biso   1.000  O
  O51      1.0000 0.89694  0.77801  0.75653  Biso   1.000  O
  O52      1.0000 0.10306  0.77801  0.74347  Biso   1.000  O
  O53      1.0000 0.60306  0.72199  0.24347  Biso   1.000  O
  O54      1.0000 0.39694  0.72199  0.25653  Biso   1.000  O
  O55      1.0000 0.10306  0.22199  0.24347  Biso   1.000  O
  O56      1.0000 0.89694  0.22199  0.25653  Biso   1.000  O
  H1       1.0000 0.38300  0.29490  0.72230  Biso   1.000  H
  H2       1.0000 0.61700  0.29490  0.77770  Biso   1.000  H
  H3       1.0000 0.88300  0.79490  0.72230  Biso   1.000  H
  H4       1.0000 0.11700  0.79490  0.77770  Biso   1.000  H
  H5       1.0000 0.61700  0.70510  0.27770  Biso   1.000  H
  H6       1.0000 0.38300  0.70510  0.22230  Biso   1.000  H
  H7       1.0000 0.11700  0.20510  0.27770  Biso   1.000  H
  H8       1.0000 0.88300  0.20510  0.22230  Biso   1.000  H
  O57      1.0000 0.34902  0.92121  0.69209  Biso   1.000  O
  O58      1.0000 0.65098  0.92121  0.80791  Biso   1.000  O
  O59      1.0000 0.84902  0.42121  0.69209  Biso   1.000  O
  O60      1.0000 0.15098  0.42121  0.80791  Biso   1.000  O
  O61      1.0000 0.65098  0.07879  0.30791  Biso   1.000  O
  O62      1.0000 0.34902  0.07879  0.19209  Biso   1.000  O
  O63      1.0000 0.15098  0.57879  0.30791  Biso   1.000  O
  O64      1.0000 0.84902  0.57879  0.19209  Biso   1.000  O
  O65      1.0000 0.35038  0.12999  0.67237  Biso   1.000  O
  O66      1.0000 0.64962  0.12999  0.82763  Biso   1.000  O
  O67      1.0000 0.85038  0.62999  0.67237  Biso   1.000  O
  O68      1.0000 0.14962  0.62999  0.82763  Biso   1.000  O
  O69      1.0000 0.64962  0.87001  0.32763  Biso   1.000  O
  O70      1.0000 0.35038  0.87001  0.17237  Biso   1.000  O
  O71      1.0000 0.14962  0.37001  0.32763  Biso   1.000  O
  O72      1.0000 0.85038  0.37001  0.17237  Biso   1.000  O
  O73      1.0000 0.48491  0.92296  0.57058  Biso   1.000  O
  O74      1.0000 0.51509  0.92296  0.92942  Biso   1.000  O
  O75      1.0000 0.98491  0.42296  0.57058  Biso   1.000  O
  O76      1.0000 0.01509  0.42296  0.92942  Biso   1.000  O
  O77      1.0000 0.51509  0.07704  0.42942  Biso   1.000  O
  O78      1.0000 0.48491  0.07704  0.07058  Biso   1.000  O
  O79      1.0000 0.01509  0.57704  0.42942  Biso   1.000  O
  O80      1.0000 0.98491  0.57704  0.07058  Biso   1.000  O
  O81      1.0000 0.31107  0.04963  0.59445  Biso   1.000  O
  O82      1.0000 0.68893  0.04963  0.90555  Biso   1.000  O
  O83      1.0000 0.81107  0.54963  0.59445  Biso   1.000  O
  O84      1.0000 0.18893  0.54963  0.90555  Biso   1.000  O
  O85      1.0000 0.68893  0.95037  0.40555  Biso   1.000  O
  O86      1.0000 0.31107  0.95037  0.09445  Biso   1.000  O
  O87      1.0000 0.18893  0.45037  0.40555  Biso   1.000  O
  O88      1.0000 0.81107  0.45037  0.09445  Biso   1.000  O
  N1       1.0000 0.34662  0.21030  0.89497  Biso   1.000  N
  N2       1.0000 0.65338  0.21030  0.60503  Biso   1.000  N
  N3       1.0000 0.84662  0.71030  0.89497  Biso   1.000  N
  N4       1.0000 0.15338  0.71030  0.60503  Biso   1.000  N
  N5       1.0000 0.65338  0.78970  0.10503  Biso   1.000  N
  N6       1.0000 0.34662  0.78970  0.39497  Biso   1.000  N
  N7       1.0000 0.15338  0.28970  0.10503  Biso   1.000  N
  N8       1.0000 0.84662  0.28970  0.39497  Biso   1.000  N
  N9       1.0000 0.40371  0.93160  0.61393  Biso   1.000  N
  N10      1.0000 0.59629  0.93160  0.88607  Biso   1.000  N
  N11      1.0000 0.90371  0.43160  0.61393  Biso   1.000  N
  N12      1.0000 0.09629  0.43160  0.88607  Biso   1.000  N
  N13      1.0000 0.59629  0.06840  0.38607  Biso   1.000  N
  N14      1.0000 0.40371  0.06840  0.11393  Biso   1.000  N
  N15      1.0000 0.09629  0.56840  0.38607  Biso   1.000  N
  N16      1.0000 0.90371  0.56840  0.11393  Biso   1.000  N
  N17      1.0000 0.36420  0.47467  0.55566  Biso   1.000  N
  N18      1.0000 0.63580  0.47467  0.94434  Biso   1.000  N
  N19      1.0000 0.86420  0.97467  0.55566  Biso   1.000  N
  N20      1.0000 0.13580  0.97467  0.94434  Biso   1.000  N
  N21      1.0000 0.63580  0.52533  0.44434  Biso   1.000  N
  N22      1.0000 0.36420  0.52533  0.05566  Biso   1.000  N
  N23      1.0000 0.13580  0.02533  0.44434  Biso   1.000  N
  N24      1.0000 0.86420  0.02533  0.05566  Biso   1.000  N
  O89      1.0000 0.42386  0.48683  0.48152  Biso   1.000  O
  O90      1.0000 0.57614  0.48683  0.01848  Biso   1.000  O
  O91      1.0000 0.92386  0.98683  0.48152  Biso   1.000  O
  O92      1.0000 0.07614  0.98683  0.01848  Biso   1.000  O
  O93      1.0000 0.57614  0.51317  0.51848  Biso   1.000  O
  O94      1.0000 0.42386  0.51317  0.98152  Biso   1.000  O
  O95      1.0000 0.07614  0.01317  0.51848  Biso   1.000  O
  O96      1.0000 0.92386  0.01317  0.98152  Biso   1.000  O
  N25      1.0000 0.23249  0.10720  0.69691  Biso   1.000  N
  N26      1.0000 0.76751  0.10720  0.80309  Biso   1.000  N
  N27      1.0000 0.73249  0.60720  0.69691  Biso   1.000  N
  N28      1.0000 0.26751  0.60720  0.80309  Biso   1.000  N
  N29      1.0000 0.76751  0.89280  0.30309  Biso   1.000  N
  N30      1.0000 0.23249  0.89280  0.19691  Biso   1.000  N
  N31      1.0000 0.26751  0.39280  0.30309  Biso   1.000  N
  N32      1.0000 0.73249  0.39280  0.19691  Biso   1.000  N
  C1       1.0000 0.28791  0.31366  0.94521  Biso   1.000  C
  C2       1.0000 0.71209  0.31366  0.55479  Biso   1.000  C
  C3       1.0000 0.78791  0.81366  0.94521  Biso   1.000  C
  C4       1.0000 0.21209  0.81366  0.55479  Biso   1.000  C
  C5       1.0000 0.71209  0.68634  0.05479  Biso   1.000  C
  C6       1.0000 0.28791  0.68634  0.44521  Biso   1.000  C
  C7       1.0000 0.21209  0.18634  0.05479  Biso   1.000  C
  C8       1.0000 0.78791  0.18634  0.44521  Biso   1.000  C
  C9       1.0000 0.27084  0.24341  0.98064  Biso   1.000  C
  C10      1.0000 0.72916  0.24341  0.51936  Biso   1.000  C
  C11      1.0000 0.77084  0.74341  0.98064  Biso   1.000  C
  C12      1.0000 0.22916  0.74341  0.51936  Biso   1.000  C
  C13      1.0000 0.72916  0.75659  0.01936  Biso   1.000  C
  C14      1.0000 0.27084  0.75659  0.48064  Biso   1.000  C
  C15      1.0000 0.22916  0.25659  0.01936  Biso   1.000  C
  C16      1.0000 0.77084  0.25659  0.48064  Biso   1.000  C
  C17      1.0000 0.30670  0.65643  0.64481  Biso   1.000  C
  C18      1.0000 0.69330  0.65643  0.85519  Biso   1.000  C
  C19      1.0000 0.80670  0.15643  0.64481  Biso   1.000  C
  C20      1.0000 0.19330  0.15643  0.85519  Biso   1.000  C
  C21      1.0000 0.69330  0.34357  0.35519  Biso   1.000  C
  C22      1.0000 0.30670  0.34357  0.14481  Biso   1.000  C
  C23      1.0000 0.19330  0.84357  0.35519  Biso   1.000  C
  C24      1.0000 0.80670  0.84357  0.14481  Biso   1.000  C
  H9       1.0000 0.27830  0.62690  0.66120  Biso   1.000  H
  H10      1.0000 0.72170  0.62690  0.83880  Biso   1.000  H
  H11      1.0000 0.77830  0.12690  0.66120  Biso   1.000  H
  H12      1.0000 0.22170  0.12690  0.83880  Biso   1.000  H
  H13      1.0000 0.72170  0.37310  0.33880  Biso   1.000  H
  H14      1.0000 0.27830  0.37310  0.16120  Biso   1.000  H
  H15      1.0000 0.22170  0.87310  0.33880  Biso   1.000  H
  H16      1.0000 0.77830  0.87310  0.16120  Biso   1.000  H
  C25      1.0000 0.26416  0.39561  0.94855  Biso   1.000  C
  C26      1.0000 0.73584  0.39561  0.55145  Biso   1.000  C
  C27      1.0000 0.76416  0.89561  0.94855  Biso   1.000  C
  C28      1.0000 0.23584  0.89561  0.55145  Biso   1.000  C
  C29      1.0000 0.73584  0.60439  0.05145  Biso   1.000  C
  C30      1.0000 0.26416  0.60439  0.44855  Biso   1.000  C
  C31      1.0000 0.23584  0.10439  0.05145  Biso   1.000  C
  C32      1.0000 0.76416  0.10439  0.44855  Biso   1.000  C
  H17      1.0000 0.27580  0.44200  0.92540  Biso   1.000  H
  H18      1.0000 0.72420  0.44200  0.57460  Biso   1.000  H
  H19      1.0000 0.77580  0.94200  0.92540  Biso   1.000  H
  H20      1.0000 0.22420  0.94200  0.57460  Biso   1.000  H
  H21      1.0000 0.72420  0.55800  0.07460  Biso   1.000  H
  H22      1.0000 0.27580  0.55800  0.42540  Biso   1.000  H
  H23      1.0000 0.22420  0.05800  0.07460  Biso   1.000  H
  H24      1.0000 0.77580  0.05800  0.42540  Biso   1.000  H
  C33      1.0000 0.29508  0.15985  0.97830  Biso   1.000  C
  C34      1.0000 0.70492  0.15985  0.52170  Biso   1.000  C
  C35      1.0000 0.79508  0.65985  0.97830  Biso   1.000  C
  C36      1.0000 0.20492  0.65985  0.52170  Biso   1.000  C
  C37      1.0000 0.70492  0.84015  0.02170  Biso   1.000  C
  C38      1.0000 0.29508  0.84015  0.47830  Biso   1.000  C
  C39      1.0000 0.20492  0.34015  0.02170  Biso   1.000  C
  C40      1.0000 0.79508  0.34015  0.47830  Biso   1.000  C
  C41      1.0000 0.35798  0.79133  0.63455  Biso   1.000  C
  C42      1.0000 0.64202  0.79133  0.86545  Biso   1.000  C
  C43      1.0000 0.85798  0.29133  0.63455  Biso   1.000  C
  C44      1.0000 0.14202  0.29133  0.86545  Biso   1.000  C
  C45      1.0000 0.64202  0.20867  0.36545  Biso   1.000  C
  C46      1.0000 0.35798  0.20867  0.13455  Biso   1.000  C
  C47      1.0000 0.14202  0.70867  0.36545  Biso   1.000  C
  C48      1.0000 0.85798  0.70867  0.13455  Biso   1.000  C
  C49      1.0000 0.32790  0.51858  0.59084  Biso   1.000  C
  C50      1.0000 0.67210  0.51858  0.90916  Biso   1.000  C
  C51      1.0000 0.82790  0.01858  0.59084  Biso   1.000  C
  C52      1.0000 0.17210  0.01858  0.90916  Biso   1.000  C
  C53      1.0000 0.67210  0.48142  0.40916  Biso   1.000  C
  C54      1.0000 0.32790  0.48142  0.09084  Biso   1.000  C
  C55      1.0000 0.17210  0.98142  0.40916  Biso   1.000  C
  C56      1.0000 0.82790  0.98142  0.09084  Biso   1.000  C
  C57      1.0000 0.27764  0.09108  0.01306  Biso   1.000  C
  C58      1.0000 0.72236  0.09108  0.48694  Biso   1.000  C
  C59      1.0000 0.77764  0.59108  0.01306  Biso   1.000  C
  C60      1.0000 0.22236  0.59108  0.48694  Biso   1.000  C
  C61      1.0000 0.72236  0.90892  0.98694  Biso   1.000  C
  C62      1.0000 0.27764  0.90892  0.51306  Biso   1.000  C
  C63      1.0000 0.22236  0.40892  0.98694  Biso   1.000  C
  C64      1.0000 0.77764  0.40892  0.51306  Biso   1.000  C
  H25      1.0000 0.29370  0.03590  0.01100  Biso   1.000  H
  H26      1.0000 0.70630  0.03590  0.48900  Biso   1.000  H
  H27      1.0000 0.79370  0.53590  0.01100  Biso   1.000  H
  H28      1.0000 0.20630  0.53590  0.48900  Biso   1.000  H
  H29      1.0000 0.70630  0.96410  0.98900  Biso   1.000  H
  H30      1.0000 0.29370  0.96410  0.51100  Biso   1.000  H
  H31      1.0000 0.20630  0.46410  0.98900  Biso   1.000  H
  H32      1.0000 0.79370  0.46410  0.51100  Biso   1.000  H
  N33      1.0000 0.20629  0.25883  0.64843  Biso   1.000  N
  N34      1.0000 0.79371  0.25883  0.85157  Biso   1.000  N
  N35      1.0000 0.70629  0.75883  0.64843  Biso   1.000  N
  N36      1.0000 0.29371  0.75883  0.85157  Biso   1.000  N
  N37      1.0000 0.79371  0.74117  0.35157  Biso   1.000  N
  N38      1.0000 0.20629  0.74117  0.14843  Biso   1.000  N
  N39      1.0000 0.29371  0.24117  0.35157  Biso   1.000  N
  N40      1.0000 0.70629  0.24117  0.14843  Biso   1.000  N
  C65      1.0000 0.33818  0.61240  0.60622  Biso   1.000  C
  C66      1.0000 0.66182  0.61240  0.89378  Biso   1.000  C
  C67      1.0000 0.83818  0.11240  0.60622  Biso   1.000  C
  C68      1.0000 0.16182  0.11240  0.89378  Biso   1.000  C
  C69      1.0000 0.66182  0.38760  0.39378  Biso   1.000  C
  C70      1.0000 0.33818  0.38760  0.10622  Biso   1.000  C
  C71      1.0000 0.16182  0.88760  0.39378  Biso   1.000  C
  C72      1.0000 0.83818  0.88760  0.10622  Biso   1.000  C
  C73      1.0000 0.31676  0.74596  0.65998  Biso   1.000  C
  C74      1.0000 0.68324  0.74596  0.84002  Biso   1.000  C
  C75      1.0000 0.81676  0.24596  0.65998  Biso   1.000  C
  C76      1.0000 0.18324  0.24596  0.84002  Biso   1.000  C
  C77      1.0000 0.68324  0.25404  0.34002  Biso   1.000  C
  C78      1.0000 0.31676  0.25404  0.15998  Biso   1.000  C
  C79      1.0000 0.18324  0.75404  0.34002  Biso   1.000  C
  C80      1.0000 0.81676  0.75404  0.15998  Biso   1.000  C
  H33      1.0000 0.29570  0.77430  0.68700  Biso   1.000  H
  H34      1.0000 0.70430  0.77430  0.81300  Biso   1.000  H
  H35      1.0000 0.79570  0.27430  0.68700  Biso   1.000  H
  H36      1.0000 0.20430  0.27430  0.81300  Biso   1.000  H
  H37      1.0000 0.70430  0.22570  0.31300  Biso   1.000  H
  H38      1.0000 0.29570  0.22570  0.18700  Biso   1.000  H
  H39      1.0000 0.20430  0.72570  0.31300  Biso   1.000  H
  H40      1.0000 0.79570  0.72570  0.18700  Biso   1.000  H
  C81      1.0000 0.36906  0.88522  0.64986  Biso   1.000  C
  C82      1.0000 0.63094  0.88522  0.85014  Biso   1.000  C
  C83      1.0000 0.86906  0.38522  0.64986  Biso   1.000  C
  C84      1.0000 0.13094  0.38522  0.85014  Biso   1.000  C
  C85      1.0000 0.63094  0.11478  0.35014  Biso   1.000  C
  C86      1.0000 0.36906  0.11478  0.14986  Biso   1.000  C
  C87      1.0000 0.13094  0.61478  0.35014  Biso   1.000  C
  C88      1.0000 0.86906  0.61478  0.14986  Biso   1.000  C
  C89      1.0000 0.32965  0.29730  0.90171  Biso   1.000  C
  C90      1.0000 0.67035  0.29730  0.59829  Biso   1.000  C
  C91      1.0000 0.82965  0.79730  0.90171  Biso   1.000  C
  C92      1.0000 0.17035  0.79730  0.59829  Biso   1.000  C
  C93      1.0000 0.67035  0.70270  0.09829  Biso   1.000  C
  C94      1.0000 0.32965  0.70270  0.40171  Biso   1.000  C
  C95      1.0000 0.17035  0.20270  0.09829  Biso   1.000  C
  C96      1.0000 0.82965  0.20270  0.40171  Biso   1.000  C
  C97      1.0000 0.43311  0.79178  0.56957  Biso   1.000  C
  C98      1.0000 0.56689  0.79178  0.93043  Biso   1.000  C
  C99      1.0000 0.93311  0.29178  0.56957  Biso   1.000  C
  C100     1.0000 0.06689  0.29178  0.93043  Biso   1.000  C
  C101     1.0000 0.56689  0.20822  0.43043  Biso   1.000  C
  C102     1.0000 0.43311  0.20822  0.06957  Biso   1.000  C
  C103     1.0000 0.06689  0.70822  0.43043  Biso   1.000  C
  C104     1.0000 0.93311  0.70822  0.06957  Biso   1.000  C
  C105     1.0000 0.34029  0.14581  0.93959  Biso   1.000  C
  C106     1.0000 0.65971  0.14581  0.56041  Biso   1.000  C
  C107     1.0000 0.84029  0.64581  0.93959  Biso   1.000  C
  C108     1.0000 0.15971  0.64581  0.56041  Biso   1.000  C
  C109     1.0000 0.65971  0.85419  0.06041  Biso   1.000  C
  C110     1.0000 0.34029  0.85419  0.43959  Biso   1.000  C
  C111     1.0000 0.15971  0.35419  0.06041  Biso   1.000  C
  C112     1.0000 0.84029  0.35419  0.43959  Biso   1.000  C
  C113     1.0000 0.34290  0.33469  0.60617  Biso   1.000  C
  C114     1.0000 0.65710  0.33469  0.89383  Biso   1.000  C
  C115     1.0000 0.84290  0.83469  0.60617  Biso   1.000  C
  C116     1.0000 0.15710  0.83469  0.89383  Biso   1.000  C
  C117     1.0000 0.65710  0.66531  0.39383  Biso   1.000  C
  C118     1.0000 0.34290  0.66531  0.10617  Biso   1.000  C
  C119     1.0000 0.15710  0.16531  0.39383  Biso   1.000  C
  C120     1.0000 0.84290  0.16531  0.10617  Biso   1.000  C
  C121     1.0000 0.39043  0.74726  0.59455  Biso   1.000  C
  C122     1.0000 0.60957  0.74726  0.90545  Biso   1.000  C
  C123     1.0000 0.89043  0.24726  0.59455  Biso   1.000  C
  C124     1.0000 0.10957  0.24726  0.90545  Biso   1.000  C
  C125     1.0000 0.60957  0.25274  0.40545  Biso   1.000  C
  C126     1.0000 0.39043  0.25274  0.09455  Biso   1.000  C
  C127     1.0000 0.10957  0.75274  0.40545  Biso   1.000  C
  C128     1.0000 0.89043  0.75274  0.09455  Biso   1.000  C
  C129     1.0000 0.41331  0.61383  0.54078  Biso   1.000  C
  C130     1.0000 0.58669  0.61383  0.95922  Biso   1.000  C
  C131     1.0000 0.91331  0.11383  0.54078  Biso   1.000  C
  C132     1.0000 0.08669  0.11383  0.95922  Biso   1.000  C
  C133     1.0000 0.58669  0.38617  0.45922  Biso   1.000  C
  C134     1.0000 0.41331  0.38617  0.04078  Biso   1.000  C
  C135     1.0000 0.08669  0.88617  0.45922  Biso   1.000  C
  C136     1.0000 0.91331  0.88617  0.04078  Biso   1.000  C
  C137     1.0000 0.35846  0.24440  0.78652  Biso   1.000  C
  C138     1.0000 0.64154  0.24440  0.71348  Biso   1.000  C
  C139     1.0000 0.85846  0.74440  0.78652  Biso   1.000  C
  C140     1.0000 0.14154  0.74440  0.71348  Biso   1.000  C
  C141     1.0000 0.64154  0.75560  0.21348  Biso   1.000  C
  C142     1.0000 0.35846  0.75560  0.28652  Biso   1.000  C
  C143     1.0000 0.14154  0.25560  0.21348  Biso   1.000  C
  C144     1.0000 0.85846  0.25560  0.28652  Biso   1.000  C
  C145     1.0000 0.38084  0.65697  0.58061  Biso   1.000  C
  C146     1.0000 0.61916  0.65697  0.91939  Biso   1.000  C
  C147     1.0000 0.88084  0.15697  0.58061  Biso   1.000  C
  C148     1.0000 0.11916  0.15697  0.91939  Biso   1.000  C
  C149     1.0000 0.61916  0.34303  0.41939  Biso   1.000  C
  C150     1.0000 0.38084  0.34303  0.08061  Biso   1.000  C
  C151     1.0000 0.11916  0.84303  0.41939  Biso   1.000  C
  C152     1.0000 0.88084  0.84303  0.08061  Biso   1.000  C
  C153     1.0000 0.44331  0.88694  0.58409  Biso   1.000  C
  C154     1.0000 0.55669  0.88694  0.91591  Biso   1.000  C
  C155     1.0000 0.94331  0.38694  0.58409  Biso   1.000  C
  C156     1.0000 0.05669  0.38694  0.91591  Biso   1.000  C
  C157     1.0000 0.55669  0.11306  0.41591  Biso   1.000  C
  C158     1.0000 0.44331  0.11306  0.08409  Biso   1.000  C
  C159     1.0000 0.05669  0.61306  0.41591  Biso   1.000  C
  C160     1.0000 0.94331  0.61306  0.08409  Biso   1.000  C
  C161     1.0000 0.16299  0.21410  0.66715  Biso   1.000  C
  C162     1.0000 0.83701  0.21410  0.83285  Biso   1.000  C
  C163     1.0000 0.66299  0.71410  0.66715  Biso   1.000  C
  C164     1.0000 0.33701  0.71410  0.83285  Biso   1.000  C
  C165     1.0000 0.83701  0.78590  0.33285  Biso   1.000  C
  C166     1.0000 0.16299  0.78590  0.16715  Biso   1.000  C
  C167     1.0000 0.33701  0.28590  0.33285  Biso   1.000  C
  C168     1.0000 0.66299  0.28590  0.16715  Biso   1.000  C
  C169     1.0000 0.17812  0.12770  0.69408  Biso   1.000  C
  C170     1.0000 0.82188  0.12770  0.80592  Biso   1.000  C
  C171     1.0000 0.67812  0.62770  0.69408  Biso   1.000  C
  C172     1.0000 0.32188  0.62770  0.80592  Biso   1.000  C
  C173     1.0000 0.82188  0.87230  0.30592  Biso   1.000  C
  C174     1.0000 0.17812  0.87230  0.19408  Biso   1.000  C
  C175     1.0000 0.32188  0.37230  0.30592  Biso   1.000  C
  C176     1.0000 0.67812  0.37230  0.19408  Biso   1.000  C
  C177     1.0000 0.38316  0.19390  0.84539  Biso   1.000  C
  C178     1.0000 0.61684  0.19390  0.65461  Biso   1.000  C
  C179     1.0000 0.88316  0.69390  0.84539  Biso   1.000  C
  C180     1.0000 0.11684  0.69390  0.65461  Biso   1.000  C
  C181     1.0000 0.61684  0.80610  0.15461  Biso   1.000  C
  C182     1.0000 0.38316  0.80610  0.34539  Biso   1.000  C
  C183     1.0000 0.11684  0.30610  0.15461  Biso   1.000  C
  C184     1.0000 0.88316  0.30610  0.34539  Biso   1.000  C
  C185     1.0000 0.35269  0.37877  0.54353  Biso   1.000  C
  C186     1.0000 0.64731  0.37877  0.95647  Biso   1.000  C
  C187     1.0000 0.85269  0.87877  0.54353  Biso   1.000  C
  C188     1.0000 0.14731  0.87877  0.95647  Biso   1.000  C
  C189     1.0000 0.64731  0.62123  0.45647  Biso   1.000  C
  C190     1.0000 0.35269  0.62123  0.04353  Biso   1.000  C
  C191     1.0000 0.14731  0.12123  0.45647  Biso   1.000  C
  C192     1.0000 0.85269  0.12123  0.04353  Biso   1.000  C
  C193     1.0000 0.35080  0.06970  0.63132  Biso   1.000  C
  C194     1.0000 0.64920  0.06970  0.86868  Biso   1.000  C
  C195     1.0000 0.85080  0.56970  0.63132  Biso   1.000  C
  C196     1.0000 0.14920  0.56970  0.86868  Biso   1.000  C
  C197     1.0000 0.64920  0.93030  0.36868  Biso   1.000  C
  C198     1.0000 0.35080  0.93030  0.13132  Biso   1.000  C
  C199     1.0000 0.14920  0.43030  0.36868  Biso   1.000  C
  C200     1.0000 0.85080  0.43030  0.13132  Biso   1.000  C
  C201     1.0000 0.40191  0.52070  0.52297  Biso   1.000  C
  C202     1.0000 0.59809  0.52070  0.97703  Biso   1.000  C
  C203     1.0000 0.90191  0.02070  0.52297  Biso   1.000  C
  C204     1.0000 0.09809  0.02070  0.97703  Biso   1.000  C
  C205     1.0000 0.59809  0.47930  0.47703  Biso   1.000  C
  C206     1.0000 0.40191  0.47930  0.02297  Biso   1.000  C
  C207     1.0000 0.09809  0.97930  0.47703  Biso   1.000  C
  C208     1.0000 0.90191  0.97930  0.02297  Biso   1.000  C
  C209     1.0000 0.46605  0.74760  0.53208  Biso   1.000  C
  C210     1.0000 0.53395  0.74760  0.96792  Biso   1.000  C
  C211     1.0000 0.96605  0.24760  0.53208  Biso   1.000  C
  C212     1.0000 0.03395  0.24760  0.96792  Biso   1.000  C
  C213     1.0000 0.53395  0.25240  0.46792  Biso   1.000  C
  C214     1.0000 0.46605  0.25240  0.03208  Biso   1.000  C
  C215     1.0000 0.03395  0.75240  0.46792  Biso   1.000  C
  C216     1.0000 0.96605  0.75240  0.03208  Biso   1.000  C
  H41      1.0000 0.49500  0.77680  0.51660  Biso   1.000  H
  H42      1.0000 0.50500  0.77680  0.98340  Biso   1.000  H
  H43      1.0000 0.99500  0.27680  0.51660  Biso   1.000  H
  H44      1.0000 0.00500  0.27680  0.98340  Biso   1.000  H
  H45      1.0000 0.50500  0.22320  0.48340  Biso   1.000  H
  H46      1.0000 0.49500  0.22320  0.01660  Biso   1.000  H
  H47      1.0000 0.00500  0.72320  0.48340  Biso   1.000  H
  H48      1.0000 0.99500  0.72320  0.01660  Biso   1.000  H
  C217     1.0000 0.40915  0.02919  0.62507  Biso   1.000  C
  C218     1.0000 0.59085  0.02919  0.87493  Biso   1.000  C
  C219     1.0000 0.90915  0.52919  0.62507  Biso   1.000  C
  C220     1.0000 0.09085  0.52919  0.87493  Biso   1.000  C
  C221     1.0000 0.59085  0.97081  0.37493  Biso   1.000  C
  C222     1.0000 0.40915  0.97081  0.12507  Biso   1.000  C
  C223     1.0000 0.09085  0.47081  0.37493  Biso   1.000  C
  C224     1.0000 0.90915  0.47081  0.12507  Biso   1.000  C
  C225     1.0000 0.25014  0.02980  0.72043  Biso   1.000  C
  C226     1.0000 0.74986  0.02980  0.77957  Biso   1.000  C
  C227     1.0000 0.75014  0.52980  0.72043  Biso   1.000  C
  C228     1.0000 0.24986  0.52980  0.77957  Biso   1.000  C
  C229     1.0000 0.74986  0.97020  0.27957  Biso   1.000  C
  C230     1.0000 0.25014  0.97020  0.22043  Biso   1.000  C
  C231     1.0000 0.24986  0.47020  0.27957  Biso   1.000  C
  C232     1.0000 0.75014  0.47020  0.22043  Biso   1.000  C
  H49      1.0000 0.28750  0.01600  0.72220  Biso   1.000  H
  H50      1.0000 0.71250  0.01600  0.77780  Biso   1.000  H
  H51      1.0000 0.78750  0.51600  0.72220  Biso   1.000  H
  H52      1.0000 0.21250  0.51600  0.77780  Biso   1.000  H
  H53      1.0000 0.71250  0.98400  0.27780  Biso   1.000  H
  H54      1.0000 0.28750  0.98400  0.22220  Biso   1.000  H
  H55      1.0000 0.21250  0.48400  0.27780  Biso   1.000  H
  H56      1.0000 0.78750  0.48400  0.22220  Biso   1.000  H
  C233     1.0000 0.30366  0.36930  0.49303  Biso   1.000  C
  C234     1.0000 0.69634  0.36930  0.00697  Biso   1.000  C
  C235     1.0000 0.80366  0.86930  0.49303  Biso   1.000  C
  C236     1.0000 0.19634  0.86930  0.00697  Biso   1.000  C
  C237     1.0000 0.69634  0.63070  0.50697  Biso   1.000  C
  C238     1.0000 0.30366  0.63070  0.99303  Biso   1.000  C
  C239     1.0000 0.19634  0.13070  0.50697  Biso   1.000  C
  C240     1.0000 0.80366  0.13070  0.99303  Biso   1.000  C
  H57      1.0000 0.27260  0.40150  0.50470  Biso   1.000  H
  H58      1.0000 0.72740  0.40150  0.99530  Biso   1.000  H
  H59      1.0000 0.77260  0.90150  0.50470  Biso   1.000  H
  H60      1.0000 0.22740  0.90150  0.99530  Biso   1.000  H
  H61      1.0000 0.72740  0.59850  0.49530  Biso   1.000  H
  H62      1.0000 0.27260  0.59850  0.00470  Biso   1.000  H
  H63      1.0000 0.22740  0.09850  0.49530  Biso   1.000  H
  H64      1.0000 0.77260  0.09850  0.00470  Biso   1.000  H
  H65      1.0000 0.29400  0.30850  0.48790  Biso   1.000  H
  H66      1.0000 0.70600  0.30850  0.01210  Biso   1.000  H
  H67      1.0000 0.79400  0.80850  0.48790  Biso   1.000  H
  H68      1.0000 0.20600  0.80850  0.01210  Biso   1.000  H
  H69      1.0000 0.70600  0.69150  0.51210  Biso   1.000  H
  H70      1.0000 0.29400  0.69150  0.98790  Biso   1.000  H
  H71      1.0000 0.20600  0.19150  0.51210  Biso   1.000  H
  H72      1.0000 0.79400  0.19150  0.98790  Biso   1.000  H
  H73      1.0000 0.31350  0.39220  0.45470  Biso   1.000  H
  H74      1.0000 0.68650  0.39220  0.04530  Biso   1.000  H
  H75      1.0000 0.81350  0.89220  0.45470  Biso   1.000  H
  H76      1.0000 0.18650  0.89220  0.04530  Biso   1.000  H
  H77      1.0000 0.68650  0.60780  0.54530  Biso   1.000  H
  H78      1.0000 0.31350  0.60780  0.95470  Biso   1.000  H
  H79      1.0000 0.18650  0.10780  0.54530  Biso   1.000  H
  H80      1.0000 0.81350  0.10780  0.95470  Biso   1.000  H
  C241     1.0000 0.45209  0.04590  0.68102  Biso   1.000  C
  C242     1.0000 0.54791  0.04590  0.81898  Biso   1.000  C
  C243     1.0000 0.95209  0.54590  0.68102  Biso   1.000  C
  C244     1.0000 0.04791  0.54590  0.81898  Biso   1.000  C
  C245     1.0000 0.54791  0.95410  0.31898  Biso   1.000  C
  C246     1.0000 0.45209  0.95410  0.18102  Biso   1.000  C
  C247     1.0000 0.04791  0.45410  0.31898  Biso   1.000  C
  C248     1.0000 0.95209  0.45410  0.18102  Biso   1.000  C
  H81      1.0000 0.44070  0.01750  0.71680  Biso   1.000  H
  H82      1.0000 0.55930  0.01750  0.78320  Biso   1.000  H
  H83      1.0000 0.94070  0.51750  0.71680  Biso   1.000  H
  H84      1.0000 0.05930  0.51750  0.78320  Biso   1.000  H
  H85      1.0000 0.55930  0.98250  0.28320  Biso   1.000  H
  H86      1.0000 0.44070  0.98250  0.21680  Biso   1.000  H
  H87      1.0000 0.05930  0.48250  0.28320  Biso   1.000  H
  H88      1.0000 0.94070  0.48250  0.21680  Biso   1.000  H
  H89      1.0000 0.45540  0.10790  0.68850  Biso   1.000  H
  H90      1.0000 0.54460  0.10790  0.81150  Biso   1.000  H
  H91      1.0000 0.95540  0.60790  0.68850  Biso   1.000  H
  H92      1.0000 0.04460  0.60790  0.81150  Biso   1.000  H
  H93      1.0000 0.54460  0.89210  0.31150  Biso   1.000  H
  H94      1.0000 0.45540  0.89210  0.18850  Biso   1.000  H
  H95      1.0000 0.04460  0.39210  0.31150  Biso   1.000  H
  H96      1.0000 0.95540  0.39210  0.18850  Biso   1.000  H
  H97      1.0000 0.48720  0.02280  0.67300  Biso   1.000  H
  H98      1.0000 0.51280  0.02280  0.82700  Biso   1.000  H
  H99      1.0000 0.98720  0.52280  0.67300  Biso   1.000  H
  H100     1.0000 0.01280  0.52280  0.82700  Biso   1.000  H
  H101     1.0000 0.51280  0.97720  0.32700  Biso   1.000  H
  H102     1.0000 0.48720  0.97720  0.17300  Biso   1.000  H
  H103     1.0000 0.01280  0.47720  0.32700  Biso   1.000  H
  H104     1.0000 0.98720  0.47720  0.17300  Biso   1.000  H
  C249     1.0000 0.45576  0.65800  0.51734  Biso   1.000  C
  C250     1.0000 0.54424  0.65800  0.98266  Biso   1.000  C
  C251     1.0000 0.95576  0.15800  0.51734  Biso   1.000  C
  C252     1.0000 0.04424  0.15800  0.98266  Biso   1.000  C
  C253     1.0000 0.54424  0.34200  0.48266  Biso   1.000  C
  C254     1.0000 0.45576  0.34200  0.01734  Biso   1.000  C
  C255     1.0000 0.04424  0.84200  0.48266  Biso   1.000  C
  C256     1.0000 0.95576  0.84200  0.01734  Biso   1.000  C
  H105     1.0000 0.47770  0.62880  0.49170  Biso   1.000  H
  H106     1.0000 0.52230  0.62880  0.00830  Biso   1.000  H
  H107     1.0000 0.97770  0.12880  0.49170  Biso   1.000  H
  H108     1.0000 0.02230  0.12880  0.00830  Biso   1.000  H
  H109     1.0000 0.52230  0.37120  0.50830  Biso   1.000  H
  H110     1.0000 0.47770  0.37120  0.99170  Biso   1.000  H
  H111     1.0000 0.02230  0.87120  0.50830  Biso   1.000  H
  H112     1.0000 0.97770  0.87120  0.99170  Biso   1.000  H
  C257     1.0000 0.21482  0.96950  0.74220  Biso   1.000  C
  C258     1.0000 0.78518  0.96950  0.75780  Biso   1.000  C
  C259     1.0000 0.71482  0.46950  0.74220  Biso   1.000  C
  C260     1.0000 0.28518  0.46950  0.75780  Biso   1.000  C
  C261     1.0000 0.78518  0.03050  0.25780  Biso   1.000  C
  C262     1.0000 0.21482  0.03050  0.24220  Biso   1.000  C
  C263     1.0000 0.28518  0.53050  0.25780  Biso   1.000  C
  C264     1.0000 0.71482  0.53050  0.24220  Biso   1.000  C
  H113     1.0000 0.22830  0.91590  0.75800  Biso   1.000  H
  H114     1.0000 0.77170  0.91590  0.74200  Biso   1.000  H
  H115     1.0000 0.72830  0.41590  0.75800  Biso   1.000  H
  H116     1.0000 0.27170  0.41590  0.74200  Biso   1.000  H
  H117     1.0000 0.77170  0.08410  0.24200  Biso   1.000  H
  H118     1.0000 0.22830  0.08410  0.25800  Biso   1.000  H
  H119     1.0000 0.27170  0.58410  0.24200  Biso   1.000  H
  H120     1.0000 0.72830  0.58410  0.25800  Biso   1.000  H
  C265     1.0000 0.42506  0.07680  0.56669  Biso   1.000  C
  C266     1.0000 0.57494  0.07680  0.93331  Biso   1.000  C
  C267     1.0000 0.92506  0.57680  0.56669  Biso   1.000  C
  C268     1.0000 0.07494  0.57680  0.93331  Biso   1.000  C
  C269     1.0000 0.57494  0.92320  0.43331  Biso   1.000  C
  C270     1.0000 0.42506  0.92320  0.06669  Biso   1.000  C
  C271     1.0000 0.07494  0.42320  0.43331  Biso   1.000  C
  C272     1.0000 0.92506  0.42320  0.06669  Biso   1.000  C
  H121     1.0000 0.46290  0.06390  0.56180  Biso   1.000  H
  H122     1.0000 0.53710  0.06390  0.93820  Biso   1.000  H
  H123     1.0000 0.96290  0.56390  0.56180  Biso   1.000  H
  H124     1.0000 0.03710  0.56390  0.93820  Biso   1.000  H
  H125     1.0000 0.53710  0.93610  0.43820  Biso   1.000  H
  H126     1.0000 0.46290  0.93610  0.06180  Biso   1.000  H
  H127     1.0000 0.03710  0.43610  0.43820  Biso   1.000  H
  H128     1.0000 0.96290  0.43610  0.06180  Biso   1.000  H
  H129     1.0000 0.42070  0.13900  0.57140  Biso   1.000  H
  H130     1.0000 0.57930  0.13900  0.92860  Biso   1.000  H
  H131     1.0000 0.92070  0.63900  0.57140  Biso   1.000  H
  H132     1.0000 0.07930  0.63900  0.92860  Biso   1.000  H
  H133     1.0000 0.57930  0.86100  0.42860  Biso   1.000  H
  H134     1.0000 0.42070  0.86100  0.07140  Biso   1.000  H
  H135     1.0000 0.07930  0.36100  0.42860  Biso   1.000  H
  H136     1.0000 0.92070  0.36100  0.07140  Biso   1.000  H
  H137     1.0000 0.40140  0.05700  0.53070  Biso   1.000  H
  H138     1.0000 0.59860  0.05700  0.96930  Biso   1.000  H
  H139     1.0000 0.90140  0.55700  0.53070  Biso   1.000  H
  H140     1.0000 0.09860  0.55700  0.96930  Biso   1.000  H
  H141     1.0000 0.59860  0.94300  0.46930  Biso   1.000  H
  H142     1.0000 0.40140  0.94300  0.03070  Biso   1.000  H
  H143     1.0000 0.09860  0.44300  0.46930  Biso   1.000  H
  H144     1.0000 0.90140  0.44300  0.03070  Biso   1.000  H
  C273     1.0000 0.44243  0.21950  0.86886  Biso   1.000  C
  C274     1.0000 0.55757  0.21950  0.63114  Biso   1.000  C
  C275     1.0000 0.94243  0.71950  0.86886  Biso   1.000  C
  C276     1.0000 0.05757  0.71950  0.63114  Biso   1.000  C
  C277     1.0000 0.55757  0.78050  0.13114  Biso   1.000  C
  C278     1.0000 0.44243  0.78050  0.36886  Biso   1.000  C
  C279     1.0000 0.05757  0.28050  0.13114  Biso   1.000  C
  C280     1.0000 0.94243  0.28050  0.36886  Biso   1.000  C
  H145     1.0000 0.44360  0.28010  0.88110  Biso   1.000  H
  H146     1.0000 0.55640  0.28010  0.61890  Biso   1.000  H
  H147     1.0000 0.94360  0.78010  0.88110  Biso   1.000  H
  H148     1.0000 0.05640  0.78010  0.61890  Biso   1.000  H
  H149     1.0000 0.55640  0.71990  0.11890  Biso   1.000  H
  H150     1.0000 0.44360  0.71990  0.38110  Biso   1.000  H
  H151     1.0000 0.05640  0.21990  0.11890  Biso   1.000  H
  H152     1.0000 0.94360  0.21990  0.38110  Biso   1.000  H
  H153     1.0000 0.46540  0.21090  0.83640  Biso   1.000  H
  H154     1.0000 0.53460  0.21090  0.66360  Biso   1.000  H
  H155     1.0000 0.96540  0.71090  0.83640  Biso   1.000  H
  H156     1.0000 0.03460  0.71090  0.66360  Biso   1.000  H
  H157     1.0000 0.53460  0.78910  0.16360  Biso   1.000  H
  H158     1.0000 0.46540  0.78910  0.33640  Biso   1.000  H
  H159     1.0000 0.03460  0.28910  0.16360  Biso   1.000  H
  H160     1.0000 0.96540  0.28910  0.33640  Biso   1.000  H
  H161     1.0000 0.45580  0.18360  0.90390  Biso   1.000  H
  H162     1.0000 0.54420  0.18360  0.59610  Biso   1.000  H
  H163     1.0000 0.95580  0.68360  0.90390  Biso   1.000  H
  H164     1.0000 0.04420  0.68360  0.59610  Biso   1.000  H
  H165     1.0000 0.54420  0.81640  0.09610  Biso   1.000  H
  H166     1.0000 0.45580  0.81640  0.40390  Biso   1.000  H
  H167     1.0000 0.04420  0.31640  0.09610  Biso   1.000  H
  H168     1.0000 0.95580  0.31640  0.40390  Biso   1.000  H
  C281     1.0000 0.37950  0.09690  0.82289  Biso   1.000  C
  C282     1.0000 0.62050  0.09690  0.67711  Biso   1.000  C
  C283     1.0000 0.87950  0.59690  0.82289  Biso   1.000  C
  C284     1.0000 0.12050  0.59690  0.67711  Biso   1.000  C
  C285     1.0000 0.62050  0.90310  0.17711  Biso   1.000  C
  C286     1.0000 0.37950  0.90310  0.32289  Biso   1.000  C
  C287     1.0000 0.12050  0.40310  0.17711  Biso   1.000  C
  C288     1.0000 0.87950  0.40310  0.32289  Biso   1.000  C
  H169     1.0000 0.40110  0.06040  0.85270  Biso   1.000  H
  H170     1.0000 0.59890  0.06040  0.64730  Biso   1.000  H
  H171     1.0000 0.90110  0.56040  0.85270  Biso   1.000  H
  H172     1.0000 0.09890  0.56040  0.64730  Biso   1.000  H
  H173     1.0000 0.59890  0.93960  0.14730  Biso   1.000  H
  H174     1.0000 0.40110  0.93960  0.35270  Biso   1.000  H
  H175     1.0000 0.09890  0.43960  0.14730  Biso   1.000  H
  H176     1.0000 0.90110  0.43960  0.35270  Biso   1.000  H
  H177     1.0000 0.39360  0.09250  0.78360  Biso   1.000  H
  H178     1.0000 0.60640  0.09250  0.71640  Biso   1.000  H
  H179     1.0000 0.89360  0.59250  0.78360  Biso   1.000  H
  H180     1.0000 0.10640  0.59250  0.71640  Biso   1.000  H
  H181     1.0000 0.60640  0.90750  0.21640  Biso   1.000  H
  H182     1.0000 0.39360  0.90750  0.28360  Biso   1.000  H
  H183     1.0000 0.10640  0.40750  0.21640  Biso   1.000  H
  H184     1.0000 0.89360  0.40750  0.28360  Biso   1.000  H
  H185     1.0000 0.34160  0.07800  0.81840  Biso   1.000  H
  H186     1.0000 0.65840  0.07800  0.68160  Biso   1.000  H
  H187     1.0000 0.84160  0.57800  0.81840  Biso   1.000  H
  H188     1.0000 0.15840  0.57800  0.68160  Biso   1.000  H
  H189     1.0000 0.65840  0.92200  0.18160  Biso   1.000  H
  H190     1.0000 0.34160  0.92200  0.31840  Biso   1.000  H
  H191     1.0000 0.15840  0.42200  0.18160  Biso   1.000  H
  H192     1.0000 0.84160  0.42200  0.31840  Biso   1.000  H
  C289     1.0000 0.15983  0.98920  0.74032  Biso   1.000  C
  C290     1.0000 0.84017  0.98920  0.75968  Biso   1.000  C
  C291     1.0000 0.65983  0.48920  0.74032  Biso   1.000  C
  C292     1.0000 0.34017  0.48920  0.75968  Biso   1.000  C
  C293     1.0000 0.84017  0.01080  0.25968  Biso   1.000  C
  C294     1.0000 0.15983  0.01080  0.24032  Biso   1.000  C
  C295     1.0000 0.34017  0.51080  0.25968  Biso   1.000  C
  C296     1.0000 0.65983  0.51080  0.24032  Biso   1.000  C
  H193     1.0000 0.13550  0.94950  0.75510  Biso   1.000  H
  H194     1.0000 0.86450  0.94950  0.74490  Biso   1.000  H
  H195     1.0000 0.63550  0.44950  0.75510  Biso   1.000  H
  H196     1.0000 0.36450  0.44950  0.74490  Biso   1.000  H
  H197     1.0000 0.86450  0.05050  0.24490  Biso   1.000  H
  H198     1.0000 0.13550  0.05050  0.25510  Biso   1.000  H
  H199     1.0000 0.36450  0.55050  0.24490  Biso   1.000  H
  H200     1.0000 0.63550  0.55050  0.25510  Biso   1.000  H
  C297     1.0000 0.14080  0.06960  0.71595  Biso   1.000  C
  C298     1.0000 0.85920  0.06960  0.78405  Biso   1.000  C
  C299     1.0000 0.64080  0.56960  0.71595  Biso   1.000  C
  C300     1.0000 0.35920  0.56960  0.78405  Biso   1.000  C
  C301     1.0000 0.85920  0.93040  0.28405  Biso   1.000  C
  C302     1.0000 0.14080  0.93040  0.21595  Biso   1.000  C
  C303     1.0000 0.35920  0.43040  0.28405  Biso   1.000  C
  C304     1.0000 0.64080  0.43040  0.21595  Biso   1.000  C
  H201     1.0000 0.10360  0.08440  0.71430  Biso   1.000  H
  H202     1.0000 0.89640  0.08440  0.78570  Biso   1.000  H
  H203     1.0000 0.60360  0.58440  0.71430  Biso   1.000  H
  H204     1.0000 0.39640  0.58440  0.78570  Biso   1.000  H
  H205     1.0000 0.89640  0.91560  0.28570  Biso   1.000  H
  H206     1.0000 0.10360  0.91560  0.21430  Biso   1.000  H
  H207     1.0000 0.39640  0.41560  0.28570  Biso   1.000  H
  H208     1.0000 0.60360  0.41560  0.21430  Biso   1.000  H
  C305     1.0000 0.19710  0.33670  0.62202  Biso   1.000  C
  C306     1.0000 0.80290  0.33670  0.87798  Biso   1.000  C
  C307     1.0000 0.69710  0.83670  0.62202  Biso   1.000  C
  C308     1.0000 0.30290  0.83670  0.87798  Biso   1.000  C
  C309     1.0000 0.80290  0.66330  0.37798  Biso   1.000  C
  C310     1.0000 0.19710  0.66330  0.12202  Biso   1.000  C
  C311     1.0000 0.30290  0.16330  0.37798  Biso   1.000  C
  C312     1.0000 0.69710  0.16330  0.12202  Biso   1.000  C
  H209     1.0000 0.22680  0.36740  0.60940  Biso   1.000  H
  H210     1.0000 0.77320  0.36740  0.89060  Biso   1.000  H
  H211     1.0000 0.72680  0.86740  0.60940  Biso   1.000  H
  H212     1.0000 0.27320  0.86740  0.89060  Biso   1.000  H
  H213     1.0000 0.77320  0.63260  0.39060  Biso   1.000  H
  H214     1.0000 0.22680  0.63260  0.10940  Biso   1.000  H
  H215     1.0000 0.27320  0.13260  0.39060  Biso   1.000  H
  H216     1.0000 0.72680  0.13260  0.10940  Biso   1.000  H
  C313     1.0000 0.14448  0.37440  0.61250  Biso   1.000  C
  C314     1.0000 0.85552  0.37440  0.88750  Biso   1.000  C
  C315     1.0000 0.64448  0.87440  0.61250  Biso   1.000  C
  C316     1.0000 0.35552  0.87440  0.88750  Biso   1.000  C
  C317     1.0000 0.85552  0.62560  0.38750  Biso   1.000  C
  C318     1.0000 0.14448  0.62560  0.11250  Biso   1.000  C
  C319     1.0000 0.35552  0.12560  0.38750  Biso   1.000  C
  C320     1.0000 0.64448  0.12560  0.11250  Biso   1.000  C
  H217     1.0000 0.13910  0.42910  0.59360  Biso   1.000  H
  H218     1.0000 0.86090  0.42910  0.90640  Biso   1.000  H
  H219     1.0000 0.63910  0.92910  0.59360  Biso   1.000  H
  H220     1.0000 0.36090  0.92910  0.90640  Biso   1.000  H
  H221     1.0000 0.86090  0.57090  0.40640  Biso   1.000  H
  H222     1.0000 0.13910  0.57090  0.09360  Biso   1.000  H
  H223     1.0000 0.36090  0.07090  0.40640  Biso   1.000  H
  H224     1.0000 0.63910  0.07090  0.09360  Biso   1.000  H
  C321     1.0000 0.40280  0.32660  0.52620  Biso   1.000  C
  C322     1.0000 0.59720  0.32660  0.97380  Biso   1.000  C
  C323     1.0000 0.90280  0.82660  0.52620  Biso   1.000  C
  C324     1.0000 0.09720  0.82660  0.97380  Biso   1.000  C
  C325     1.0000 0.59720  0.67340  0.47380  Biso   1.000  C
  C326     1.0000 0.40280  0.67340  0.02620  Biso   1.000  C
  C327     1.0000 0.09720  0.17340  0.47380  Biso   1.000  C
  C328     1.0000 0.90280  0.17340  0.02620  Biso   1.000  C
  H225     1.0000 0.40930  0.34160  0.48470  Biso   1.000  H
  H226     1.0000 0.59070  0.34160  0.01530  Biso   1.000  H
  H227     1.0000 0.90930  0.84160  0.48470  Biso   1.000  H
  H228     1.0000 0.09070  0.84160  0.01530  Biso   1.000  H
  H229     1.0000 0.59070  0.65840  0.51530  Biso   1.000  H
  H230     1.0000 0.40930  0.65840  0.98470  Biso   1.000  H
  H231     1.0000 0.09070  0.15840  0.51530  Biso   1.000  H
  H232     1.0000 0.90930  0.15840  0.98470  Biso   1.000  H
  H233     1.0000 0.39540  0.26490  0.52840  Biso   1.000  H
  H234     1.0000 0.60460  0.26490  0.97160  Biso   1.000  H
  H235     1.0000 0.89540  0.76490  0.52840  Biso   1.000  H
  H236     1.0000 0.10460  0.76490  0.97160  Biso   1.000  H
  H237     1.0000 0.60460  0.73510  0.47160  Biso   1.000  H
  H238     1.0000 0.39540  0.73510  0.02840  Biso   1.000  H
  H239     1.0000 0.10460  0.23510  0.47160  Biso   1.000  H
  H240     1.0000 0.89540  0.23510  0.02840  Biso   1.000  H
  H241     1.0000 0.43500  0.34090  0.55460  Biso   1.000  H
  H242     1.0000 0.56500  0.34090  0.94540  Biso   1.000  H
  H243     1.0000 0.93500  0.84090  0.55460  Biso   1.000  H
  H244     1.0000 0.06500  0.84090  0.94540  Biso   1.000  H
  H245     1.0000 0.56500  0.65910  0.44540  Biso   1.000  H
  H246     1.0000 0.43500  0.65910  0.05460  Biso   1.000  H
  H247     1.0000 0.06500  0.15910  0.44540  Biso   1.000  H
  H248     1.0000 0.93500  0.15910  0.05460  Biso   1.000  H
  C329     1.0000 0.11002  0.24720  0.65920  Biso   1.000  C
  C330     1.0000 0.88998  0.24720  0.84080  Biso   1.000  C
  C331     1.0000 0.61002  0.74720  0.65920  Biso   1.000  C
  C332     1.0000 0.38998  0.74720  0.84080  Biso   1.000  C
  C333     1.0000 0.88998  0.75280  0.34080  Biso   1.000  C
  C334     1.0000 0.11002  0.75280  0.15920  Biso   1.000  C
  C335     1.0000 0.38998  0.25280  0.34080  Biso   1.000  C
  C336     1.0000 0.61002  0.25280  0.15920  Biso   1.000  C
  H249     1.0000 0.08080  0.21550  0.67200  Biso   1.000  H
  H250     1.0000 0.91920  0.21550  0.82800  Biso   1.000  H
  H251     1.0000 0.58080  0.71550  0.67200  Biso   1.000  H
  H252     1.0000 0.41920  0.71550  0.82800  Biso   1.000  H
  H253     1.0000 0.91920  0.78450  0.32800  Biso   1.000  H
  H254     1.0000 0.08080  0.78450  0.17200  Biso   1.000  H
  H255     1.0000 0.41920  0.28450  0.32800  Biso   1.000  H
  H256     1.0000 0.58080  0.28450  0.17200  Biso   1.000  H
  C337     1.0000 0.10110  0.32910  0.63150  Biso   1.000  C
  C338     1.0000 0.89890  0.32910  0.86850  Biso   1.000  C
  C339     1.0000 0.60110  0.82910  0.63150  Biso   1.000  C
  C340     1.0000 0.39890  0.82910  0.86850  Biso   1.000  C
  C341     1.0000 0.89890  0.67090  0.36850  Biso   1.000  C
  C342     1.0000 0.10110  0.67090  0.13150  Biso   1.000  C
  C343     1.0000 0.39890  0.17090  0.36850  Biso   1.000  C
  C344     1.0000 0.60110  0.17090  0.13150  Biso   1.000  C
  H257     1.0000 0.06570  0.35310  0.62590  Biso   1.000  H
  H258     1.0000 0.93430  0.35310  0.87410  Biso   1.000  H
  H259     1.0000 0.56570  0.85310  0.62590  Biso   1.000  H
  H260     1.0000 0.43430  0.85310  0.87410  Biso   1.000  H
  H261     1.0000 0.93430  0.64690  0.37410  Biso   1.000  H
  H262     1.0000 0.06570  0.64690  0.12590  Biso   1.000  H
  H263     1.0000 0.43430  0.14690  0.37410  Biso   1.000  H
  H264     1.0000 0.56570  0.14690  0.12590  Biso   1.000  H
