data_image0
_cell_length_a       27.3992
_cell_length_b       24.4533
_cell_length_c       14.1161
_cell_angle_alpha    90
_cell_angle_beta     90
_cell_angle_gamma    90

_symmetry_space_group_name_H-M    "P 1"
_symmetry_int_tables_number       1

loop_
  _symmetry_equiv_pos_as_xyz
  'x, y, z'

loop_
  _atom_site_label
  _atom_site_occupancy
  _atom_site_fract_x
  _atom_site_fract_y
  _atom_site_fract_z
  _atom_site_thermal_displace_type
  _atom_site_B_iso_or_equiv
  _atom_site_type_symbol
  Cu1      1.0000 0.72554  0.53600  0.57198  Biso   1.000  Cu
  Cu2      1.0000 0.27446  0.46400  0.57198  Biso   1.000  Cu
  Cu3      1.0000 0.97554  0.71400  0.82198  Biso   1.000  Cu
  Cu4      1.0000 0.52446  0.78600  0.82198  Biso   1.000  Cu
  Cu5      1.0000 0.72554  0.03600  0.07198  Biso   1.000  Cu
  Cu6      1.0000 0.27446  0.96400  0.07198  Biso   1.000  Cu
  Cu7      1.0000 0.97554  0.21400  0.32198  Biso   1.000  Cu
  Cu8      1.0000 0.52446  0.28600  0.32198  Biso   1.000  Cu
  Cu9      1.0000 0.22554  0.53600  0.07198  Biso   1.000  Cu
  Cu10     1.0000 0.77446  0.46400  0.07198  Biso   1.000  Cu
  Cu11     1.0000 0.47554  0.71400  0.32198  Biso   1.000  Cu
  Cu12     1.0000 0.02446  0.78600  0.32198  Biso   1.000  Cu
  Cu13     1.0000 0.22554  0.03600  0.57198  Biso   1.000  Cu
  Cu14     1.0000 0.77446  0.96400  0.57198  Biso   1.000  Cu
  Cu15     1.0000 0.47554  0.21400  0.82198  Biso   1.000  Cu
  Cu16     1.0000 0.02446  0.28600  0.82198  Biso   1.000  Cu
  O1       1.0000 0.65930  0.53374  0.62144  Biso   1.000  O
  O2       1.0000 0.34070  0.46626  0.62144  Biso   1.000  O
  O3       1.0000 0.90930  0.71626  0.87144  Biso   1.000  O
  O4       1.0000 0.59070  0.78374  0.87144  Biso   1.000  O
  O5       1.0000 0.65930  0.03374  0.12144  Biso   1.000  O
  O6       1.0000 0.34070  0.96626  0.12144  Biso   1.000  O
  O7       1.0000 0.90930  0.21626  0.37144  Biso   1.000  O
  O8       1.0000 0.59070  0.28374  0.37144  Biso   1.000  O
  O9       1.0000 0.15930  0.53374  0.12144  Biso   1.000  O
  O10      1.0000 0.84070  0.46626  0.12144  Biso   1.000  O
  O11      1.0000 0.40930  0.71626  0.37144  Biso   1.000  O
  O12      1.0000 0.09070  0.78374  0.37144  Biso   1.000  O
  O13      1.0000 0.15930  0.03374  0.62144  Biso   1.000  O
  O14      1.0000 0.84070  0.96626  0.62144  Biso   1.000  O
  O15      1.0000 0.40930  0.21626  0.87144  Biso   1.000  O
  O16      1.0000 0.09070  0.28374  0.87144  Biso   1.000  O
  O17      1.0000 0.72918  0.45814  0.59720  Biso   1.000  O
  O18      1.0000 0.27082  0.54186  0.59720  Biso   1.000  O
  O19      1.0000 0.97918  0.79186  0.84720  Biso   1.000  O
  O20      1.0000 0.52082  0.70814  0.84720  Biso   1.000  O
  O21      1.0000 0.72918  0.95814  0.09720  Biso   1.000  O
  O22      1.0000 0.27082  0.04186  0.09720  Biso   1.000  O
  O23      1.0000 0.97918  0.29186  0.34720  Biso   1.000  O
  O24      1.0000 0.52082  0.20814  0.34720  Biso   1.000  O
  O25      1.0000 0.22918  0.45814  0.09720  Biso   1.000  O
  O26      1.0000 0.77082  0.54186  0.09720  Biso   1.000  O
  O27      1.0000 0.47918  0.79186  0.34720  Biso   1.000  O
  O28      1.0000 0.02082  0.70814  0.34720  Biso   1.000  O
  O29      1.0000 0.22918  0.95814  0.59720  Biso   1.000  O
  O30      1.0000 0.77082  0.04186  0.59720  Biso   1.000  O
  O31      1.0000 0.47918  0.29186  0.84720  Biso   1.000  O
  O32      1.0000 0.02082  0.20814  0.84720  Biso   1.000  O
  O33      1.0000 0.70983  0.60075  0.49805  Biso   1.000  O
  O34      1.0000 0.29017  0.39925  0.49805  Biso   1.000  O
  O35      1.0000 0.95983  0.64925  0.74805  Biso   1.000  O
  O36      1.0000 0.54017  0.85075  0.74805  Biso   1.000  O
  O37      1.0000 0.70983  0.10075  0.99805  Biso   1.000  O
  O38      1.0000 0.29017  0.89925  0.99805  Biso   1.000  O
  O39      1.0000 0.95983  0.14925  0.24805  Biso   1.000  O
  O40      1.0000 0.54017  0.35075  0.24805  Biso   1.000  O
  O41      1.0000 0.20983  0.60075  0.99805  Biso   1.000  O
  O42      1.0000 0.79017  0.39925  0.99805  Biso   1.000  O
  O43      1.0000 0.45983  0.64925  0.24805  Biso   1.000  O
  O44      1.0000 0.04017  0.85075  0.24805  Biso   1.000  O
  O45      1.0000 0.20983  0.10075  0.49805  Biso   1.000  O
  O46      1.0000 0.79017  0.89925  0.49805  Biso   1.000  O
  O47      1.0000 0.45983  0.14925  0.74805  Biso   1.000  O
  O48      1.0000 0.04017  0.35075  0.74805  Biso   1.000  O
  O49      1.0000 0.78639  0.53541  0.50400  Biso   1.000  O
  O50      1.0000 0.21361  0.46459  0.50400  Biso   1.000  O
  O51      1.0000 0.03639  0.71459  0.75400  Biso   1.000  O
  O52      1.0000 0.46361  0.78541  0.75400  Biso   1.000  O
  O53      1.0000 0.78639  0.03541  0.00400  Biso   1.000  O
  O54      1.0000 0.21361  0.96459  0.00400  Biso   1.000  O
  O55      1.0000 0.03639  0.21459  0.25400  Biso   1.000  O
  O56      1.0000 0.46361  0.28541  0.25400  Biso   1.000  O
  O57      1.0000 0.28639  0.53541  0.00400  Biso   1.000  O
  O58      1.0000 0.71361  0.46459  0.00400  Biso   1.000  O
  O59      1.0000 0.53639  0.71459  0.25400  Biso   1.000  O
  O60      1.0000 0.96361  0.78541  0.25400  Biso   1.000  O
  O61      1.0000 0.28639  0.03541  0.50400  Biso   1.000  O
  O62      1.0000 0.71361  0.96459  0.50400  Biso   1.000  O
  O63      1.0000 0.53639  0.21459  0.75400  Biso   1.000  O
  O64      1.0000 0.96361  0.28541  0.75400  Biso   1.000  O
  N1       1.0000 0.51478  0.68010  0.45180  Biso   1.000  N
  N2       1.0000 0.48522  0.31990  0.45180  Biso   1.000  N
  N3       1.0000 0.76478  0.56990  0.70180  Biso   1.000  N
  N4       1.0000 0.73522  0.93010  0.70180  Biso   1.000  N
  N5       1.0000 0.51478  0.18010  0.95180  Biso   1.000  N
  N6       1.0000 0.48522  0.81990  0.95180  Biso   1.000  N
  N7       1.0000 0.76478  0.06990  0.20180  Biso   1.000  N
  N8       1.0000 0.73522  0.43010  0.20180  Biso   1.000  N
  N9       1.0000 0.01478  0.68010  0.95180  Biso   1.000  N
  N10      1.0000 0.98522  0.31990  0.95180  Biso   1.000  N
  N11      1.0000 0.26478  0.56990  0.20180  Biso   1.000  N
  N12      1.0000 0.23522  0.93010  0.20180  Biso   1.000  N
  N13      1.0000 0.01478  0.18010  0.45180  Biso   1.000  N
  N14      1.0000 0.98522  0.81990  0.45180  Biso   1.000  N
  N15      1.0000 0.26478  0.06990  0.70180  Biso   1.000  N
  N16      1.0000 0.23522  0.43010  0.70180  Biso   1.000  N
  N17      1.0000 0.53318  0.71621  0.51520  Biso   1.000  N
  N18      1.0000 0.46682  0.28379  0.51520  Biso   1.000  N
  N19      1.0000 0.78318  0.53379  0.76520  Biso   1.000  N
  N20      1.0000 0.71682  0.96621  0.76520  Biso   1.000  N
  N21      1.0000 0.53318  0.21621  0.01520  Biso   1.000  N
  N22      1.0000 0.46682  0.78379  0.01520  Biso   1.000  N
  N23      1.0000 0.78318  0.03379  0.26520  Biso   1.000  N
  N24      1.0000 0.71682  0.46621  0.26520  Biso   1.000  N
  N25      1.0000 0.03318  0.71621  0.01520  Biso   1.000  N
  N26      1.0000 0.96682  0.28379  0.01520  Biso   1.000  N
  N27      1.0000 0.28318  0.53379  0.26520  Biso   1.000  N
  N28      1.0000 0.21682  0.96621  0.26520  Biso   1.000  N
  N29      1.0000 0.03318  0.21621  0.51520  Biso   1.000  N
  N30      1.0000 0.96682  0.78379  0.51520  Biso   1.000  N
  N31      1.0000 0.28318  0.03379  0.76520  Biso   1.000  N
  N32      1.0000 0.21682  0.46621  0.76520  Biso   1.000  N
  N33      1.0000 0.91330  0.35056  0.51710  Biso   1.000  N
  N34      1.0000 0.08670  0.64944  0.51710  Biso   1.000  N
  N35      1.0000 0.16330  0.89944  0.76710  Biso   1.000  N
  N36      1.0000 0.33670  0.60056  0.76710  Biso   1.000  N
  N37      1.0000 0.91330  0.85056  0.01710  Biso   1.000  N
  N38      1.0000 0.08670  0.14944  0.01710  Biso   1.000  N
  N39      1.0000 0.16330  0.39944  0.26710  Biso   1.000  N
  N40      1.0000 0.33670  0.10056  0.26710  Biso   1.000  N
  N41      1.0000 0.41330  0.35056  0.01710  Biso   1.000  N
  N42      1.0000 0.58670  0.64944  0.01710  Biso   1.000  N
  N43      1.0000 0.66330  0.89944  0.26710  Biso   1.000  N
  N44      1.0000 0.83670  0.60056  0.26710  Biso   1.000  N
  N45      1.0000 0.41330  0.85056  0.51710  Biso   1.000  N
  N46      1.0000 0.58670  0.14944  0.51710  Biso   1.000  N
  N47      1.0000 0.66330  0.39944  0.76710  Biso   1.000  N
  N48      1.0000 0.83670  0.10056  0.76710  Biso   1.000  N
  N49      1.0000 0.88955  0.33594  0.43740  Biso   1.000  N
  N50      1.0000 0.11045  0.66406  0.43740  Biso   1.000  N
  N51      1.0000 0.13955  0.91406  0.68740  Biso   1.000  N
  N52      1.0000 0.36045  0.58594  0.68740  Biso   1.000  N
  N53      1.0000 0.88955  0.83594  0.93740  Biso   1.000  N
  N54      1.0000 0.11045  0.16406  0.93740  Biso   1.000  N
  N55      1.0000 0.13955  0.41406  0.18740  Biso   1.000  N
  N56      1.0000 0.36045  0.08594  0.18740  Biso   1.000  N
  N57      1.0000 0.38955  0.33594  0.93740  Biso   1.000  N
  N58      1.0000 0.61045  0.66406  0.93740  Biso   1.000  N
  N59      1.0000 0.63955  0.91406  0.18740  Biso   1.000  N
  N60      1.0000 0.86045  0.58594  0.18740  Biso   1.000  N
  N61      1.0000 0.38955  0.83594  0.43740  Biso   1.000  N
  N62      1.0000 0.61045  0.16406  0.43740  Biso   1.000  N
  N63      1.0000 0.63955  0.41406  0.68740  Biso   1.000  N
  N64      1.0000 0.86045  0.08594  0.68740  Biso   1.000  N
  H1       1.0000 0.89990  0.31150  0.39850  Biso   1.000  H
  H2       1.0000 0.10010  0.68850  0.39850  Biso   1.000  H
  H3       1.0000 0.14990  0.93850  0.64850  Biso   1.000  H
  H4       1.0000 0.35010  0.56150  0.64850  Biso   1.000  H
  H5       1.0000 0.89990  0.81150  0.89850  Biso   1.000  H
  H6       1.0000 0.10010  0.18850  0.89850  Biso   1.000  H
  H7       1.0000 0.14990  0.43850  0.14850  Biso   1.000  H
  H8       1.0000 0.35010  0.06150  0.14850  Biso   1.000  H
  H9       1.0000 0.39990  0.31150  0.89850  Biso   1.000  H
  H10      1.0000 0.60010  0.68850  0.89850  Biso   1.000  H
  H11      1.0000 0.64990  0.93850  0.14850  Biso   1.000  H
  H12      1.0000 0.85010  0.56150  0.14850  Biso   1.000  H
  H13      1.0000 0.39990  0.81150  0.39850  Biso   1.000  H
  H14      1.0000 0.60010  0.18850  0.39850  Biso   1.000  H
  H15      1.0000 0.64990  0.43850  0.64850  Biso   1.000  H
  H16      1.0000 0.85010  0.06150  0.64850  Biso   1.000  H
  C1       1.0000 0.57324  0.69663  0.55870  Biso   1.000  C
  C2       1.0000 0.42676  0.30337  0.55870  Biso   1.000  C
  C3       1.0000 0.82324  0.55337  0.80870  Biso   1.000  C
  C4       1.0000 0.67676  0.94663  0.80870  Biso   1.000  C
  C5       1.0000 0.57324  0.19663  0.05870  Biso   1.000  C
  C6       1.0000 0.42676  0.80337  0.05870  Biso   1.000  C
  C7       1.0000 0.82324  0.05337  0.30870  Biso   1.000  C
  C8       1.0000 0.67676  0.44663  0.30870  Biso   1.000  C
  C9       1.0000 0.07324  0.69663  0.05870  Biso   1.000  C
  C10      1.0000 0.92676  0.30337  0.05870  Biso   1.000  C
  C11      1.0000 0.32324  0.55337  0.30870  Biso   1.000  C
  C12      1.0000 0.17676  0.94663  0.30870  Biso   1.000  C
  C13      1.0000 0.07324  0.19663  0.55870  Biso   1.000  C
  C14      1.0000 0.92676  0.80337  0.55870  Biso   1.000  C
  C15      1.0000 0.32324  0.05337  0.80870  Biso   1.000  C
  C16      1.0000 0.17676  0.44663  0.80870  Biso   1.000  C
  C17      1.0000 0.80545  0.44072  0.52150  Biso   1.000  C
  C18      1.0000 0.19455  0.55928  0.52150  Biso   1.000  C
  C19      1.0000 0.05545  0.80928  0.77150  Biso   1.000  C
  C20      1.0000 0.44455  0.69072  0.77150  Biso   1.000  C
  C21      1.0000 0.80545  0.94072  0.02150  Biso   1.000  C
  C22      1.0000 0.19455  0.05928  0.02150  Biso   1.000  C
  C23      1.0000 0.05545  0.30928  0.27150  Biso   1.000  C
  C24      1.0000 0.44455  0.19072  0.27150  Biso   1.000  C
  C25      1.0000 0.30545  0.44072  0.02150  Biso   1.000  C
  C26      1.0000 0.69455  0.55928  0.02150  Biso   1.000  C
  C27      1.0000 0.55545  0.80928  0.27150  Biso   1.000  C
  C28      1.0000 0.94455  0.69072  0.27150  Biso   1.000  C
  C29      1.0000 0.30545  0.94072  0.52150  Biso   1.000  C
  C30      1.0000 0.69455  0.05928  0.52150  Biso   1.000  C
  C31      1.0000 0.55545  0.30928  0.77150  Biso   1.000  C
  C32      1.0000 0.94455  0.19072  0.77150  Biso   1.000  C
  C33      1.0000 0.58228  0.64526  0.52280  Biso   1.000  C
  C34      1.0000 0.41772  0.35474  0.52280  Biso   1.000  C
  C35      1.0000 0.83228  0.60474  0.77280  Biso   1.000  C
  C36      1.0000 0.66772  0.89526  0.77280  Biso   1.000  C
  C37      1.0000 0.58228  0.14526  0.02280  Biso   1.000  C
  C38      1.0000 0.41772  0.85474  0.02280  Biso   1.000  C
  C39      1.0000 0.83228  0.10474  0.27280  Biso   1.000  C
  C40      1.0000 0.66772  0.39526  0.27280  Biso   1.000  C
  C41      1.0000 0.08228  0.64526  0.02280  Biso   1.000  C
  C42      1.0000 0.91772  0.35474  0.02280  Biso   1.000  C
  C43      1.0000 0.33228  0.60474  0.27280  Biso   1.000  C
  C44      1.0000 0.16772  0.89526  0.27280  Biso   1.000  C
  C45      1.0000 0.08228  0.14526  0.52280  Biso   1.000  C
  C46      1.0000 0.91772  0.85474  0.52280  Biso   1.000  C
  C47      1.0000 0.33228  0.10474  0.77280  Biso   1.000  C
  C48      1.0000 0.16772  0.39526  0.77280  Biso   1.000  C
  C49      1.0000 0.62627  0.61092  0.53980  Biso   1.000  C
  C50      1.0000 0.37373  0.38908  0.53980  Biso   1.000  C
  C51      1.0000 0.87627  0.63908  0.78980  Biso   1.000  C
  C52      1.0000 0.62373  0.86092  0.78980  Biso   1.000  C
  C53      1.0000 0.62627  0.11092  0.03980  Biso   1.000  C
  C54      1.0000 0.37373  0.88908  0.03980  Biso   1.000  C
  C55      1.0000 0.87627  0.13908  0.28980  Biso   1.000  C
  C56      1.0000 0.62373  0.36092  0.28980  Biso   1.000  C
  C57      1.0000 0.12627  0.61092  0.03980  Biso   1.000  C
  C58      1.0000 0.87373  0.38908  0.03980  Biso   1.000  C
  C59      1.0000 0.37627  0.63908  0.28980  Biso   1.000  C
  C60      1.0000 0.12373  0.86092  0.28980  Biso   1.000  C
  C61      1.0000 0.12627  0.11092  0.53980  Biso   1.000  C
  C62      1.0000 0.87373  0.88908  0.53980  Biso   1.000  C
  C63      1.0000 0.37627  0.13908  0.78980  Biso   1.000  C
  C64      1.0000 0.12373  0.36092  0.78980  Biso   1.000  C
  C65      1.0000 0.84326  0.39864  0.50230  Biso   1.000  C
  C66      1.0000 0.15674  0.60136  0.50230  Biso   1.000  C
  C67      1.0000 0.09326  0.85136  0.75230  Biso   1.000  C
  C68      1.0000 0.40674  0.64864  0.75230  Biso   1.000  C
  C69      1.0000 0.84326  0.89864  0.00230  Biso   1.000  C
  C70      1.0000 0.15674  0.10136  0.00230  Biso   1.000  C
  C71      1.0000 0.09326  0.35136  0.25230  Biso   1.000  C
  C72      1.0000 0.40674  0.14864  0.25230  Biso   1.000  C
  C73      1.0000 0.34326  0.39864  0.00230  Biso   1.000  C
  C74      1.0000 0.65674  0.60136  0.00230  Biso   1.000  C
  C75      1.0000 0.59326  0.85136  0.25230  Biso   1.000  C
  C76      1.0000 0.90674  0.64864  0.25230  Biso   1.000  C
  C77      1.0000 0.34326  0.89864  0.50230  Biso   1.000  C
  C78      1.0000 0.65674  0.10136  0.50230  Biso   1.000  C
  C79      1.0000 0.59326  0.35136  0.75230  Biso   1.000  C
  C80      1.0000 0.90674  0.14864  0.75230  Biso   1.000  C
  C81      1.0000 0.62466  0.56671  0.60400  Biso   1.000  C
  C82      1.0000 0.37534  0.43329  0.60400  Biso   1.000  C
  C83      1.0000 0.87466  0.68329  0.85400  Biso   1.000  C
  C84      1.0000 0.62534  0.81671  0.85400  Biso   1.000  C
  C85      1.0000 0.62466  0.06671  0.10400  Biso   1.000  C
  C86      1.0000 0.37534  0.93329  0.10400  Biso   1.000  C
  C87      1.0000 0.87466  0.18329  0.35400  Biso   1.000  C
  C88      1.0000 0.62534  0.31671  0.35400  Biso   1.000  C
  C89      1.0000 0.12466  0.56671  0.10400  Biso   1.000  C
  C90      1.0000 0.87534  0.43329  0.10400  Biso   1.000  C
  C91      1.0000 0.37466  0.68329  0.35400  Biso   1.000  C
  C92      1.0000 0.12534  0.81671  0.35400  Biso   1.000  C
  C93      1.0000 0.12466  0.06671  0.60400  Biso   1.000  C
  C94      1.0000 0.87534  0.93329  0.60400  Biso   1.000  C
  C95      1.0000 0.37466  0.18329  0.85400  Biso   1.000  C
  C96      1.0000 0.12534  0.31671  0.85400  Biso   1.000  C
  C97      1.0000 0.88541  0.38882  0.55740  Biso   1.000  C
  C98      1.0000 0.11459  0.61118  0.55740  Biso   1.000  C
  C99      1.0000 0.13541  0.86118  0.80740  Biso   1.000  C
  C100     1.0000 0.36459  0.63882  0.80740  Biso   1.000  C
  C101     1.0000 0.88541  0.88882  0.05740  Biso   1.000  C
  C102     1.0000 0.11459  0.11118  0.05740  Biso   1.000  C
  C103     1.0000 0.13541  0.36118  0.30740  Biso   1.000  C
  C104     1.0000 0.36459  0.13882  0.30740  Biso   1.000  C
  C105     1.0000 0.38541  0.38882  0.05740  Biso   1.000  C
  C106     1.0000 0.61459  0.61118  0.05740  Biso   1.000  C
  C107     1.0000 0.63541  0.86118  0.30740  Biso   1.000  C
  C108     1.0000 0.86459  0.63882  0.30740  Biso   1.000  C
  C109     1.0000 0.38541  0.88882  0.55740  Biso   1.000  C
  C110     1.0000 0.61459  0.11118  0.55740  Biso   1.000  C
  C111     1.0000 0.63541  0.36118  0.80740  Biso   1.000  C
  C112     1.0000 0.86459  0.13882  0.80740  Biso   1.000  C
  C113     1.0000 0.66869  0.62423  0.48930  Biso   1.000  C
  C114     1.0000 0.33131  0.37577  0.48930  Biso   1.000  C
  C115     1.0000 0.91869  0.62577  0.73930  Biso   1.000  C
  C116     1.0000 0.58131  0.87423  0.73930  Biso   1.000  C
  C117     1.0000 0.66869  0.12423  0.98930  Biso   1.000  C
  C118     1.0000 0.33131  0.87577  0.98930  Biso   1.000  C
  C119     1.0000 0.91869  0.12577  0.23930  Biso   1.000  C
  C120     1.0000 0.58131  0.37423  0.23930  Biso   1.000  C
  C121     1.0000 0.16869  0.62423  0.98930  Biso   1.000  C
  C122     1.0000 0.83131  0.37577  0.98930  Biso   1.000  C
  C123     1.0000 0.41869  0.62577  0.23930  Biso   1.000  C
  C124     1.0000 0.08131  0.87423  0.23930  Biso   1.000  C
  C125     1.0000 0.16869  0.12423  0.48930  Biso   1.000  C
  C126     1.0000 0.83131  0.87577  0.48930  Biso   1.000  C
  C127     1.0000 0.41869  0.12577  0.73930  Biso   1.000  C
  C128     1.0000 0.08131  0.37423  0.73930  Biso   1.000  C
  C129     1.0000 0.76362  0.42593  0.57250  Biso   1.000  C
  C130     1.0000 0.23638  0.57407  0.57250  Biso   1.000  C
  C131     1.0000 0.01362  0.82407  0.82250  Biso   1.000  C
  C132     1.0000 0.48638  0.67593  0.82250  Biso   1.000  C
  C133     1.0000 0.76362  0.92593  0.07250  Biso   1.000  C
  C134     1.0000 0.23638  0.07407  0.07250  Biso   1.000  C
  C135     1.0000 0.01362  0.32407  0.32250  Biso   1.000  C
  C136     1.0000 0.48638  0.17593  0.32250  Biso   1.000  C
  C137     1.0000 0.26362  0.42593  0.07250  Biso   1.000  C
  C138     1.0000 0.73638  0.57407  0.07250  Biso   1.000  C
  C139     1.0000 0.51362  0.82407  0.32250  Biso   1.000  C
  C140     1.0000 0.98638  0.67593  0.32250  Biso   1.000  C
  C141     1.0000 0.26362  0.92593  0.57250  Biso   1.000  C
  C142     1.0000 0.73638  0.07407  0.57250  Biso   1.000  C
  C143     1.0000 0.51362  0.32407  0.82250  Biso   1.000  C
  C144     1.0000 0.98638  0.17593  0.82250  Biso   1.000  C
  C145     1.0000 0.54439  0.63670  0.45620  Biso   1.000  C
  C146     1.0000 0.45561  0.36330  0.45620  Biso   1.000  C
  C147     1.0000 0.79439  0.61330  0.70620  Biso   1.000  C
  C148     1.0000 0.70561  0.88670  0.70620  Biso   1.000  C
  C149     1.0000 0.54439  0.13670  0.95620  Biso   1.000  C
  C150     1.0000 0.45561  0.86330  0.95620  Biso   1.000  C
  C151     1.0000 0.79439  0.11330  0.20620  Biso   1.000  C
  C152     1.0000 0.70561  0.38670  0.20620  Biso   1.000  C
  C153     1.0000 0.04439  0.63670  0.95620  Biso   1.000  C
  C154     1.0000 0.95561  0.36330  0.95620  Biso   1.000  C
  C155     1.0000 0.29439  0.61330  0.20620  Biso   1.000  C
  C156     1.0000 0.20561  0.88670  0.20620  Biso   1.000  C
  C157     1.0000 0.04439  0.13670  0.45620  Biso   1.000  C
  C158     1.0000 0.95561  0.86330  0.45620  Biso   1.000  C
  C159     1.0000 0.29439  0.11330  0.70620  Biso   1.000  C
  C160     1.0000 0.20561  0.38670  0.70620  Biso   1.000  C
  C161     1.0000 0.84769  0.36419  0.42560  Biso   1.000  C
  C162     1.0000 0.15231  0.63581  0.42560  Biso   1.000  C
  C163     1.0000 0.09769  0.88581  0.67560  Biso   1.000  C
  C164     1.0000 0.40231  0.61419  0.67560  Biso   1.000  C
  C165     1.0000 0.84769  0.86419  0.92560  Biso   1.000  C
  C166     1.0000 0.15231  0.13581  0.92560  Biso   1.000  C
  C167     1.0000 0.09769  0.38581  0.17560  Biso   1.000  C
  C168     1.0000 0.40231  0.11419  0.17560  Biso   1.000  C
  C169     1.0000 0.34769  0.36419  0.92560  Biso   1.000  C
  C170     1.0000 0.65231  0.63581  0.92560  Biso   1.000  C
  C171     1.0000 0.59769  0.88581  0.17560  Biso   1.000  C
  C172     1.0000 0.90231  0.61419  0.17560  Biso   1.000  C
  C173     1.0000 0.34769  0.86419  0.42560  Biso   1.000  C
  C174     1.0000 0.65231  0.13581  0.42560  Biso   1.000  C
  C175     1.0000 0.59769  0.38581  0.67560  Biso   1.000  C
  C176     1.0000 0.90231  0.11419  0.67560  Biso   1.000  C
  C177     1.0000 0.81431  0.49466  0.49160  Biso   1.000  C
  C178     1.0000 0.18569  0.50534  0.49160  Biso   1.000  C
  C179     1.0000 0.06431  0.75534  0.74160  Biso   1.000  C
  C180     1.0000 0.43569  0.74466  0.74160  Biso   1.000  C
  C181     1.0000 0.81431  0.99466  0.99160  Biso   1.000  C
  C182     1.0000 0.18569  0.00534  0.99160  Biso   1.000  C
  C183     1.0000 0.06431  0.25534  0.24160  Biso   1.000  C
  C184     1.0000 0.43569  0.24466  0.24160  Biso   1.000  C
  C185     1.0000 0.31431  0.49466  0.99160  Biso   1.000  C
  C186     1.0000 0.68569  0.50534  0.99160  Biso   1.000  C
  C187     1.0000 0.56431  0.75534  0.24160  Biso   1.000  C
  C188     1.0000 0.93569  0.74466  0.24160  Biso   1.000  C
  C189     1.0000 0.31431  0.99466  0.49160  Biso   1.000  C
  C190     1.0000 0.68569  0.00534  0.49160  Biso   1.000  C
  C191     1.0000 0.56431  0.25534  0.74160  Biso   1.000  C
  C192     1.0000 0.93569  0.24466  0.74160  Biso   1.000  C
  C193     1.0000 0.53584  0.58716  0.39650  Biso   1.000  C
  C194     1.0000 0.46416  0.41284  0.39650  Biso   1.000  C
  C195     1.0000 0.78584  0.66284  0.64650  Biso   1.000  C
  C196     1.0000 0.71416  0.83716  0.64650  Biso   1.000  C
  C197     1.0000 0.53584  0.08716  0.89650  Biso   1.000  C
  C198     1.0000 0.46416  0.91284  0.89650  Biso   1.000  C
  C199     1.0000 0.78584  0.16284  0.14650  Biso   1.000  C
  C200     1.0000 0.71416  0.33716  0.14650  Biso   1.000  C
  C201     1.0000 0.03584  0.58716  0.89650  Biso   1.000  C
  C202     1.0000 0.96416  0.41284  0.89650  Biso   1.000  C
  C203     1.0000 0.28584  0.66284  0.14650  Biso   1.000  C
  C204     1.0000 0.21416  0.83716  0.14650  Biso   1.000  C
  C205     1.0000 0.03584  0.08716  0.39650  Biso   1.000  C
  C206     1.0000 0.96416  0.91284  0.39650  Biso   1.000  C
  C207     1.0000 0.28584  0.16284  0.64650  Biso   1.000  C
  C208     1.0000 0.21416  0.33716  0.64650  Biso   1.000  C
  H17      1.0000 0.52030  0.55940  0.43380  Biso   1.000  H
  H18      1.0000 0.47970  0.44060  0.43380  Biso   1.000  H
  H19      1.0000 0.77030  0.69060  0.68380  Biso   1.000  H
  H20      1.0000 0.72970  0.80940  0.68380  Biso   1.000  H
  H21      1.0000 0.52030  0.05940  0.93380  Biso   1.000  H
  H22      1.0000 0.47970  0.94060  0.93380  Biso   1.000  H
  H23      1.0000 0.77030  0.19060  0.18380  Biso   1.000  H
  H24      1.0000 0.72970  0.30940  0.18380  Biso   1.000  H
  H25      1.0000 0.02030  0.55940  0.93380  Biso   1.000  H
  H26      1.0000 0.97970  0.44060  0.93380  Biso   1.000  H
  H27      1.0000 0.27030  0.69060  0.18380  Biso   1.000  H
  H28      1.0000 0.22970  0.80940  0.18380  Biso   1.000  H
  H29      1.0000 0.02030  0.05940  0.43380  Biso   1.000  H
  H30      1.0000 0.97970  0.94060  0.43380  Biso   1.000  H
  H31      1.0000 0.27030  0.19060  0.68380  Biso   1.000  H
  H32      1.0000 0.22970  0.30940  0.68380  Biso   1.000  H
  H33      1.0000 0.56650  0.57370  0.37330  Biso   1.000  H
  H34      1.0000 0.43350  0.42630  0.37330  Biso   1.000  H
  H35      1.0000 0.81650  0.67630  0.62330  Biso   1.000  H
  H36      1.0000 0.68350  0.82370  0.62330  Biso   1.000  H
  H37      1.0000 0.56650  0.07370  0.87330  Biso   1.000  H
  H38      1.0000 0.43350  0.92630  0.87330  Biso   1.000  H
  H39      1.0000 0.81650  0.17630  0.12330  Biso   1.000  H
  H40      1.0000 0.68350  0.32370  0.12330  Biso   1.000  H
  H41      1.0000 0.06650  0.57370  0.87330  Biso   1.000  H
  H42      1.0000 0.93350  0.42630  0.87330  Biso   1.000  H
  H43      1.0000 0.31650  0.67630  0.12330  Biso   1.000  H
  H44      1.0000 0.18350  0.82370  0.12330  Biso   1.000  H
  H45      1.0000 0.06650  0.07370  0.37330  Biso   1.000  H
  H46      1.0000 0.93350  0.92630  0.37330  Biso   1.000  H
  H47      1.0000 0.31650  0.17630  0.62330  Biso   1.000  H
  H48      1.0000 0.18350  0.32370  0.62330  Biso   1.000  H
  H49      1.0000 0.51520  0.59660  0.34390  Biso   1.000  H
  H50      1.0000 0.48480  0.40340  0.34390  Biso   1.000  H
  H51      1.0000 0.76520  0.65340  0.59390  Biso   1.000  H
  H52      1.0000 0.73480  0.84660  0.59390  Biso   1.000  H
  H53      1.0000 0.51520  0.09660  0.84390  Biso   1.000  H
  H54      1.0000 0.48480  0.90340  0.84390  Biso   1.000  H
  H55      1.0000 0.76520  0.15340  0.09390  Biso   1.000  H
  H56      1.0000 0.73480  0.34660  0.09390  Biso   1.000  H
  H57      1.0000 0.01520  0.59660  0.84390  Biso   1.000  H
  H58      1.0000 0.98480  0.40340  0.84390  Biso   1.000  H
  H59      1.0000 0.26520  0.65340  0.09390  Biso   1.000  H
  H60      1.0000 0.23480  0.84660  0.09390  Biso   1.000  H
  H61      1.0000 0.01520  0.09660  0.34390  Biso   1.000  H
  H62      1.0000 0.98480  0.90340  0.34390  Biso   1.000  H
  H63      1.0000 0.26520  0.15340  0.59390  Biso   1.000  H
  H64      1.0000 0.23480  0.34660  0.59390  Biso   1.000  H
  C209     1.0000 0.66847  0.66970  0.41740  Biso   1.000  C
  C210     1.0000 0.33153  0.33030  0.41740  Biso   1.000  C
  C211     1.0000 0.91847  0.58030  0.66740  Biso   1.000  C
  C212     1.0000 0.58153  0.91970  0.66740  Biso   1.000  C
  C213     1.0000 0.66847  0.16970  0.91740  Biso   1.000  C
  C214     1.0000 0.33153  0.83030  0.91740  Biso   1.000  C
  C215     1.0000 0.91847  0.08030  0.16740  Biso   1.000  C
  C216     1.0000 0.58153  0.41970  0.16740  Biso   1.000  C
  C217     1.0000 0.16847  0.66970  0.91740  Biso   1.000  C
  C218     1.0000 0.83153  0.33030  0.91740  Biso   1.000  C
  C219     1.0000 0.41847  0.58030  0.16740  Biso   1.000  C
  C220     1.0000 0.08153  0.91970  0.16740  Biso   1.000  C
  C221     1.0000 0.16847  0.16970  0.41740  Biso   1.000  C
  C222     1.0000 0.83153  0.83030  0.41740  Biso   1.000  C
  C223     1.0000 0.41847  0.08030  0.66740  Biso   1.000  C
  C224     1.0000 0.08153  0.41970  0.66740  Biso   1.000  C
  H65      1.0000 0.66880  0.70430  0.44940  Biso   1.000  H
  H66      1.0000 0.33120  0.29570  0.44940  Biso   1.000  H
  H67      1.0000 0.91880  0.54570  0.69940  Biso   1.000  H
  H68      1.0000 0.58120  0.95430  0.69940  Biso   1.000  H
  H69      1.0000 0.66880  0.20430  0.94940  Biso   1.000  H
  H70      1.0000 0.33120  0.79570  0.94940  Biso   1.000  H
  H71      1.0000 0.91880  0.04570  0.19940  Biso   1.000  H
  H72      1.0000 0.58120  0.45430  0.19940  Biso   1.000  H
  H73      1.0000 0.16880  0.70430  0.94940  Biso   1.000  H
  H74      1.0000 0.83120  0.29570  0.94940  Biso   1.000  H
  H75      1.0000 0.41880  0.54570  0.19940  Biso   1.000  H
  H76      1.0000 0.08120  0.95430  0.19940  Biso   1.000  H
  H77      1.0000 0.16880  0.20430  0.44940  Biso   1.000  H
  H78      1.0000 0.83120  0.79570  0.44940  Biso   1.000  H
  H79      1.0000 0.41880  0.04570  0.69940  Biso   1.000  H
  H80      1.0000 0.08120  0.45430  0.69940  Biso   1.000  H
  H81      1.0000 0.63960  0.66700  0.37900  Biso   1.000  H
  H82      1.0000 0.36040  0.33300  0.37900  Biso   1.000  H
  H83      1.0000 0.88960  0.58300  0.62900  Biso   1.000  H
  H84      1.0000 0.61040  0.91700  0.62900  Biso   1.000  H
  H85      1.0000 0.63960  0.16700  0.87900  Biso   1.000  H
  H86      1.0000 0.36040  0.83300  0.87900  Biso   1.000  H
  H87      1.0000 0.88960  0.08300  0.12900  Biso   1.000  H
  H88      1.0000 0.61040  0.41700  0.12900  Biso   1.000  H
  H89      1.0000 0.13960  0.66700  0.87900  Biso   1.000  H
  H90      1.0000 0.86040  0.33300  0.87900  Biso   1.000  H
  H91      1.0000 0.38960  0.58300  0.12900  Biso   1.000  H
  H92      1.0000 0.11040  0.91700  0.12900  Biso   1.000  H
  H93      1.0000 0.13960  0.16700  0.37900  Biso   1.000  H
  H94      1.0000 0.86040  0.83300  0.37900  Biso   1.000  H
  H95      1.0000 0.38960  0.08300  0.62900  Biso   1.000  H
  H96      1.0000 0.11040  0.41700  0.62900  Biso   1.000  H
  H97      1.0000 0.69680  0.66670  0.37780  Biso   1.000  H
  H98      1.0000 0.30320  0.33330  0.37780  Biso   1.000  H
  H99      1.0000 0.94680  0.58330  0.62780  Biso   1.000  H
  H100     1.0000 0.55320  0.91670  0.62780  Biso   1.000  H
  H101     1.0000 0.69680  0.16670  0.87780  Biso   1.000  H
  H102     1.0000 0.30320  0.83330  0.87780  Biso   1.000  H
  H103     1.0000 0.94680  0.08330  0.12780  Biso   1.000  H
  H104     1.0000 0.55320  0.41670  0.12780  Biso   1.000  H
  H105     1.0000 0.19680  0.66670  0.87780  Biso   1.000  H
  H106     1.0000 0.80320  0.33330  0.87780  Biso   1.000  H
  H107     1.0000 0.44680  0.58330  0.12780  Biso   1.000  H
  H108     1.0000 0.05320  0.91670  0.12780  Biso   1.000  H
  H109     1.0000 0.19680  0.16670  0.37780  Biso   1.000  H
  H110     1.0000 0.80320  0.83330  0.37780  Biso   1.000  H
  H111     1.0000 0.44680  0.08330  0.62780  Biso   1.000  H
  H112     1.0000 0.05320  0.41670  0.62780  Biso   1.000  H
  C225     1.0000 0.75658  0.36693  0.60190  Biso   1.000  C
  C226     1.0000 0.24342  0.63307  0.60190  Biso   1.000  C
  C227     1.0000 0.00658  0.88307  0.85190  Biso   1.000  C
  C228     1.0000 0.49342  0.61693  0.85190  Biso   1.000  C
  C229     1.0000 0.75658  0.86693  0.10190  Biso   1.000  C
  C230     1.0000 0.24342  0.13307  0.10190  Biso   1.000  C
  C231     1.0000 0.00658  0.38307  0.35190  Biso   1.000  C
  C232     1.0000 0.49342  0.11693  0.35190  Biso   1.000  C
  C233     1.0000 0.25658  0.36693  0.10190  Biso   1.000  C
  C234     1.0000 0.74342  0.63307  0.10190  Biso   1.000  C
  C235     1.0000 0.50658  0.88307  0.35190  Biso   1.000  C
  C236     1.0000 0.99342  0.61693  0.35190  Biso   1.000  C
  C237     1.0000 0.25658  0.86693  0.60190  Biso   1.000  C
  C238     1.0000 0.74342  0.13307  0.60190  Biso   1.000  C
  C239     1.0000 0.50658  0.38307  0.85190  Biso   1.000  C
  C240     1.0000 0.99342  0.11693  0.85190  Biso   1.000  C
  H113     1.0000 0.77640  0.35930  0.65640  Biso   1.000  H
  H114     1.0000 0.22360  0.64070  0.65640  Biso   1.000  H
  H115     1.0000 0.02640  0.89070  0.90640  Biso   1.000  H
  H116     1.0000 0.47360  0.60930  0.90640  Biso   1.000  H
  H117     1.0000 0.77640  0.85930  0.15640  Biso   1.000  H
  H118     1.0000 0.22360  0.14070  0.15640  Biso   1.000  H
  H119     1.0000 0.02640  0.39070  0.40640  Biso   1.000  H
  H120     1.0000 0.47360  0.10930  0.40640  Biso   1.000  H
  H121     1.0000 0.27640  0.35930  0.15640  Biso   1.000  H
  H122     1.0000 0.72360  0.64070  0.15640  Biso   1.000  H
  H123     1.0000 0.52640  0.89070  0.40640  Biso   1.000  H
  H124     1.0000 0.97360  0.60930  0.40640  Biso   1.000  H
  H125     1.0000 0.27640  0.85930  0.65640  Biso   1.000  H
  H126     1.0000 0.72360  0.14070  0.65640  Biso   1.000  H
  H127     1.0000 0.52640  0.39070  0.90640  Biso   1.000  H
  H128     1.0000 0.97360  0.10930  0.90640  Biso   1.000  H
  H129     1.0000 0.76600  0.34330  0.55070  Biso   1.000  H
  H130     1.0000 0.23400  0.65670  0.55070  Biso   1.000  H
  H131     1.0000 0.01600  0.90670  0.80070  Biso   1.000  H
  H132     1.0000 0.48400  0.59330  0.80070  Biso   1.000  H
  H133     1.0000 0.76600  0.84330  0.05070  Biso   1.000  H
  H134     1.0000 0.23400  0.15670  0.05070  Biso   1.000  H
  H135     1.0000 0.01600  0.40670  0.30070  Biso   1.000  H
  H136     1.0000 0.48400  0.09330  0.30070  Biso   1.000  H
  H137     1.0000 0.26600  0.34330  0.05070  Biso   1.000  H
  H138     1.0000 0.73400  0.65670  0.05070  Biso   1.000  H
  H139     1.0000 0.51600  0.90670  0.30070  Biso   1.000  H
  H140     1.0000 0.98400  0.59330  0.30070  Biso   1.000  H
  H141     1.0000 0.26600  0.84330  0.55070  Biso   1.000  H
  H142     1.0000 0.73400  0.15670  0.55070  Biso   1.000  H
  H143     1.0000 0.51600  0.40670  0.80070  Biso   1.000  H
  H144     1.0000 0.98400  0.09330  0.80070  Biso   1.000  H
  H145     1.0000 0.72290  0.36080  0.61720  Biso   1.000  H
  H146     1.0000 0.27710  0.63920  0.61720  Biso   1.000  H
  H147     1.0000 0.97290  0.88920  0.86720  Biso   1.000  H
  H148     1.0000 0.52710  0.61080  0.86720  Biso   1.000  H
  H149     1.0000 0.72290  0.86080  0.11720  Biso   1.000  H
  H150     1.0000 0.27710  0.13920  0.11720  Biso   1.000  H
  H151     1.0000 0.97290  0.38920  0.36720  Biso   1.000  H
  H152     1.0000 0.52710  0.11080  0.36720  Biso   1.000  H
  H153     1.0000 0.22290  0.36080  0.11720  Biso   1.000  H
  H154     1.0000 0.77710  0.63920  0.11720  Biso   1.000  H
  H155     1.0000 0.47290  0.88920  0.36720  Biso   1.000  H
  H156     1.0000 0.02710  0.61080  0.36720  Biso   1.000  H
  H157     1.0000 0.22290  0.86080  0.61720  Biso   1.000  H
  H158     1.0000 0.77710  0.13920  0.61720  Biso   1.000  H
  H159     1.0000 0.47290  0.38920  0.86720  Biso   1.000  H
  H160     1.0000 0.02710  0.11080  0.86720  Biso   1.000  H
  C241     1.0000 0.86048  0.50788  0.43780  Biso   1.000  C
  C242     1.0000 0.13952  0.49212  0.43780  Biso   1.000  C
  C243     1.0000 0.11048  0.74212  0.68780  Biso   1.000  C
  C244     1.0000 0.38952  0.75788  0.68780  Biso   1.000  C
  C245     1.0000 0.86048  0.00788  0.93780  Biso   1.000  C
  C246     1.0000 0.13952  0.99212  0.93780  Biso   1.000  C
  C247     1.0000 0.11048  0.24212  0.18780  Biso   1.000  C
  C248     1.0000 0.38952  0.25788  0.18780  Biso   1.000  C
  C249     1.0000 0.36048  0.50788  0.93780  Biso   1.000  C
  C250     1.0000 0.63952  0.49212  0.93780  Biso   1.000  C
  C251     1.0000 0.61048  0.74212  0.18780  Biso   1.000  C
  C252     1.0000 0.88952  0.75788  0.18780  Biso   1.000  C
  C253     1.0000 0.36048  0.00788  0.43780  Biso   1.000  C
  C254     1.0000 0.63952  0.99212  0.43780  Biso   1.000  C
  C255     1.0000 0.61048  0.24212  0.68780  Biso   1.000  C
  C256     1.0000 0.88952  0.25788  0.68780  Biso   1.000  C
  H161     1.0000 0.85770  0.49470  0.37400  Biso   1.000  H
  H162     1.0000 0.14230  0.50530  0.37400  Biso   1.000  H
  H163     1.0000 0.10770  0.75530  0.62400  Biso   1.000  H
  H164     1.0000 0.39230  0.74470  0.62400  Biso   1.000  H
  H165     1.0000 0.85770  0.99470  0.87400  Biso   1.000  H
  H166     1.0000 0.14230  0.00530  0.87400  Biso   1.000  H
  H167     1.0000 0.10770  0.25530  0.12400  Biso   1.000  H
  H168     1.0000 0.39230  0.24470  0.12400  Biso   1.000  H
  H169     1.0000 0.35770  0.49470  0.87400  Biso   1.000  H
  H170     1.0000 0.64230  0.50530  0.87400  Biso   1.000  H
  H171     1.0000 0.60770  0.75530  0.12400  Biso   1.000  H
  H172     1.0000 0.89230  0.74470  0.12400  Biso   1.000  H
  H173     1.0000 0.35770  0.99470  0.37400  Biso   1.000  H
  H174     1.0000 0.64230  0.00530  0.37400  Biso   1.000  H
  H175     1.0000 0.60770  0.25530  0.62400  Biso   1.000  H
  H176     1.0000 0.89230  0.24470  0.62400  Biso   1.000  H
  H177     1.0000 0.88780  0.49060  0.46820  Biso   1.000  H
  H178     1.0000 0.11220  0.50940  0.46820  Biso   1.000  H
  H179     1.0000 0.13780  0.75940  0.71820  Biso   1.000  H
  H180     1.0000 0.36220  0.74060  0.71820  Biso   1.000  H
  H181     1.0000 0.88780  0.99060  0.96820  Biso   1.000  H
  H182     1.0000 0.11220  0.00940  0.96820  Biso   1.000  H
  H183     1.0000 0.13780  0.25940  0.21820  Biso   1.000  H
  H184     1.0000 0.36220  0.24060  0.21820  Biso   1.000  H
  H185     1.0000 0.38780  0.49060  0.96820  Biso   1.000  H
  H186     1.0000 0.61220  0.50940  0.96820  Biso   1.000  H
  H187     1.0000 0.63780  0.75940  0.21820  Biso   1.000  H
  H188     1.0000 0.86220  0.74060  0.21820  Biso   1.000  H
  H189     1.0000 0.38780  0.99060  0.46820  Biso   1.000  H
  H190     1.0000 0.61220  0.00940  0.46820  Biso   1.000  H
  H191     1.0000 0.63780  0.25940  0.71820  Biso   1.000  H
  H192     1.0000 0.86220  0.24060  0.71820  Biso   1.000  H
  H193     1.0000 0.86530  0.54680  0.43710  Biso   1.000  H
  H194     1.0000 0.13470  0.45320  0.43710  Biso   1.000  H
  H195     1.0000 0.11530  0.70320  0.68710  Biso   1.000  H
  H196     1.0000 0.38470  0.79680  0.68710  Biso   1.000  H
  H197     1.0000 0.86530  0.04680  0.93710  Biso   1.000  H
  H198     1.0000 0.13470  0.95320  0.93710  Biso   1.000  H
  H199     1.0000 0.11530  0.20320  0.18710  Biso   1.000  H
  H200     1.0000 0.38470  0.29680  0.18710  Biso   1.000  H
  H201     1.0000 0.36530  0.54680  0.93710  Biso   1.000  H
  H202     1.0000 0.63470  0.45320  0.93710  Biso   1.000  H
  H203     1.0000 0.61530  0.70320  0.18710  Biso   1.000  H
  H204     1.0000 0.88470  0.79680  0.18710  Biso   1.000  H
  H205     1.0000 0.36530  0.04680  0.43710  Biso   1.000  H
  H206     1.0000 0.63470  0.95320  0.43710  Biso   1.000  H
  H207     1.0000 0.61530  0.20320  0.68710  Biso   1.000  H
  H208     1.0000 0.88470  0.29680  0.68710  Biso   1.000  H
  C257     1.0000 0.60056  0.72879  0.63160  Biso   1.000  C
  C258     1.0000 0.39944  0.27121  0.63160  Biso   1.000  C
  C259     1.0000 0.85056  0.52121  0.88160  Biso   1.000  C
  C260     1.0000 0.64944  0.97879  0.88160  Biso   1.000  C
  C261     1.0000 0.60056  0.22879  0.13160  Biso   1.000  C
  C262     1.0000 0.39944  0.77121  0.13160  Biso   1.000  C
  C263     1.0000 0.85056  0.02121  0.38160  Biso   1.000  C
  C264     1.0000 0.64944  0.47879  0.38160  Biso   1.000  C
  C265     1.0000 0.10056  0.72879  0.13160  Biso   1.000  C
  C266     1.0000 0.89944  0.27121  0.13160  Biso   1.000  C
  C267     1.0000 0.35056  0.52121  0.38160  Biso   1.000  C
  C268     1.0000 0.14944  0.97879  0.38160  Biso   1.000  C
  C269     1.0000 0.10056  0.22879  0.63160  Biso   1.000  C
  C270     1.0000 0.89944  0.77121  0.63160  Biso   1.000  C
  C271     1.0000 0.35056  0.02121  0.88160  Biso   1.000  C
  C272     1.0000 0.14944  0.47879  0.88160  Biso   1.000  C
  H209     1.0000 0.59950  0.76690  0.61550  Biso   1.000  H
  H210     1.0000 0.40050  0.23310  0.61550  Biso   1.000  H
  H211     1.0000 0.84950  0.48310  0.86550  Biso   1.000  H
  H212     1.0000 0.65050  0.01690  0.86550  Biso   1.000  H
  H213     1.0000 0.59950  0.26690  0.11550  Biso   1.000  H
  H214     1.0000 0.40050  0.73310  0.11550  Biso   1.000  H
  H215     1.0000 0.84950  0.98310  0.36550  Biso   1.000  H
  H216     1.0000 0.65050  0.51690  0.36550  Biso   1.000  H
  H217     1.0000 0.09950  0.76690  0.11550  Biso   1.000  H
  H218     1.0000 0.90050  0.23310  0.11550  Biso   1.000  H
  H219     1.0000 0.34950  0.48310  0.36550  Biso   1.000  H
  H220     1.0000 0.15050  0.01690  0.36550  Biso   1.000  H
  H221     1.0000 0.09950  0.26690  0.61550  Biso   1.000  H
  H222     1.0000 0.90050  0.73310  0.61550  Biso   1.000  H
  H223     1.0000 0.34950  0.98310  0.86550  Biso   1.000  H
  H224     1.0000 0.15050  0.51690  0.86550  Biso   1.000  H
  H225     1.0000 0.63390  0.71670  0.63340  Biso   1.000  H
  H226     1.0000 0.36610  0.28330  0.63340  Biso   1.000  H
  H227     1.0000 0.88390  0.53330  0.88340  Biso   1.000  H
  H228     1.0000 0.61610  0.96670  0.88340  Biso   1.000  H
  H229     1.0000 0.63390  0.21670  0.13340  Biso   1.000  H
  H230     1.0000 0.36610  0.78330  0.13340  Biso   1.000  H
  H231     1.0000 0.88390  0.03330  0.38340  Biso   1.000  H
  H232     1.0000 0.61610  0.46670  0.38340  Biso   1.000  H
  H233     1.0000 0.13390  0.71670  0.13340  Biso   1.000  H
  H234     1.0000 0.86610  0.28330  0.13340  Biso   1.000  H
  H235     1.0000 0.38390  0.53330  0.38340  Biso   1.000  H
  H236     1.0000 0.11610  0.96670  0.38340  Biso   1.000  H
  H237     1.0000 0.13390  0.21670  0.63340  Biso   1.000  H
  H238     1.0000 0.86610  0.78330  0.63340  Biso   1.000  H
  H239     1.0000 0.38390  0.03330  0.88340  Biso   1.000  H
  H240     1.0000 0.11610  0.46670  0.88340  Biso   1.000  H
  H241     1.0000 0.58580  0.72340  0.69260  Biso   1.000  H
  H242     1.0000 0.41420  0.27660  0.69260  Biso   1.000  H
  H243     1.0000 0.83580  0.52660  0.94260  Biso   1.000  H
  H244     1.0000 0.66420  0.97340  0.94260  Biso   1.000  H
  H245     1.0000 0.58580  0.22340  0.19260  Biso   1.000  H
  H246     1.0000 0.41420  0.77660  0.19260  Biso   1.000  H
  H247     1.0000 0.83580  0.02660  0.44260  Biso   1.000  H
  H248     1.0000 0.66420  0.47340  0.44260  Biso   1.000  H
  H249     1.0000 0.08580  0.72340  0.19260  Biso   1.000  H
  H250     1.0000 0.91420  0.27660  0.19260  Biso   1.000  H
  H251     1.0000 0.33580  0.52660  0.44260  Biso   1.000  H
  H252     1.0000 0.16420  0.97340  0.44260  Biso   1.000  H
  H253     1.0000 0.08580  0.22340  0.69260  Biso   1.000  H
  H254     1.0000 0.91420  0.77660  0.69260  Biso   1.000  H
  H255     1.0000 0.33580  0.02660  0.94260  Biso   1.000  H
  H256     1.0000 0.16420  0.47340  0.94260  Biso   1.000  H
  C273     1.0000 0.57827  0.55590  0.65800  Biso   1.000  C
  C274     1.0000 0.42173  0.44410  0.65800  Biso   1.000  C
  C275     1.0000 0.82827  0.69410  0.90800  Biso   1.000  C
  C276     1.0000 0.67173  0.80590  0.90800  Biso   1.000  C
  C277     1.0000 0.57827  0.05590  0.15800  Biso   1.000  C
  C278     1.0000 0.42173  0.94410  0.15800  Biso   1.000  C
  C279     1.0000 0.82827  0.19410  0.40800  Biso   1.000  C
  C280     1.0000 0.67173  0.30590  0.40800  Biso   1.000  C
  C281     1.0000 0.07827  0.55590  0.15800  Biso   1.000  C
  C282     1.0000 0.92173  0.44410  0.15800  Biso   1.000  C
  C283     1.0000 0.32827  0.69410  0.40800  Biso   1.000  C
  C284     1.0000 0.17173  0.80590  0.40800  Biso   1.000  C
  C285     1.0000 0.07827  0.05590  0.65800  Biso   1.000  C
  C286     1.0000 0.92173  0.94410  0.65800  Biso   1.000  C
  C287     1.0000 0.32827  0.19410  0.90800  Biso   1.000  C
  C288     1.0000 0.17173  0.30590  0.90800  Biso   1.000  C
  H257     1.0000 0.55240  0.54810  0.61430  Biso   1.000  H
  H258     1.0000 0.44760  0.45190  0.61430  Biso   1.000  H
  H259     1.0000 0.80240  0.70190  0.86430  Biso   1.000  H
  H260     1.0000 0.69760  0.79810  0.86430  Biso   1.000  H
  H261     1.0000 0.55240  0.04810  0.11430  Biso   1.000  H
  H262     1.0000 0.44760  0.95190  0.11430  Biso   1.000  H
  H263     1.0000 0.80240  0.20190  0.36430  Biso   1.000  H
  H264     1.0000 0.69760  0.29810  0.36430  Biso   1.000  H
  H265     1.0000 0.05240  0.54810  0.11430  Biso   1.000  H
  H266     1.0000 0.94760  0.45190  0.11430  Biso   1.000  H
  H267     1.0000 0.30240  0.70190  0.36430  Biso   1.000  H
  H268     1.0000 0.19760  0.79810  0.36430  Biso   1.000  H
  H269     1.0000 0.05240  0.04810  0.61430  Biso   1.000  H
  H270     1.0000 0.94760  0.95190  0.61430  Biso   1.000  H
  H271     1.0000 0.30240  0.20190  0.86430  Biso   1.000  H
  H272     1.0000 0.19760  0.29810  0.86430  Biso   1.000  H
  H273     1.0000 0.56990  0.58750  0.69490  Biso   1.000  H
  H274     1.0000 0.43010  0.41250  0.69490  Biso   1.000  H
  H275     1.0000 0.81990  0.66250  0.94490  Biso   1.000  H
  H276     1.0000 0.68010  0.83750  0.94490  Biso   1.000  H
  H277     1.0000 0.56990  0.08750  0.19490  Biso   1.000  H
  H278     1.0000 0.43010  0.91250  0.19490  Biso   1.000  H
  H279     1.0000 0.81990  0.16250  0.44490  Biso   1.000  H
  H280     1.0000 0.68010  0.33750  0.44490  Biso   1.000  H
  H281     1.0000 0.06990  0.58750  0.19490  Biso   1.000  H
  H282     1.0000 0.93010  0.41250  0.19490  Biso   1.000  H
  H283     1.0000 0.31990  0.66250  0.44490  Biso   1.000  H
  H284     1.0000 0.18010  0.83750  0.44490  Biso   1.000  H
  H285     1.0000 0.06990  0.08750  0.69490  Biso   1.000  H
  H286     1.0000 0.93010  0.91250  0.69490  Biso   1.000  H
  H287     1.0000 0.31990  0.16250  0.94490  Biso   1.000  H
  H288     1.0000 0.18010  0.33750  0.94490  Biso   1.000  H
  H289     1.0000 0.58290  0.52520  0.69940  Biso   1.000  H
  H290     1.0000 0.41710  0.47480  0.69940  Biso   1.000  H
  H291     1.0000 0.83290  0.72480  0.94940  Biso   1.000  H
  H292     1.0000 0.66710  0.77520  0.94940  Biso   1.000  H
  H293     1.0000 0.58290  0.02520  0.19940  Biso   1.000  H
  H294     1.0000 0.41710  0.97480  0.19940  Biso   1.000  H
  H295     1.0000 0.83290  0.22480  0.44940  Biso   1.000  H
  H296     1.0000 0.66710  0.27520  0.44940  Biso   1.000  H
  H297     1.0000 0.08290  0.52520  0.19940  Biso   1.000  H
  H298     1.0000 0.91710  0.47480  0.19940  Biso   1.000  H
  H299     1.0000 0.33290  0.72480  0.44940  Biso   1.000  H
  H300     1.0000 0.16710  0.77520  0.44940  Biso   1.000  H
  H301     1.0000 0.08290  0.02520  0.69940  Biso   1.000  H
  H302     1.0000 0.91710  0.97480  0.69940  Biso   1.000  H
  H303     1.0000 0.33290  0.22480  0.94940  Biso   1.000  H
  H304     1.0000 0.16710  0.27520  0.94940  Biso   1.000  H
  C289     1.0000 0.89997  0.41450  0.64790  Biso   1.000  C
  C290     1.0000 0.10003  0.58550  0.64790  Biso   1.000  C
  C291     1.0000 0.14997  0.83550  0.89790  Biso   1.000  C
  C292     1.0000 0.35003  0.66450  0.89790  Biso   1.000  C
  C293     1.0000 0.89997  0.91450  0.14790  Biso   1.000  C
  C294     1.0000 0.10003  0.08550  0.14790  Biso   1.000  C
  C295     1.0000 0.14997  0.33550  0.39790  Biso   1.000  C
  C296     1.0000 0.35003  0.16450  0.39790  Biso   1.000  C
  C297     1.0000 0.39997  0.41450  0.14790  Biso   1.000  C
  C298     1.0000 0.60003  0.58550  0.14790  Biso   1.000  C
  C299     1.0000 0.64997  0.83550  0.39790  Biso   1.000  C
  C300     1.0000 0.85003  0.66450  0.39790  Biso   1.000  C
  C301     1.0000 0.39997  0.91450  0.64790  Biso   1.000  C
  C302     1.0000 0.60003  0.08550  0.64790  Biso   1.000  C
  C303     1.0000 0.64997  0.33550  0.89790  Biso   1.000  C
  C304     1.0000 0.85003  0.16450  0.89790  Biso   1.000  C
  H305     1.0000 0.92330  0.39160  0.67950  Biso   1.000  H
  H306     1.0000 0.07670  0.60840  0.67950  Biso   1.000  H
  H307     1.0000 0.17330  0.85840  0.92950  Biso   1.000  H
  H308     1.0000 0.32670  0.64160  0.92950  Biso   1.000  H
  H309     1.0000 0.92330  0.89160  0.17950  Biso   1.000  H
  H310     1.0000 0.07670  0.10840  0.17950  Biso   1.000  H
  H311     1.0000 0.17330  0.35840  0.42950  Biso   1.000  H
  H312     1.0000 0.32670  0.14160  0.42950  Biso   1.000  H
  H313     1.0000 0.42330  0.39160  0.17950  Biso   1.000  H
  H314     1.0000 0.57670  0.60840  0.17950  Biso   1.000  H
  H315     1.0000 0.67330  0.85840  0.42950  Biso   1.000  H
  H316     1.0000 0.82670  0.64160  0.42950  Biso   1.000  H
  H317     1.0000 0.42330  0.89160  0.67950  Biso   1.000  H
  H318     1.0000 0.57670  0.10840  0.67950  Biso   1.000  H
  H319     1.0000 0.67330  0.35840  0.92950  Biso   1.000  H
  H320     1.0000 0.82670  0.14160  0.92950  Biso   1.000  H
  H321     1.0000 0.87180  0.41890  0.68750  Biso   1.000  H
  H322     1.0000 0.12820  0.58110  0.68750  Biso   1.000  H
  H323     1.0000 0.12180  0.83110  0.93750  Biso   1.000  H
  H324     1.0000 0.37820  0.66890  0.93750  Biso   1.000  H
  H325     1.0000 0.87180  0.91890  0.18750  Biso   1.000  H
  H326     1.0000 0.12820  0.08110  0.18750  Biso   1.000  H
  H327     1.0000 0.12180  0.33110  0.43750  Biso   1.000  H
  H328     1.0000 0.37820  0.16890  0.43750  Biso   1.000  H
  H329     1.0000 0.37180  0.41890  0.18750  Biso   1.000  H
  H330     1.0000 0.62820  0.58110  0.18750  Biso   1.000  H
  H331     1.0000 0.62180  0.83110  0.43750  Biso   1.000  H
  H332     1.0000 0.87820  0.66890  0.43750  Biso   1.000  H
  H333     1.0000 0.37180  0.91890  0.68750  Biso   1.000  H
  H334     1.0000 0.62820  0.08110  0.68750  Biso   1.000  H
  H335     1.0000 0.62180  0.33110  0.93750  Biso   1.000  H
  H336     1.0000 0.87820  0.16890  0.93750  Biso   1.000  H
  H337     1.0000 0.91430  0.44960  0.63560  Biso   1.000  H
  H338     1.0000 0.08570  0.55040  0.63560  Biso   1.000  H
  H339     1.0000 0.16430  0.80040  0.88560  Biso   1.000  H
  H340     1.0000 0.33570  0.69960  0.88560  Biso   1.000  H
  H341     1.0000 0.91430  0.94960  0.13560  Biso   1.000  H
  H342     1.0000 0.08570  0.05040  0.13560  Biso   1.000  H
  H343     1.0000 0.16430  0.30040  0.38560  Biso   1.000  H
  H344     1.0000 0.33570  0.19960  0.38560  Biso   1.000  H
  H345     1.0000 0.41430  0.44960  0.13560  Biso   1.000  H
  H346     1.0000 0.58570  0.55040  0.13560  Biso   1.000  H
  H347     1.0000 0.66430  0.80040  0.38560  Biso   1.000  H
  H348     1.0000 0.83570  0.69960  0.38560  Biso   1.000  H
  H349     1.0000 0.41430  0.94960  0.63560  Biso   1.000  H
  H350     1.0000 0.58570  0.05040  0.63560  Biso   1.000  H
  H351     1.0000 0.66430  0.30040  0.88560  Biso   1.000  H
  H352     1.0000 0.83570  0.19960  0.88560  Biso   1.000  H
  C305     1.0000 0.81565  0.35690  0.34120  Biso   1.000  C
  C306     1.0000 0.18435  0.64310  0.34120  Biso   1.000  C
  C307     1.0000 0.06565  0.89310  0.59120  Biso   1.000  C
  C308     1.0000 0.43435  0.60690  0.59120  Biso   1.000  C
  C309     1.0000 0.81565  0.85690  0.84120  Biso   1.000  C
  C310     1.0000 0.18435  0.14310  0.84120  Biso   1.000  C
  C311     1.0000 0.06565  0.39310  0.09120  Biso   1.000  C
  C312     1.0000 0.43435  0.10690  0.09120  Biso   1.000  C
  C313     1.0000 0.31565  0.35690  0.84120  Biso   1.000  C
  C314     1.0000 0.68435  0.64310  0.84120  Biso   1.000  C
  C315     1.0000 0.56565  0.89310  0.09120  Biso   1.000  C
  C316     1.0000 0.93435  0.60690  0.09120  Biso   1.000  C
  C317     1.0000 0.31565  0.85690  0.34120  Biso   1.000  C
  C318     1.0000 0.68435  0.14310  0.34120  Biso   1.000  C
  C319     1.0000 0.56565  0.39310  0.59120  Biso   1.000  C
  C320     1.0000 0.93435  0.10690  0.59120  Biso   1.000  C
  H353     1.0000 0.83170  0.37130  0.28610  Biso   1.000  H
  H354     1.0000 0.16830  0.62870  0.28610  Biso   1.000  H
  H355     1.0000 0.08170  0.87870  0.53610  Biso   1.000  H
  H356     1.0000 0.41830  0.62130  0.53610  Biso   1.000  H
  H357     1.0000 0.83170  0.87130  0.78610  Biso   1.000  H
  H358     1.0000 0.16830  0.12870  0.78610  Biso   1.000  H
  H359     1.0000 0.08170  0.37870  0.03610  Biso   1.000  H
  H360     1.0000 0.41830  0.12130  0.03610  Biso   1.000  H
  H361     1.0000 0.33170  0.37130  0.78610  Biso   1.000  H
  H362     1.0000 0.66830  0.62870  0.78610  Biso   1.000  H
  H363     1.0000 0.58170  0.87870  0.03610  Biso   1.000  H
  H364     1.0000 0.91830  0.62130  0.03610  Biso   1.000  H
  H365     1.0000 0.33170  0.87130  0.28610  Biso   1.000  H
  H366     1.0000 0.66830  0.12870  0.28610  Biso   1.000  H
  H367     1.0000 0.58170  0.37870  0.53610  Biso   1.000  H
  H368     1.0000 0.91830  0.12130  0.53610  Biso   1.000  H
  H369     1.0000 0.78550  0.37610  0.35100  Biso   1.000  H
  H370     1.0000 0.21450  0.62390  0.35100  Biso   1.000  H
  H371     1.0000 0.03550  0.87390  0.60100  Biso   1.000  H
  H372     1.0000 0.46450  0.62610  0.60100  Biso   1.000  H
  H373     1.0000 0.78550  0.87610  0.85100  Biso   1.000  H
  H374     1.0000 0.21450  0.12390  0.85100  Biso   1.000  H
  H375     1.0000 0.03550  0.37390  0.10100  Biso   1.000  H
  H376     1.0000 0.46450  0.12610  0.10100  Biso   1.000  H
  H377     1.0000 0.28550  0.37610  0.85100  Biso   1.000  H
  H378     1.0000 0.71450  0.62390  0.85100  Biso   1.000  H
  H379     1.0000 0.53550  0.87390  0.10100  Biso   1.000  H
  H380     1.0000 0.96450  0.62610  0.10100  Biso   1.000  H
  H381     1.0000 0.28550  0.87610  0.35100  Biso   1.000  H
  H382     1.0000 0.71450  0.12390  0.35100  Biso   1.000  H
  H383     1.0000 0.53550  0.37390  0.60100  Biso   1.000  H
  H384     1.0000 0.96450  0.12610  0.60100  Biso   1.000  H
  H385     1.0000 0.80910  0.31870  0.33210  Biso   1.000  H
  H386     1.0000 0.19090  0.68130  0.33210  Biso   1.000  H
  H387     1.0000 0.05910  0.93130  0.58210  Biso   1.000  H
  H388     1.0000 0.44090  0.56870  0.58210  Biso   1.000  H
  H389     1.0000 0.80910  0.81870  0.83210  Biso   1.000  H
  H390     1.0000 0.19090  0.18130  0.83210  Biso   1.000  H
  H391     1.0000 0.05910  0.43130  0.08210  Biso   1.000  H
  H392     1.0000 0.44090  0.06870  0.08210  Biso   1.000  H
  H393     1.0000 0.30910  0.31870  0.83210  Biso   1.000  H
  H394     1.0000 0.69090  0.68130  0.83210  Biso   1.000  H
  H395     1.0000 0.55910  0.93130  0.08210  Biso   1.000  H
  H396     1.0000 0.94090  0.56870  0.08210  Biso   1.000  H
  H397     1.0000 0.30910  0.81870  0.33210  Biso   1.000  H
  H398     1.0000 0.69090  0.18130  0.33210  Biso   1.000  H
  H399     1.0000 0.55910  0.43130  0.58210  Biso   1.000  H
  H400     1.0000 0.94090  0.06870  0.58210  Biso   1.000  H
  O65      1.0000 0.50831  0.82201  0.55966  Biso   1.000  O
  O66      1.0000 0.49169  0.17799  0.55966  Biso   1.000  O
  O67      1.0000 0.75831  0.42799  0.80966  Biso   1.000  O
  O68      1.0000 0.74169  0.07201  0.80966  Biso   1.000  O
  O69      1.0000 0.50831  0.32201  0.05966  Biso   1.000  O
  O70      1.0000 0.49169  0.67799  0.05966  Biso   1.000  O
  O71      1.0000 0.75831  0.92799  0.30966  Biso   1.000  O
  O72      1.0000 0.74169  0.57201  0.30966  Biso   1.000  O
  O73      1.0000 0.00831  0.82201  0.05966  Biso   1.000  O
  O74      1.0000 0.99169  0.17799  0.05966  Biso   1.000  O
  O75      1.0000 0.25831  0.42799  0.30966  Biso   1.000  O
  O76      1.0000 0.24169  0.07201  0.30966  Biso   1.000  O
  O77      1.0000 0.00831  0.32201  0.55966  Biso   1.000  O
  O78      1.0000 0.99169  0.67799  0.55966  Biso   1.000  O
  O79      1.0000 0.25831  0.92799  0.80966  Biso   1.000  O
  O80      1.0000 0.24169  0.57201  0.80966  Biso   1.000  O
  H401     1.0000 0.51250  0.82250  0.61940  Biso   1.000  H
  H402     1.0000 0.48750  0.17750  0.61940  Biso   1.000  H
  H403     1.0000 0.76250  0.42750  0.86940  Biso   1.000  H
  H404     1.0000 0.73750  0.07250  0.86940  Biso   1.000  H
  H405     1.0000 0.51250  0.32250  0.11940  Biso   1.000  H
  H406     1.0000 0.48750  0.67750  0.11940  Biso   1.000  H
  H407     1.0000 0.76250  0.92750  0.36940  Biso   1.000  H
  H408     1.0000 0.73750  0.57250  0.36940  Biso   1.000  H
  H409     1.0000 0.01250  0.82250  0.11940  Biso   1.000  H
  H410     1.0000 0.98750  0.17750  0.11940  Biso   1.000  H
  H411     1.0000 0.26250  0.42750  0.36940  Biso   1.000  H
  H412     1.0000 0.23750  0.07250  0.36940  Biso   1.000  H
  H413     1.0000 0.01250  0.32250  0.61940  Biso   1.000  H
  H414     1.0000 0.98750  0.67750  0.61940  Biso   1.000  H
  H415     1.0000 0.26250  0.92750  0.86940  Biso   1.000  H
  H416     1.0000 0.23750  0.57250  0.86940  Biso   1.000  H
  H417     1.0000 0.47810  0.82590  0.54730  Biso   1.000  H
  H418     1.0000 0.52190  0.17410  0.54730  Biso   1.000  H
  H419     1.0000 0.72810  0.42410  0.79730  Biso   1.000  H
  H420     1.0000 0.77190  0.07590  0.79730  Biso   1.000  H
  H421     1.0000 0.47810  0.32590  0.04730  Biso   1.000  H
  H422     1.0000 0.52190  0.67410  0.04730  Biso   1.000  H
  H423     1.0000 0.72810  0.92410  0.29730  Biso   1.000  H
  H424     1.0000 0.77190  0.57590  0.29730  Biso   1.000  H
  H425     1.0000 0.97810  0.82590  0.04730  Biso   1.000  H
  H426     1.0000 0.02190  0.17410  0.04730  Biso   1.000  H
  H427     1.0000 0.22810  0.42410  0.29730  Biso   1.000  H
  H428     1.0000 0.27190  0.07590  0.29730  Biso   1.000  H
  H429     1.0000 0.97810  0.32590  0.54730  Biso   1.000  H
  H430     1.0000 0.02190  0.67410  0.54730  Biso   1.000  H
  H431     1.0000 0.22810  0.92410  0.79730  Biso   1.000  H
  H432     1.0000 0.27190  0.57590  0.79730  Biso   1.000  H
