data_image0
_cell_length_a       15.929
_cell_length_b       15.929
_cell_length_c       21.291
_cell_angle_alpha    90
_cell_angle_beta     90
_cell_angle_gamma    120

_symmetry_space_group_name_H-M    "P 1"
_symmetry_int_tables_number       1

loop_
  _symmetry_equiv_pos_as_xyz
  'x, y, z'

loop_
  _atom_site_label
  _atom_site_occupancy
  _atom_site_fract_x
  _atom_site_fract_y
  _atom_site_fract_z
  _atom_site_thermal_displace_type
  _atom_site_B_iso_or_equiv
  _atom_site_type_symbol
  Cu1      1.0000 0.50000  0.50000  0.50000  Biso   1.000  Cu
  Cu2      1.0000 0.50000  0.00000  0.50000  Biso   1.000  Cu
  Cu3      1.0000 0.00000  0.50000  0.50000  Biso   1.000  Cu
  Cu4      1.0000 0.33455  0.16300  0.49963  Biso   1.000  Cu
  Cu5      1.0000 0.83700  0.17155  0.49963  Biso   1.000  Cu
  Cu6      1.0000 0.82845  0.66545  0.49963  Biso   1.000  Cu
  Cu7      1.0000 0.66545  0.83700  0.50037  Biso   1.000  Cu
  Cu8      1.0000 0.16300  0.82845  0.50037  Biso   1.000  Cu
  Cu9      1.0000 0.17155  0.33455  0.50037  Biso   1.000  Cu
  C1       1.0000 0.33742  0.33172  0.50108  Biso   1.000  C
  C2       1.0000 0.66828  0.00570  0.50108  Biso   1.000  C
  C3       1.0000 0.99430  0.66258  0.50108  Biso   1.000  C
  C4       1.0000 0.66258  0.66828  0.49892  Biso   1.000  C
  C5       1.0000 0.33172  0.99430  0.49892  Biso   1.000  C
  C6       1.0000 0.00570  0.33742  0.49892  Biso   1.000  C
  O1       1.0000 0.31259  0.39680  0.49950  Biso   1.000  O
  O2       1.0000 0.60320  0.91579  0.49950  Biso   1.000  O
  O3       1.0000 0.08421  0.68741  0.49950  Biso   1.000  O
  O4       1.0000 0.68741  0.60320  0.50050  Biso   1.000  O
  O5       1.0000 0.39680  0.08421  0.50050  Biso   1.000  O
  O6       1.0000 0.91579  0.31259  0.50050  Biso   1.000  O
  O7       1.0000 0.27242  0.24211  0.49928  Biso   1.000  O
  O8       1.0000 0.75789  0.03031  0.49928  Biso   1.000  O
  O9       1.0000 0.96969  0.72758  0.49928  Biso   1.000  O
  O10      1.0000 0.72758  0.75789  0.50072  Biso   1.000  O
  O11      1.0000 0.24211  0.96969  0.50072  Biso   1.000  O
  O12      1.0000 0.03031  0.27242  0.50072  Biso   1.000  O
  O13      1.0000 0.42782  0.35778  0.50487  Biso   1.000  O
  O14      1.0000 0.64222  0.07004  0.50487  Biso   1.000  O
  O15      1.0000 0.92996  0.57218  0.50487  Biso   1.000  O
  O16      1.0000 0.57218  0.64222  0.49513  Biso   1.000  O
  O17      1.0000 0.35778  0.92996  0.49513  Biso   1.000  O
  O18      1.0000 0.07004  0.42782  0.49513  Biso   1.000  O
  N1       1.0000 0.49310  0.49630  0.40680  Biso   1.000  N
  N2       1.0000 0.50370  0.99680  0.40680  Biso   1.000  N
  N3       1.0000 0.00320  0.50690  0.40680  Biso   1.000  N
  N4       1.0000 0.50690  0.50370  0.59320  Biso   1.000  N
  N5       1.0000 0.49630  0.00320  0.59320  Biso   1.000  N
  N6       1.0000 0.99680  0.49310  0.59320  Biso   1.000  N
  C7       1.0000 0.50200  0.42560  0.37830  Biso   1.000  C
  C8       1.0000 0.57440  0.07640  0.37830  Biso   1.000  C
  C9       1.0000 0.92360  0.49800  0.37830  Biso   1.000  C
  C10      1.0000 0.49800  0.57440  0.62170  Biso   1.000  C
  C11      1.0000 0.42560  0.92360  0.62170  Biso   1.000  C
  C12      1.0000 0.07640  0.50200  0.62170  Biso   1.000  C
  H1       1.0000 0.51460  0.38360  0.40320  Biso   1.000  H
  H2       1.0000 0.61640  0.13100  0.40320  Biso   1.000  H
  H3       1.0000 0.86900  0.48540  0.40320  Biso   1.000  H
  H4       1.0000 0.48540  0.61640  0.59680  Biso   1.000  H
  H5       1.0000 0.38360  0.86900  0.59680  Biso   1.000  H
  H6       1.0000 0.13100  0.51460  0.59680  Biso   1.000  H
  C13      1.0000 0.49300  0.41200  0.31170  Biso   1.000  C
  C14      1.0000 0.58800  0.08100  0.31170  Biso   1.000  C
  C15      1.0000 0.91900  0.50700  0.31170  Biso   1.000  C
  C16      1.0000 0.50700  0.58800  0.68830  Biso   1.000  C
  C17      1.0000 0.41200  0.91900  0.68830  Biso   1.000  C
  C18      1.0000 0.08100  0.49300  0.68830  Biso   1.000  C
  H7       1.0000 0.49730  0.36060  0.29240  Biso   1.000  H
  H8       1.0000 0.63940  0.13670  0.29240  Biso   1.000  H
  H9       1.0000 0.86330  0.50270  0.29240  Biso   1.000  H
  H10      1.0000 0.50270  0.63940  0.70760  Biso   1.000  H
  H11      1.0000 0.36060  0.86330  0.70760  Biso   1.000  H
  H12      1.0000 0.13670  0.49730  0.70760  Biso   1.000  H
  C19      1.0000 0.47750  0.47680  0.27570  Biso   1.000  C
  C20      1.0000 0.52320  0.00070  0.27570  Biso   1.000  C
  C21      1.0000 0.99930  0.52250  0.27570  Biso   1.000  C
  C22      1.0000 0.52250  0.52320  0.72430  Biso   1.000  C
  C23      1.0000 0.47680  0.99930  0.72430  Biso   1.000  C
  C24      1.0000 0.00070  0.47750  0.72430  Biso   1.000  C
  C25      1.0000 0.47100  0.54980  0.30720  Biso   1.000  C
  C26      1.0000 0.45020  0.92120  0.30720  Biso   1.000  C
  C27      1.0000 0.07880  0.52900  0.30720  Biso   1.000  C
  C28      1.0000 0.52900  0.45020  0.69280  Biso   1.000  C
  C29      1.0000 0.54980  0.07880  0.69280  Biso   1.000  C
  C30      1.0000 0.92120  0.47100  0.69280  Biso   1.000  C
  H13      1.0000 0.46050  0.59480  0.28420  Biso   1.000  H
  H14      1.0000 0.40520  0.86570  0.28420  Biso   1.000  H
  H15      1.0000 0.13430  0.53950  0.28420  Biso   1.000  H
  H16      1.0000 0.53950  0.40520  0.71580  Biso   1.000  H
  H17      1.0000 0.59480  0.13430  0.71580  Biso   1.000  H
  H18      1.0000 0.86570  0.46050  0.71580  Biso   1.000  H
  C31      1.0000 0.47980  0.55720  0.37180  Biso   1.000  C
  C32      1.0000 0.44280  0.92260  0.37180  Biso   1.000  C
  C33      1.0000 0.07740  0.52020  0.37180  Biso   1.000  C
  C34      1.0000 0.52020  0.44280  0.62820  Biso   1.000  C
  C35      1.0000 0.55720  0.07740  0.62820  Biso   1.000  C
  C36      1.0000 0.92260  0.47980  0.62820  Biso   1.000  C
  H19      1.0000 0.47600  0.60850  0.39190  Biso   1.000  H
  H20      1.0000 0.39150  0.86750  0.39190  Biso   1.000  H
  H21      1.0000 0.13250  0.52400  0.39190  Biso   1.000  H
  H22      1.0000 0.52400  0.39150  0.60810  Biso   1.000  H
  H23      1.0000 0.60850  0.13250  0.60810  Biso   1.000  H
  H24      1.0000 0.86750  0.47600  0.60810  Biso   1.000  H
  C37      1.0000 0.46450  0.46010  0.20590  Biso   1.000  C
  C38      1.0000 0.53990  0.00440  0.20590  Biso   1.000  C
  C39      1.0000 0.99560  0.53550  0.20590  Biso   1.000  C
  C40      1.0000 0.53550  0.53990  0.79410  Biso   1.000  C
  C41      1.0000 0.46010  0.99560  0.79410  Biso   1.000  C
  C42      1.0000 0.00440  0.46450  0.79410  Biso   1.000  C
  N7       1.0000 0.41650  0.49460  0.17380  Biso   1.000  N
  N8       1.0000 0.50540  0.92190  0.17380  Biso   1.000  N
  N9       1.0000 0.07810  0.58350  0.17380  Biso   1.000  N
  N10      1.0000 0.58350  0.50540  0.82620  Biso   1.000  N
  N11      1.0000 0.49460  0.07810  0.82620  Biso   1.000  N
  N12      1.0000 0.92190  0.41650  0.82620  Biso   1.000  N
  C43      1.0000 0.40340  0.47670  0.10970  Biso   1.000  C
  C44      1.0000 0.52330  0.92670  0.10970  Biso   1.000  C
  C45      1.0000 0.07330  0.59660  0.10970  Biso   1.000  C
  C46      1.0000 0.59660  0.52330  0.89030  Biso   1.000  C
  C47      1.0000 0.47670  0.07330  0.89030  Biso   1.000  C
  C48      1.0000 0.92670  0.40340  0.89030  Biso   1.000  C
  H25      1.0000 0.36890  0.50030  0.08610  Biso   1.000  H
  H26      1.0000 0.49970  0.86860  0.08610  Biso   1.000  H
  H27      1.0000 0.13140  0.63110  0.08610  Biso   1.000  H
  H28      1.0000 0.63110  0.49970  0.91390  Biso   1.000  H
  H29      1.0000 0.50030  0.13140  0.91390  Biso   1.000  H
  H30      1.0000 0.86860  0.36890  0.91390  Biso   1.000  H
  C49      1.0000 0.43960  0.42580  0.08020  Biso   1.000  C
  C50      1.0000 0.57420  0.01380  0.08020  Biso   1.000  C
  C51      1.0000 0.98620  0.56040  0.08020  Biso   1.000  C
  C52      1.0000 0.56040  0.57420  0.91980  Biso   1.000  C
  C53      1.0000 0.42580  0.98620  0.91980  Biso   1.000  C
  C54      1.0000 0.01380  0.43960  0.91980  Biso   1.000  C
  H31      1.0000 0.43200  0.41590  0.03600  Biso   1.000  H
  H32      1.0000 0.58410  0.01610  0.03600  Biso   1.000  H
  H33      1.0000 0.98390  0.56800  0.03600  Biso   1.000  H
  H34      1.0000 0.56800  0.58410  0.96400  Biso   1.000  H
  H35      1.0000 0.41590  0.98390  0.96400  Biso   1.000  H
  H36      1.0000 0.01610  0.43200  0.96400  Biso   1.000  H
  C55      1.0000 0.48740  0.38820  0.11430  Biso   1.000  C
  C56      1.0000 0.61180  0.09920  0.11430  Biso   1.000  C
  C57      1.0000 0.90080  0.51260  0.11430  Biso   1.000  C
  C58      1.0000 0.51260  0.61180  0.88570  Biso   1.000  C
  C59      1.0000 0.38820  0.90080  0.88570  Biso   1.000  C
  C60      1.0000 0.09920  0.48740  0.88570  Biso   1.000  C
  H37      1.0000 0.51280  0.35260  0.09390  Biso   1.000  H
  H38      1.0000 0.64740  0.16020  0.09390  Biso   1.000  H
  H39      1.0000 0.83980  0.48720  0.09390  Biso   1.000  H
  H40      1.0000 0.48720  0.64740  0.90610  Biso   1.000  H
  H41      1.0000 0.35260  0.83980  0.90610  Biso   1.000  H
  H42      1.0000 0.16020  0.51280  0.90610  Biso   1.000  H
  C61      1.0000 0.49750  0.40290  0.17760  Biso   1.000  C
  C62      1.0000 0.59710  0.09460  0.17760  Biso   1.000  C
  C63      1.0000 0.90540  0.50250  0.17760  Biso   1.000  C
  C64      1.0000 0.50250  0.59710  0.82240  Biso   1.000  C
  C65      1.0000 0.40290  0.90540  0.82240  Biso   1.000  C
  C66      1.0000 0.09460  0.49750  0.82240  Biso   1.000  C
  H43      1.0000 0.52670  0.37460  0.20220  Biso   1.000  H
  H44      1.0000 0.62540  0.15210  0.20220  Biso   1.000  H
  H45      1.0000 0.84790  0.47330  0.20220  Biso   1.000  H
  H46      1.0000 0.47330  0.62540  0.79780  Biso   1.000  H
  H47      1.0000 0.37460  0.84790  0.79780  Biso   1.000  H
  H48      1.0000 0.15210  0.52670  0.79780  Biso   1.000  H
  N13      1.0000 0.32340  0.16100  0.59380  Biso   1.000  N
  N14      1.0000 0.83900  0.16240  0.59380  Biso   1.000  N
  N15      1.0000 0.83760  0.67660  0.59380  Biso   1.000  N
  N16      1.0000 0.67660  0.83900  0.40620  Biso   1.000  N
  N17      1.0000 0.16100  0.83760  0.40620  Biso   1.000  N
  N18      1.0000 0.16240  0.32340  0.40620  Biso   1.000  N
  C67      1.0000 0.24650  0.14740  0.62410  Biso   1.000  C
  C68      1.0000 0.85260  0.09910  0.62410  Biso   1.000  C
  C69      1.0000 0.90090  0.75350  0.62410  Biso   1.000  C
  C70      1.0000 0.75350  0.85260  0.37590  Biso   1.000  C
  C71      1.0000 0.14740  0.90090  0.37590  Biso   1.000  C
  C72      1.0000 0.09910  0.24650  0.37590  Biso   1.000  C
  H49      1.0000 0.18980  0.13350  0.60110  Biso   1.000  H
  H50      1.0000 0.86650  0.05630  0.60110  Biso   1.000  H
  H51      1.0000 0.94370  0.81020  0.60110  Biso   1.000  H
  H52      1.0000 0.81020  0.86650  0.39890  Biso   1.000  H
  H53      1.0000 0.13350  0.94370  0.39890  Biso   1.000  H
  H54      1.0000 0.05630  0.18980  0.39890  Biso   1.000  H
  C73      1.0000 0.24560  0.15260  0.68850  Biso   1.000  C
  C74      1.0000 0.84740  0.09300  0.68850  Biso   1.000  C
  C75      1.0000 0.90700  0.75440  0.68850  Biso   1.000  C
  C76      1.0000 0.75440  0.84740  0.31150  Biso   1.000  C
  C77      1.0000 0.15260  0.90700  0.31150  Biso   1.000  C
  C78      1.0000 0.09300  0.24560  0.31150  Biso   1.000  C
  H55      1.0000 0.18730  0.13860  0.70930  Biso   1.000  H
  H56      1.0000 0.86140  0.04870  0.70930  Biso   1.000  H
  H57      1.0000 0.95130  0.81270  0.70930  Biso   1.000  H
  H58      1.0000 0.81270  0.86140  0.29070  Biso   1.000  H
  H59      1.0000 0.13860  0.95130  0.29070  Biso   1.000  H
  H60      1.0000 0.04870  0.18730  0.29070  Biso   1.000  H
  C79      1.0000 0.32980  0.17850  0.72420  Biso   1.000  C
  C80      1.0000 0.82150  0.15130  0.72420  Biso   1.000  C
  C81      1.0000 0.84870  0.67020  0.72420  Biso   1.000  C
  C82      1.0000 0.67020  0.82150  0.27580  Biso   1.000  C
  C83      1.0000 0.17850  0.84870  0.27580  Biso   1.000  C
  C84      1.0000 0.15130  0.32980  0.27580  Biso   1.000  C
  C85      1.0000 0.41210  0.19280  0.69200  Biso   1.000  C
  C86      1.0000 0.80720  0.21930  0.69200  Biso   1.000  C
  C87      1.0000 0.78070  0.58790  0.69200  Biso   1.000  C
  C88      1.0000 0.58790  0.80720  0.30800  Biso   1.000  C
  C89      1.0000 0.19280  0.78070  0.30800  Biso   1.000  C
  C90      1.0000 0.21930  0.41210  0.30800  Biso   1.000  C
  H61      1.0000 0.47040  0.20930  0.71380  Biso   1.000  H
  H62      1.0000 0.79070  0.26110  0.71380  Biso   1.000  H
  H63      1.0000 0.73890  0.52960  0.71380  Biso   1.000  H
  H64      1.0000 0.52960  0.79070  0.28620  Biso   1.000  H
  H65      1.0000 0.20930  0.73890  0.28620  Biso   1.000  H
  H66      1.0000 0.26110  0.47040  0.28620  Biso   1.000  H
  C91      1.0000 0.40630  0.18210  0.62610  Biso   1.000  C
  C92      1.0000 0.81790  0.22420  0.62610  Biso   1.000  C
  C93      1.0000 0.77580  0.59370  0.62610  Biso   1.000  C
  C94      1.0000 0.59370  0.81790  0.37390  Biso   1.000  C
  C95      1.0000 0.18210  0.77580  0.37390  Biso   1.000  C
  C96      1.0000 0.22420  0.40630  0.37390  Biso   1.000  C
  H67      1.0000 0.46110  0.18960  0.60360  Biso   1.000  H
  H68      1.0000 0.81040  0.27150  0.60360  Biso   1.000  H
  H69      1.0000 0.72850  0.53890  0.60360  Biso   1.000  H
  H70      1.0000 0.53890  0.81040  0.39640  Biso   1.000  H
  H71      1.0000 0.18960  0.72850  0.39640  Biso   1.000  H
  H72      1.0000 0.27150  0.46110  0.39640  Biso   1.000  H
  C97      1.0000 0.33780  0.19310  0.79450  Biso   1.000  C
  C98      1.0000 0.80690  0.14470  0.79450  Biso   1.000  C
  C99      1.0000 0.85530  0.66220  0.79450  Biso   1.000  C
  C100     1.0000 0.66220  0.80690  0.20550  Biso   1.000  C
  C101     1.0000 0.19310  0.85530  0.20550  Biso   1.000  C
  C102     1.0000 0.14470  0.33780  0.20550  Biso   1.000  C
  C103     1.0000 0.25710  0.14840  0.82690  Biso   1.000  C
  C104     1.0000 0.85160  0.10870  0.82690  Biso   1.000  C
  C105     1.0000 0.89130  0.74290  0.82690  Biso   1.000  C
  C106     1.0000 0.74290  0.85160  0.17310  Biso   1.000  C
  C107     1.0000 0.14840  0.89130  0.17310  Biso   1.000  C
  C108     1.0000 0.10870  0.25710  0.17310  Biso   1.000  C
  H73      1.0000 0.19630  0.10760  0.80750  Biso   1.000  H
  H74      1.0000 0.89240  0.08870  0.80750  Biso   1.000  H
  H75      1.0000 0.91130  0.80370  0.80750  Biso   1.000  H
  H76      1.0000 0.80370  0.89240  0.19250  Biso   1.000  H
  H77      1.0000 0.10760  0.91130  0.19250  Biso   1.000  H
  H78      1.0000 0.08870  0.19630  0.19250  Biso   1.000  H
  C109     1.0000 0.26640  0.16520  0.89560  Biso   1.000  C
  C110     1.0000 0.83480  0.10120  0.89560  Biso   1.000  C
  C111     1.0000 0.89880  0.73360  0.89560  Biso   1.000  C
  C112     1.0000 0.73360  0.83480  0.10440  Biso   1.000  C
  C113     1.0000 0.16520  0.89880  0.10440  Biso   1.000  C
  C114     1.0000 0.10120  0.26640  0.10440  Biso   1.000  C
  H79      1.0000 0.21230  0.13620  0.92310  Biso   1.000  H
  H80      1.0000 0.86380  0.07610  0.92310  Biso   1.000  H
  H81      1.0000 0.92390  0.78770  0.92310  Biso   1.000  H
  H82      1.0000 0.78770  0.86380  0.07690  Biso   1.000  H
  H83      1.0000 0.13620  0.92390  0.07690  Biso   1.000  H
  H84      1.0000 0.07610  0.21230  0.07690  Biso   1.000  H
  C115     1.0000 0.35530  0.22330  0.91550  Biso   1.000  C
  C116     1.0000 0.77670  0.13200  0.91550  Biso   1.000  C
  C117     1.0000 0.86800  0.64470  0.91550  Biso   1.000  C
  C118     1.0000 0.64470  0.77670  0.08450  Biso   1.000  C
  C119     1.0000 0.22330  0.86800  0.08450  Biso   1.000  C
  C120     1.0000 0.13200  0.35530  0.08450  Biso   1.000  C
  H85      1.0000 0.36300  0.23180  0.95970  Biso   1.000  H
  H86      1.0000 0.76820  0.13120  0.95970  Biso   1.000  H
  H87      1.0000 0.86880  0.63700  0.95970  Biso   1.000  H
  H88      1.0000 0.63700  0.76820  0.04030  Biso   1.000  H
  H89      1.0000 0.23180  0.86880  0.04030  Biso   1.000  H
  H90      1.0000 0.13120  0.36300  0.04030  Biso   1.000  H
  C121     1.0000 0.43650  0.27190  0.88140  Biso   1.000  C
  C122     1.0000 0.72810  0.16460  0.88140  Biso   1.000  C
  C123     1.0000 0.83540  0.56350  0.88140  Biso   1.000  C
  C124     1.0000 0.56350  0.72810  0.11860  Biso   1.000  C
  C125     1.0000 0.27190  0.83540  0.11860  Biso   1.000  C
  C126     1.0000 0.16460  0.43650  0.11860  Biso   1.000  C
  H91      1.0000 0.49710  0.31470  0.90050  Biso   1.000  H
  H92      1.0000 0.68530  0.18240  0.90050  Biso   1.000  H
  H93      1.0000 0.81760  0.50290  0.90050  Biso   1.000  H
  H94      1.0000 0.50290  0.68530  0.09950  Biso   1.000  H
  H95      1.0000 0.31470  0.81760  0.09950  Biso   1.000  H
  H96      1.0000 0.18240  0.49710  0.09950  Biso   1.000  H
  N19      1.0000 0.42810  0.25720  0.81780  Biso   1.000  N
  N20      1.0000 0.74280  0.17090  0.81780  Biso   1.000  N
  N21      1.0000 0.82910  0.57190  0.81780  Biso   1.000  N
  N22      1.0000 0.57190  0.74280  0.18220  Biso   1.000  N
  N23      1.0000 0.25720  0.82910  0.18220  Biso   1.000  N
  N24      1.0000 0.17090  0.42810  0.18220  Biso   1.000  N
  N25      1.0000 0.34250  0.16630  0.40530  Biso   1.000  N
  N26      1.0000 0.83370  0.17620  0.40530  Biso   1.000  N
  N27      1.0000 0.82380  0.65750  0.40530  Biso   1.000  N
  N28      1.0000 0.65750  0.83370  0.59470  Biso   1.000  N
  N29      1.0000 0.16630  0.82380  0.59470  Biso   1.000  N
  N30      1.0000 0.17620  0.34250  0.59470  Biso   1.000  N
  C127     1.0000 0.41460  0.16840  0.37420  Biso   1.000  C
  C128     1.0000 0.83160  0.24620  0.37420  Biso   1.000  C
  C129     1.0000 0.75380  0.58540  0.37420  Biso   1.000  C
  C130     1.0000 0.58540  0.83160  0.62580  Biso   1.000  C
  C131     1.0000 0.16840  0.75380  0.62580  Biso   1.000  C
  C132     1.0000 0.24620  0.41460  0.62580  Biso   1.000  C
  H97      1.0000 0.46800  0.17310  0.39700  Biso   1.000  H
  H98      1.0000 0.82690  0.29490  0.39700  Biso   1.000  H
  H99      1.0000 0.70510  0.53200  0.39700  Biso   1.000  H
  H100     1.0000 0.53200  0.82690  0.60300  Biso   1.000  H
  H101     1.0000 0.17310  0.70510  0.60300  Biso   1.000  H
  H102     1.0000 0.29490  0.46800  0.60300  Biso   1.000  H
  C133     1.0000 0.41580  0.16410  0.30960  Biso   1.000  C
  C134     1.0000 0.83590  0.25170  0.30960  Biso   1.000  C
  C135     1.0000 0.74830  0.58420  0.30960  Biso   1.000  C
  C136     1.0000 0.58420  0.83590  0.69040  Biso   1.000  C
  C137     1.0000 0.16410  0.74830  0.69040  Biso   1.000  C
  C138     1.0000 0.25170  0.41580  0.69040  Biso   1.000  C
  H103     1.0000 0.46980  0.16590  0.28930  Biso   1.000  H
  H104     1.0000 0.83410  0.30390  0.28930  Biso   1.000  H
  H105     1.0000 0.69610  0.53020  0.28930  Biso   1.000  H
  H106     1.0000 0.53020  0.83410  0.71070  Biso   1.000  H
  H107     1.0000 0.16590  0.69610  0.71070  Biso   1.000  H
  H108     1.0000 0.30390  0.46980  0.71070  Biso   1.000  H
  C139     1.0000 0.34030  0.15710  0.27350  Biso   1.000  C
  C140     1.0000 0.84290  0.18320  0.27350  Biso   1.000  C
  C141     1.0000 0.81680  0.65970  0.27350  Biso   1.000  C
  C142     1.0000 0.65970  0.84290  0.72650  Biso   1.000  C
  C143     1.0000 0.15710  0.81680  0.72650  Biso   1.000  C
  C144     1.0000 0.18320  0.34030  0.72650  Biso   1.000  C
  C145     1.0000 0.26410  0.15990  0.30700  Biso   1.000  C
  C146     1.0000 0.84010  0.10420  0.30700  Biso   1.000  C
  C147     1.0000 0.89580  0.73590  0.30700  Biso   1.000  C
  C148     1.0000 0.73590  0.84010  0.69300  Biso   1.000  C
  C149     1.0000 0.15990  0.89580  0.69300  Biso   1.000  C
  C150     1.0000 0.10420  0.26410  0.69300  Biso   1.000  C
  H109     1.0000 0.21210  0.15950  0.28490  Biso   1.000  H
  H110     1.0000 0.84050  0.05260  0.28490  Biso   1.000  H
  H111     1.0000 0.94740  0.78790  0.28490  Biso   1.000  H
  H112     1.0000 0.78790  0.84050  0.71510  Biso   1.000  H
  H113     1.0000 0.15950  0.94740  0.71510  Biso   1.000  H
  H114     1.0000 0.05260  0.21210  0.71510  Biso   1.000  H
  C151     1.0000 0.26700  0.16320  0.37190  Biso   1.000  C
  C152     1.0000 0.83680  0.10380  0.37190  Biso   1.000  C
  C153     1.0000 0.89620  0.73300  0.37190  Biso   1.000  C
  C154     1.0000 0.73300  0.83680  0.62810  Biso   1.000  C
  C155     1.0000 0.16320  0.89620  0.62810  Biso   1.000  C
  C156     1.0000 0.10380  0.26700  0.62810  Biso   1.000  C
  H115     1.0000 0.21530  0.16320  0.39410  Biso   1.000  H
  H116     1.0000 0.83680  0.05210  0.39410  Biso   1.000  H
  H117     1.0000 0.94790  0.78470  0.39410  Biso   1.000  H
  H118     1.0000 0.78470  0.83680  0.60590  Biso   1.000  H
  H119     1.0000 0.16320  0.94790  0.60590  Biso   1.000  H
  H120     1.0000 0.05210  0.21530  0.60590  Biso   1.000  H
  C157     1.0000 0.33690  0.15140  0.20460  Biso   1.000  C
  C158     1.0000 0.84860  0.18550  0.20460  Biso   1.000  C
  C159     1.0000 0.81450  0.66310  0.20460  Biso   1.000  C
  C160     1.0000 0.66310  0.84860  0.79540  Biso   1.000  C
  C161     1.0000 0.15140  0.81450  0.79540  Biso   1.000  C
  C162     1.0000 0.18550  0.33690  0.79540  Biso   1.000  C
  N31      1.0000 0.40290  0.13810  0.17390  Biso   1.000  N
  N32      1.0000 0.86190  0.26480  0.17390  Biso   1.000  N
  N33      1.0000 0.73520  0.59710  0.17390  Biso   1.000  N
  N34      1.0000 0.59710  0.86190  0.82610  Biso   1.000  N
  N35      1.0000 0.13810  0.73520  0.82610  Biso   1.000  N
  N36      1.0000 0.26480  0.40290  0.82610  Biso   1.000  N
  C163     1.0000 0.40140  0.13100  0.11050  Biso   1.000  C
  C164     1.0000 0.86900  0.27040  0.11050  Biso   1.000  C
  C165     1.0000 0.72960  0.59860  0.11050  Biso   1.000  C
  C166     1.0000 0.59860  0.86900  0.88950  Biso   1.000  C
  C167     1.0000 0.13100  0.72960  0.88950  Biso   1.000  C
  C168     1.0000 0.27040  0.40140  0.88950  Biso   1.000  C
  H121     1.0000 0.44840  0.12190  0.08890  Biso   1.000  H
  H122     1.0000 0.87810  0.32650  0.08890  Biso   1.000  H
  H123     1.0000 0.67350  0.55160  0.08890  Biso   1.000  H
  H124     1.0000 0.55160  0.87810  0.91110  Biso   1.000  H
  H125     1.0000 0.12190  0.67350  0.91110  Biso   1.000  H
  H126     1.0000 0.32650  0.44840  0.91110  Biso   1.000  H
  C169     1.0000 0.32940  0.13730  0.07830  Biso   1.000  C
  C170     1.0000 0.86270  0.19210  0.07830  Biso   1.000  C
  C171     1.0000 0.80790  0.67060  0.07830  Biso   1.000  C
  C172     1.0000 0.67060  0.86270  0.92170  Biso   1.000  C
  C173     1.0000 0.13730  0.80790  0.92170  Biso   1.000  C
  C174     1.0000 0.19210  0.32940  0.92170  Biso   1.000  C
  H127     1.0000 0.32660  0.13170  0.03380  Biso   1.000  H
  H128     1.0000 0.86830  0.19490  0.03380  Biso   1.000  H
  H129     1.0000 0.80510  0.67340  0.03380  Biso   1.000  H
  H130     1.0000 0.67340  0.86830  0.96620  Biso   1.000  H
  H131     1.0000 0.13170  0.80510  0.96620  Biso   1.000  H
  H132     1.0000 0.19490  0.32660  0.96620  Biso   1.000  H
  C175     1.0000 0.26210  0.15140  0.10920  Biso   1.000  C
  C176     1.0000 0.84860  0.11070  0.10920  Biso   1.000  C
  C177     1.0000 0.88930  0.73790  0.10920  Biso   1.000  C
  C178     1.0000 0.73790  0.84860  0.89080  Biso   1.000  C
  C179     1.0000 0.15140  0.88930  0.89080  Biso   1.000  C
  C180     1.0000 0.11070  0.26210  0.89080  Biso   1.000  C
  H133     1.0000 0.21370  0.15630  0.08600  Biso   1.000  H
  H134     1.0000 0.84370  0.05740  0.08600  Biso   1.000  H
  H135     1.0000 0.94260  0.78630  0.08600  Biso   1.000  H
  H136     1.0000 0.78630  0.84370  0.91400  Biso   1.000  H
  H137     1.0000 0.15630  0.94260  0.91400  Biso   1.000  H
  H138     1.0000 0.05740  0.21370  0.91400  Biso   1.000  H
  C181     1.0000 0.26420  0.15870  0.17320  Biso   1.000  C
  C182     1.0000 0.84130  0.10550  0.17320  Biso   1.000  C
  C183     1.0000 0.89450  0.73580  0.17320  Biso   1.000  C
  C184     1.0000 0.73580  0.84130  0.82680  Biso   1.000  C
  C185     1.0000 0.15870  0.89450  0.82680  Biso   1.000  C
  C186     1.0000 0.10550  0.26420  0.82680  Biso   1.000  C
  H139     1.0000 0.21790  0.16820  0.19540  Biso   1.000  H
  H140     1.0000 0.83180  0.04970  0.19540  Biso   1.000  H
  H141     1.0000 0.95030  0.78210  0.19540  Biso   1.000  H
  H142     1.0000 0.78210  0.83180  0.80460  Biso   1.000  H
  H143     1.0000 0.16820  0.95030  0.80460  Biso   1.000  H
  H144     1.0000 0.04970  0.21790  0.80460  Biso   1.000  H
  Cl1      1.0000 0.66670  0.33330  0.98030  Biso   1.000  Cl
  Cl2      1.0000 0.33330  0.66670  0.01970  Biso   1.000  Cl
  O19      1.0000 0.66670  0.33330  0.91400  Biso   1.000  O
  O20      1.0000 0.33330  0.66670  0.08600  Biso   1.000  O
  O21      1.0000 0.73290  0.30330  0.00320  Biso   1.000  O
  O22      1.0000 0.69670  0.42960  0.00320  Biso   1.000  O
  O23      1.0000 0.57040  0.26710  0.00320  Biso   1.000  O
  O24      1.0000 0.26710  0.69670  0.99680  Biso   1.000  O
  O25      1.0000 0.30330  0.57040  0.99680  Biso   1.000  O
  O26      1.0000 0.42960  0.73290  0.99680  Biso   1.000  O
  O27      1.0000 0.69510  0.33000  0.23110  Biso   1.000  O
  O28      1.0000 0.67000  0.36510  0.23110  Biso   1.000  O
  O29      1.0000 0.63490  0.30490  0.23110  Biso   1.000  O
  O30      1.0000 0.30490  0.67000  0.76890  Biso   1.000  O
  O31      1.0000 0.33000  0.63490  0.76890  Biso   1.000  O
  O32      1.0000 0.36510  0.69510  0.76890  Biso   1.000  O
  O33      1.0000 0.69400  0.35200  0.34140  Biso   1.000  O
  O34      1.0000 0.64800  0.34200  0.34140  Biso   1.000  O
  O35      1.0000 0.65800  0.30600  0.34140  Biso   1.000  O
  O36      1.0000 0.30600  0.64800  0.65860  Biso   1.000  O
  O37      1.0000 0.35200  0.65800  0.65860  Biso   1.000  O
  O38      1.0000 0.34200  0.69400  0.65860  Biso   1.000  O
  O39      1.0000 0.00000  0.00000  0.33230  Biso   1.000  O
  O40      1.0000 0.00000  0.00000  0.66770  Biso   1.000  O
  O41      1.0000 0.03200  0.99300  0.22780  Biso   1.000  O
  O42      1.0000 0.00700  0.03900  0.22780  Biso   1.000  O
  O43      1.0000 0.96100  0.96800  0.22780  Biso   1.000  O
  O44      1.0000 0.96800  0.00700  0.77220  Biso   1.000  O
  O45      1.0000 0.99300  0.96100  0.77220  Biso   1.000  O
  O46      1.0000 0.03900  0.03200  0.77220  Biso   1.000  O
  O47      1.0000 0.32300  0.68000  0.23270  Biso   1.000  O
  O48      1.0000 0.32000  0.64300  0.23270  Biso   1.000  O
  O49      1.0000 0.35700  0.67700  0.23270  Biso   1.000  O
  O50      1.0000 0.67700  0.32000  0.76730  Biso   1.000  O
  O51      1.0000 0.68000  0.35700  0.76730  Biso   1.000  O
  O52      1.0000 0.64300  0.32300  0.76730  Biso   1.000  O
  O53      1.0000 0.33330  0.66670  0.32730  Biso   1.000  O
  O54      1.0000 0.66670  0.33330  0.67270  Biso   1.000  O
  N37      1.0000 0.50200  0.48380  0.40450  Biso   1.000  N
  N38      1.0000 0.51620  0.01820  0.40450  Biso   1.000  N
  N39      1.0000 0.98180  0.49800  0.40450  Biso   1.000  N
  N40      1.0000 0.49800  0.51620  0.59550  Biso   1.000  N
  N41      1.0000 0.48380  0.98180  0.59550  Biso   1.000  N
  N42      1.0000 0.01820  0.50200  0.59550  Biso   1.000  N
  C187     1.0000 0.50800  0.41250  0.37690  Biso   1.000  C
  C188     1.0000 0.58750  0.09550  0.37690  Biso   1.000  C
  C189     1.0000 0.90450  0.49200  0.37690  Biso   1.000  C
  C190     1.0000 0.49200  0.58750  0.62310  Biso   1.000  C
  C191     1.0000 0.41250  0.90450  0.62310  Biso   1.000  C
  C192     1.0000 0.09550  0.50800  0.62310  Biso   1.000  C
  H145     1.0000 0.51410  0.36720  0.40270  Biso   1.000  H
  H146     1.0000 0.63280  0.14690  0.40270  Biso   1.000  H
  H147     1.0000 0.85310  0.48590  0.40270  Biso   1.000  H
  H148     1.0000 0.48590  0.63280  0.59730  Biso   1.000  H
  H149     1.0000 0.36720  0.85310  0.59730  Biso   1.000  H
  H150     1.0000 0.14690  0.51410  0.59730  Biso   1.000  H
  C193     1.0000 0.50570  0.40090  0.31440  Biso   1.000  C
  C194     1.0000 0.59910  0.10480  0.31440  Biso   1.000  C
  C195     1.0000 0.89520  0.49430  0.31440  Biso   1.000  C
  C196     1.0000 0.49430  0.59910  0.68560  Biso   1.000  C
  C197     1.0000 0.40090  0.89520  0.68560  Biso   1.000  C
  C198     1.0000 0.10480  0.50570  0.68560  Biso   1.000  C
  H151     1.0000 0.51520  0.35120  0.29730  Biso   1.000  H
  H152     1.0000 0.64880  0.16400  0.29730  Biso   1.000  H
  H153     1.0000 0.83600  0.48480  0.29730  Biso   1.000  H
  H154     1.0000 0.48480  0.64880  0.70270  Biso   1.000  H
  H155     1.0000 0.35120  0.83600  0.70270  Biso   1.000  H
  H156     1.0000 0.16400  0.51520  0.70270  Biso   1.000  H
  C199     1.0000 0.48980  0.46020  0.27440  Biso   1.000  C
  C200     1.0000 0.53980  0.02960  0.27440  Biso   1.000  C
  C201     1.0000 0.97040  0.51020  0.27440  Biso   1.000  C
  C202     1.0000 0.51020  0.53980  0.72560  Biso   1.000  C
  C203     1.0000 0.46020  0.97040  0.72560  Biso   1.000  C
  C204     1.0000 0.02960  0.48980  0.72560  Biso   1.000  C
  C205     1.0000 0.48560  0.53760  0.30170  Biso   1.000  C
  C206     1.0000 0.46240  0.94800  0.30170  Biso   1.000  C
  C207     1.0000 0.05200  0.51440  0.30170  Biso   1.000  C
  C208     1.0000 0.51440  0.46240  0.69830  Biso   1.000  C
  C209     1.0000 0.53760  0.05200  0.69830  Biso   1.000  C
  C210     1.0000 0.94800  0.48560  0.69830  Biso   1.000  C
  H157     1.0000 0.47800  0.58250  0.27650  Biso   1.000  H
  H158     1.0000 0.41750  0.89550  0.27650  Biso   1.000  H
  H159     1.0000 0.10450  0.52200  0.27650  Biso   1.000  H
  H160     1.0000 0.52200  0.41750  0.72350  Biso   1.000  H
  H161     1.0000 0.58250  0.10450  0.72350  Biso   1.000  H
  H162     1.0000 0.89550  0.47800  0.72350  Biso   1.000  H
  C211     1.0000 0.49260  0.54750  0.36680  Biso   1.000  C
  C212     1.0000 0.45250  0.94510  0.36680  Biso   1.000  C
  C213     1.0000 0.05490  0.50740  0.36680  Biso   1.000  C
  C214     1.0000 0.50740  0.45250  0.63320  Biso   1.000  C
  C215     1.0000 0.54750  0.05490  0.63320  Biso   1.000  C
  C216     1.0000 0.94510  0.49260  0.63320  Biso   1.000  C
  H163     1.0000 0.49080  0.60070  0.38550  Biso   1.000  H
  H164     1.0000 0.39930  0.89010  0.38550  Biso   1.000  H
  H165     1.0000 0.10990  0.50920  0.38550  Biso   1.000  H
  H166     1.0000 0.50920  0.39930  0.61450  Biso   1.000  H
  H167     1.0000 0.60070  0.10990  0.61450  Biso   1.000  H
  H168     1.0000 0.89010  0.49080  0.61450  Biso   1.000  H
  C217     1.0000 0.48400  0.44600  0.20550  Biso   1.000  C
  C218     1.0000 0.55400  0.03800  0.20550  Biso   1.000  C
  C219     1.0000 0.96200  0.51600  0.20550  Biso   1.000  C
  C220     1.0000 0.51600  0.55400  0.79450  Biso   1.000  C
  C221     1.0000 0.44600  0.96200  0.79450  Biso   1.000  C
  C222     1.0000 0.03800  0.48400  0.79450  Biso   1.000  C
  C223     1.0000 0.43640  0.47930  0.16830  Biso   1.000  C
  C224     1.0000 0.52070  0.95710  0.16830  Biso   1.000  C
  C225     1.0000 0.04290  0.56360  0.16830  Biso   1.000  C
  C226     1.0000 0.56360  0.52070  0.83170  Biso   1.000  C
  C227     1.0000 0.47930  0.04290  0.83170  Biso   1.000  C
  C228     1.0000 0.95710  0.43640  0.83170  Biso   1.000  C
  H169     1.0000 0.40660  0.51220  0.18670  Biso   1.000  H
  H170     1.0000 0.48780  0.89440  0.18670  Biso   1.000  H
  H171     1.0000 0.10560  0.59340  0.18670  Biso   1.000  H
  H172     1.0000 0.59340  0.48780  0.81330  Biso   1.000  H
  H173     1.0000 0.51220  0.10560  0.81330  Biso   1.000  H
  H174     1.0000 0.89440  0.40660  0.81330  Biso   1.000  H
  C229     1.0000 0.43170  0.46450  0.10180  Biso   1.000  C
  C230     1.0000 0.53550  0.96720  0.10180  Biso   1.000  C
  C231     1.0000 0.03280  0.56830  0.10180  Biso   1.000  C
  C232     1.0000 0.56830  0.53550  0.89820  Biso   1.000  C
  C233     1.0000 0.46450  0.03280  0.89820  Biso   1.000  C
  C234     1.0000 0.96720  0.43170  0.89820  Biso   1.000  C
  H175     1.0000 0.40010  0.48670  0.07430  Biso   1.000  H
  H176     1.0000 0.51330  0.91340  0.07430  Biso   1.000  H
  H177     1.0000 0.08660  0.59990  0.07430  Biso   1.000  H
  H178     1.0000 0.59990  0.51330  0.92570  Biso   1.000  H
  H179     1.0000 0.48670  0.08660  0.92570  Biso   1.000  H
  H180     1.0000 0.91340  0.40010  0.92570  Biso   1.000  H
  C235     1.0000 0.47530  0.41710  0.08210  Biso   1.000  C
  C236     1.0000 0.58290  0.05820  0.08210  Biso   1.000  C
  C237     1.0000 0.94180  0.52470  0.08210  Biso   1.000  C
  C238     1.0000 0.52470  0.58290  0.91790  Biso   1.000  C
  C239     1.0000 0.41710  0.94180  0.91790  Biso   1.000  C
  C240     1.0000 0.05820  0.47530  0.91790  Biso   1.000  C
  H181     1.0000 0.47120  0.40090  0.03880  Biso   1.000  H
  H182     1.0000 0.59910  0.07030  0.03880  Biso   1.000  H
  H183     1.0000 0.92970  0.52880  0.03880  Biso   1.000  H
  H184     1.0000 0.52880  0.59910  0.96120  Biso   1.000  H
  H185     1.0000 0.40090  0.92970  0.96120  Biso   1.000  H
  H186     1.0000 0.07030  0.47120  0.96120  Biso   1.000  H
  C241     1.0000 0.52640  0.39030  0.12160  Biso   1.000  C
  C242     1.0000 0.60970  0.13610  0.12160  Biso   1.000  C
  C243     1.0000 0.86390  0.47360  0.12160  Biso   1.000  C
  C244     1.0000 0.47360  0.60970  0.87840  Biso   1.000  C
  C245     1.0000 0.39030  0.86390  0.87840  Biso   1.000  C
  C246     1.0000 0.13610  0.52640  0.87840  Biso   1.000  C
  H187     1.0000 0.56090  0.36090  0.10510  Biso   1.000  H
  H188     1.0000 0.63910  0.20000  0.10510  Biso   1.000  H
  H189     1.0000 0.80000  0.43910  0.10510  Biso   1.000  H
  H190     1.0000 0.43910  0.63910  0.89490  Biso   1.000  H
  H191     1.0000 0.36090  0.80000  0.89490  Biso   1.000  H
  H192     1.0000 0.20000  0.56090  0.89490  Biso   1.000  H
  N43      1.0000 0.52710  0.40570  0.18300  Biso   1.000  N
  N44      1.0000 0.59430  0.12140  0.18300  Biso   1.000  N
  N45      1.0000 0.87860  0.47290  0.18300  Biso   1.000  N
  N46      1.0000 0.47290  0.59430  0.81700  Biso   1.000  N
  N47      1.0000 0.40570  0.87860  0.81700  Biso   1.000  N
  N48      1.0000 0.12140  0.52710  0.81700  Biso   1.000  N
  N49      1.0000 0.34880  0.17220  0.59280  Biso   1.000  N
  N50      1.0000 0.82780  0.17660  0.59280  Biso   1.000  N
  N51      1.0000 0.82340  0.65120  0.59280  Biso   1.000  N
  N52      1.0000 0.65120  0.82780  0.40720  Biso   1.000  N
  N53      1.0000 0.17220  0.82340  0.40720  Biso   1.000  N
  N54      1.0000 0.17660  0.34880  0.40720  Biso   1.000  N
  C247     1.0000 0.27160  0.15890  0.62850  Biso   1.000  C
  C248     1.0000 0.84110  0.11270  0.62850  Biso   1.000  C
  C249     1.0000 0.88730  0.72840  0.62850  Biso   1.000  C
  C250     1.0000 0.72840  0.84110  0.37150  Biso   1.000  C
  C251     1.0000 0.15890  0.88730  0.37150  Biso   1.000  C
  C252     1.0000 0.11270  0.27160  0.37150  Biso   1.000  C
  H193     1.0000 0.21270  0.14350  0.60790  Biso   1.000  H
  H194     1.0000 0.85650  0.06920  0.60790  Biso   1.000  H
  H195     1.0000 0.93080  0.78730  0.60790  Biso   1.000  H
  H196     1.0000 0.78730  0.85650  0.39210  Biso   1.000  H
  H197     1.0000 0.14350  0.93080  0.39210  Biso   1.000  H
  H198     1.0000 0.06920  0.21270  0.39210  Biso   1.000  H
  C253     1.0000 0.27600  0.16700  0.69410  Biso   1.000  C
  C254     1.0000 0.83300  0.10900  0.69410  Biso   1.000  C
  C255     1.0000 0.89100  0.72400  0.69410  Biso   1.000  C
  C256     1.0000 0.72400  0.83300  0.30590  Biso   1.000  C
  C257     1.0000 0.16700  0.89100  0.30590  Biso   1.000  C
  C258     1.0000 0.10900  0.27600  0.30590  Biso   1.000  C
  H199     1.0000 0.22100  0.15600  0.71790  Biso   1.000  H
  H200     1.0000 0.84400  0.06500  0.71790  Biso   1.000  H
  H201     1.0000 0.93500  0.77900  0.71790  Biso   1.000  H
  H202     1.0000 0.77900  0.84400  0.28210  Biso   1.000  H
  H203     1.0000 0.15600  0.93500  0.28210  Biso   1.000  H
  H204     1.0000 0.06500  0.22100  0.28210  Biso   1.000  H
  C259     1.0000 0.36440  0.19200  0.72330  Biso   1.000  C
  C260     1.0000 0.80800  0.17240  0.72330  Biso   1.000  C
  C261     1.0000 0.82760  0.63560  0.72330  Biso   1.000  C
  C262     1.0000 0.63560  0.80800  0.27670  Biso   1.000  C
  C263     1.0000 0.19200  0.82760  0.27670  Biso   1.000  C
  C264     1.0000 0.17240  0.36440  0.27670  Biso   1.000  C
  C265     1.0000 0.44230  0.20680  0.68520  Biso   1.000  C
  C266     1.0000 0.79320  0.23550  0.68520  Biso   1.000  C
  C267     1.0000 0.76450  0.55770  0.68520  Biso   1.000  C
  C268     1.0000 0.55770  0.79320  0.31480  Biso   1.000  C
  C269     1.0000 0.20680  0.76450  0.31480  Biso   1.000  C
  C270     1.0000 0.23550  0.44230  0.31480  Biso   1.000  C
  H205     1.0000 0.50330  0.22520  0.70390  Biso   1.000  H
  H206     1.0000 0.77480  0.27810  0.70390  Biso   1.000  H
  H207     1.0000 0.72190  0.49670  0.70390  Biso   1.000  H
  H208     1.0000 0.49670  0.77480  0.29610  Biso   1.000  H
  H209     1.0000 0.22520  0.72190  0.29610  Biso   1.000  H
  H210     1.0000 0.27810  0.50330  0.29610  Biso   1.000  H
  C271     1.0000 0.43180  0.19500  0.62150  Biso   1.000  C
  C272     1.0000 0.80500  0.23680  0.62150  Biso   1.000  C
  C273     1.0000 0.76320  0.56820  0.62150  Biso   1.000  C
  C274     1.0000 0.56820  0.80500  0.37850  Biso   1.000  C
  C275     1.0000 0.19500  0.76320  0.37850  Biso   1.000  C
  C276     1.0000 0.23680  0.43180  0.37850  Biso   1.000  C
  H211     1.0000 0.48530  0.20340  0.59700  Biso   1.000  H
  H212     1.0000 0.79660  0.28190  0.59700  Biso   1.000  H
  H213     1.0000 0.71810  0.51470  0.59700  Biso   1.000  H
  H214     1.0000 0.51470  0.79660  0.40300  Biso   1.000  H
  H215     1.0000 0.20340  0.71810  0.40300  Biso   1.000  H
  H216     1.0000 0.28190  0.48530  0.40300  Biso   1.000  H
  C277     1.0000 0.37490  0.20380  0.79270  Biso   1.000  C
  C278     1.0000 0.79620  0.17110  0.79270  Biso   1.000  C
  C279     1.0000 0.82890  0.62510  0.79270  Biso   1.000  C
  C280     1.0000 0.62510  0.79620  0.20730  Biso   1.000  C
  C281     1.0000 0.20380  0.82890  0.20730  Biso   1.000  C
  C282     1.0000 0.17110  0.37490  0.20730  Biso   1.000  C
  C283     1.0000 0.29850  0.15740  0.83310  Biso   1.000  C
  C284     1.0000 0.84260  0.14110  0.83310  Biso   1.000  C
  C285     1.0000 0.85890  0.70150  0.83310  Biso   1.000  C
  C286     1.0000 0.70150  0.84260  0.16690  Biso   1.000  C
  C287     1.0000 0.15740  0.85890  0.16690  Biso   1.000  C
  C288     1.0000 0.14110  0.29850  0.16690  Biso   1.000  C
  H217     1.0000 0.23500  0.11540  0.81770  Biso   1.000  H
  H218     1.0000 0.88460  0.11960  0.81770  Biso   1.000  H
  H219     1.0000 0.88040  0.76500  0.81770  Biso   1.000  H
  H220     1.0000 0.76500  0.88460  0.18230  Biso   1.000  H
  H221     1.0000 0.11540  0.88040  0.18230  Biso   1.000  H
  H222     1.0000 0.11960  0.23500  0.18230  Biso   1.000  H
  C289     1.0000 0.31560  0.17280  0.89630  Biso   1.000  C
  C290     1.0000 0.82720  0.14280  0.89630  Biso   1.000  C
  C291     1.0000 0.85720  0.68440  0.89630  Biso   1.000  C
  C292     1.0000 0.68440  0.82720  0.10370  Biso   1.000  C
  C293     1.0000 0.17280  0.85720  0.10370  Biso   1.000  C
  C294     1.0000 0.14280  0.31560  0.10370  Biso   1.000  C
  H223     1.0000 0.26370  0.13970  0.92510  Biso   1.000  H
  H224     1.0000 0.86030  0.12400  0.92510  Biso   1.000  H
  H225     1.0000 0.87600  0.73630  0.92510  Biso   1.000  H
  H226     1.0000 0.73630  0.86030  0.07490  Biso   1.000  H
  H227     1.0000 0.13970  0.87600  0.07490  Biso   1.000  H
  H228     1.0000 0.12400  0.26370  0.07490  Biso   1.000  H
  C295     1.0000 0.40590  0.23460  0.91820  Biso   1.000  C
  C296     1.0000 0.76540  0.17130  0.91820  Biso   1.000  C
  C297     1.0000 0.82870  0.59410  0.91820  Biso   1.000  C
  C298     1.0000 0.59410  0.76540  0.08180  Biso   1.000  C
  C299     1.0000 0.23460  0.82870  0.08180  Biso   1.000  C
  C300     1.0000 0.17130  0.40590  0.08180  Biso   1.000  C
  H229     1.0000 0.41690  0.25090  0.96150  Biso   1.000  H
  H230     1.0000 0.74910  0.16600  0.96150  Biso   1.000  H
  H231     1.0000 0.83400  0.58310  0.96150  Biso   1.000  H
  H232     1.0000 0.58310  0.74910  0.03850  Biso   1.000  H
  H233     1.0000 0.25090  0.83400  0.03850  Biso   1.000  H
  H234     1.0000 0.16600  0.41690  0.03850  Biso   1.000  H
  C301     1.0000 0.48440  0.27470  0.87380  Biso   1.000  C
  C302     1.0000 0.72530  0.20970  0.87380  Biso   1.000  C
  C303     1.0000 0.79030  0.51560  0.87380  Biso   1.000  C
  C304     1.0000 0.51560  0.72530  0.12620  Biso   1.000  C
  C305     1.0000 0.27470  0.79030  0.12620  Biso   1.000  C
  C306     1.0000 0.20970  0.48440  0.12620  Biso   1.000  C
  H235     1.0000 0.54890  0.31180  0.88910  Biso   1.000  H
  H236     1.0000 0.68820  0.23710  0.88910  Biso   1.000  H
  H237     1.0000 0.76290  0.45110  0.88910  Biso   1.000  H
  H238     1.0000 0.45110  0.68820  0.11090  Biso   1.000  H
  H239     1.0000 0.31180  0.76290  0.11090  Biso   1.000  H
  H240     1.0000 0.23710  0.54890  0.11090  Biso   1.000  H
  N55      1.0000 0.47040  0.26180  0.81150  Biso   1.000  N
  N56      1.0000 0.73820  0.20860  0.81150  Biso   1.000  N
  N57      1.0000 0.79140  0.52960  0.81150  Biso   1.000  N
  N58      1.0000 0.52960  0.73820  0.18850  Biso   1.000  N
  N59      1.0000 0.26180  0.79140  0.18850  Biso   1.000  N
  N60      1.0000 0.20860  0.47040  0.18850  Biso   1.000  N
  N61      1.0000 0.32120  0.15280  0.40600  Biso   1.000  N
  N62      1.0000 0.84720  0.16840  0.40600  Biso   1.000  N
  N63      1.0000 0.83160  0.67880  0.40600  Biso   1.000  N
  N64      1.0000 0.67880  0.84720  0.59400  Biso   1.000  N
  N65      1.0000 0.15280  0.83160  0.59400  Biso   1.000  N
  N66      1.0000 0.16840  0.32120  0.59400  Biso   1.000  N
  C307     1.0000 0.39190  0.14900  0.37140  Biso   1.000  C
  C308     1.0000 0.85100  0.24290  0.37140  Biso   1.000  C
  C309     1.0000 0.75710  0.60810  0.37140  Biso   1.000  C
  C310     1.0000 0.60810  0.85100  0.62860  Biso   1.000  C
  C311     1.0000 0.14900  0.75710  0.62860  Biso   1.000  C
  C312     1.0000 0.24290  0.39190  0.62860  Biso   1.000  C
  H241     1.0000 0.44500  0.15080  0.39300  Biso   1.000  H
  H242     1.0000 0.84920  0.29420  0.39300  Biso   1.000  H
  H243     1.0000 0.70580  0.55500  0.39300  Biso   1.000  H
  H244     1.0000 0.55500  0.84920  0.60700  Biso   1.000  H
  H245     1.0000 0.15080  0.70580  0.60700  Biso   1.000  H
  H246     1.0000 0.29420  0.44500  0.60700  Biso   1.000  H
  C313     1.0000 0.38930  0.14260  0.30640  Biso   1.000  C
  C314     1.0000 0.85740  0.24670  0.30640  Biso   1.000  C
  C315     1.0000 0.75330  0.61070  0.30640  Biso   1.000  C
  C316     1.0000 0.61070  0.85740  0.69360  Biso   1.000  C
  C317     1.0000 0.14260  0.75330  0.69360  Biso   1.000  C
  C318     1.0000 0.24670  0.38930  0.69360  Biso   1.000  C
  H247     1.0000 0.43910  0.13960  0.28380  Biso   1.000  H
  H248     1.0000 0.86040  0.29950  0.28380  Biso   1.000  H
  H249     1.0000 0.70050  0.56090  0.28380  Biso   1.000  H
  H250     1.0000 0.56090  0.86040  0.71620  Biso   1.000  H
  H251     1.0000 0.13960  0.70050  0.71620  Biso   1.000  H
  H252     1.0000 0.29950  0.43910  0.71620  Biso   1.000  H
  C319     1.0000 0.31110  0.14080  0.27480  Biso   1.000  C
  C320     1.0000 0.85920  0.17030  0.27480  Biso   1.000  C
  C321     1.0000 0.82970  0.68890  0.27480  Biso   1.000  C
  C322     1.0000 0.68890  0.85920  0.72520  Biso   1.000  C
  C323     1.0000 0.14080  0.82970  0.72520  Biso   1.000  C
  C324     1.0000 0.17030  0.31110  0.72520  Biso   1.000  C
  C325     1.0000 0.23990  0.13970  0.31040  Biso   1.000  C
  C326     1.0000 0.86030  0.10020  0.31040  Biso   1.000  C
  C327     1.0000 0.89980  0.76010  0.31040  Biso   1.000  C
  C328     1.0000 0.76010  0.86030  0.68960  Biso   1.000  C
  C329     1.0000 0.13970  0.89980  0.68960  Biso   1.000  C
  C330     1.0000 0.10020  0.23990  0.68960  Biso   1.000  C
  H253     1.0000 0.18380  0.13370  0.29050  Biso   1.000  H
  H254     1.0000 0.86630  0.05010  0.29050  Biso   1.000  H
  H255     1.0000 0.94990  0.81620  0.29050  Biso   1.000  H
  H256     1.0000 0.81620  0.86630  0.70950  Biso   1.000  H
  H257     1.0000 0.13370  0.94990  0.70950  Biso   1.000  H
  H258     1.0000 0.05010  0.18380  0.70950  Biso   1.000  H
  C331     1.0000 0.24760  0.14740  0.37540  Biso   1.000  C
  C332     1.0000 0.85260  0.10020  0.37540  Biso   1.000  C
  C333     1.0000 0.89980  0.75240  0.37540  Biso   1.000  C
  C334     1.0000 0.75240  0.85260  0.62460  Biso   1.000  C
  C335     1.0000 0.14740  0.89980  0.62460  Biso   1.000  C
  C336     1.0000 0.10020  0.24760  0.62460  Biso   1.000  C
  H259     1.0000 0.19720  0.14860  0.39850  Biso   1.000  H
  H260     1.0000 0.85140  0.04860  0.39850  Biso   1.000  H
  H261     1.0000 0.95140  0.80280  0.39850  Biso   1.000  H
  H262     1.0000 0.80280  0.85140  0.60150  Biso   1.000  H
  H263     1.0000 0.14860  0.95140  0.60150  Biso   1.000  H
  H264     1.0000 0.04860  0.19720  0.60150  Biso   1.000  H
  C337     1.0000 0.30300  0.12880  0.20440  Biso   1.000  C
  C338     1.0000 0.87120  0.17420  0.20440  Biso   1.000  C
  C339     1.0000 0.82580  0.69700  0.20440  Biso   1.000  C
  C340     1.0000 0.69700  0.87120  0.79560  Biso   1.000  C
  C341     1.0000 0.12880  0.82580  0.79560  Biso   1.000  C
  C342     1.0000 0.17420  0.30300  0.79560  Biso   1.000  C
  C343     1.0000 0.37500  0.13870  0.16910  Biso   1.000  C
  C344     1.0000 0.86130  0.23630  0.16910  Biso   1.000  C
  C345     1.0000 0.76370  0.62500  0.16910  Biso   1.000  C
  C346     1.0000 0.62500  0.86130  0.83090  Biso   1.000  C
  C347     1.0000 0.13870  0.76370  0.83090  Biso   1.000  C
  C348     1.0000 0.23630  0.37500  0.83090  Biso   1.000  C
  H265     1.0000 0.43540  0.15420  0.18740  Biso   1.000  H
  H266     1.0000 0.84580  0.28120  0.18740  Biso   1.000  H
  H267     1.0000 0.71880  0.56460  0.18740  Biso   1.000  H
  H268     1.0000 0.56460  0.84580  0.81260  Biso   1.000  H
  H269     1.0000 0.15420  0.71880  0.81260  Biso   1.000  H
  H270     1.0000 0.28120  0.43540  0.81260  Biso   1.000  H
  C349     1.0000 0.35970  0.12470  0.09720  Biso   1.000  C
  C350     1.0000 0.87530  0.23500  0.09720  Biso   1.000  C
  C351     1.0000 0.76500  0.64030  0.09720  Biso   1.000  C
  C352     1.0000 0.64030  0.87530  0.90280  Biso   1.000  C
  C353     1.0000 0.12470  0.76500  0.90280  Biso   1.000  C
  C354     1.0000 0.23500  0.35970  0.90280  Biso   1.000  C
  H271     1.0000 0.40790  0.13040  0.06840  Biso   1.000  H
  H272     1.0000 0.86960  0.27750  0.06840  Biso   1.000  H
  H273     1.0000 0.72250  0.59210  0.06840  Biso   1.000  H
  H274     1.0000 0.59210  0.86960  0.93160  Biso   1.000  H
  H275     1.0000 0.13040  0.72250  0.93160  Biso   1.000  H
  H276     1.0000 0.27750  0.40790  0.93160  Biso   1.000  H
  C355     1.0000 0.27630  0.10500  0.08190  Biso   1.000  C
  C356     1.0000 0.89500  0.17130  0.08190  Biso   1.000  C
  C357     1.0000 0.82870  0.72370  0.08190  Biso   1.000  C
  C358     1.0000 0.72370  0.89500  0.91810  Biso   1.000  C
  C359     1.0000 0.10500  0.82870  0.91810  Biso   1.000  C
  C360     1.0000 0.17130  0.27630  0.91810  Biso   1.000  C
  H277     1.0000 0.26180  0.09580  0.03840  Biso   1.000  H
  H278     1.0000 0.90420  0.16600  0.03840  Biso   1.000  H
  H279     1.0000 0.83400  0.73820  0.03840  Biso   1.000  H
  H280     1.0000 0.73820  0.90420  0.96160  Biso   1.000  H
  H281     1.0000 0.09580  0.83400  0.96160  Biso   1.000  H
  H282     1.0000 0.16600  0.26180  0.96160  Biso   1.000  H
  C361     1.0000 0.20500  0.09530  0.11940  Biso   1.000  C
  C362     1.0000 0.90470  0.10970  0.11940  Biso   1.000  C
  C363     1.0000 0.89030  0.79500  0.11940  Biso   1.000  C
  C364     1.0000 0.79500  0.90470  0.88060  Biso   1.000  C
  C365     1.0000 0.09530  0.89030  0.88060  Biso   1.000  C
  C366     1.0000 0.10970  0.20500  0.88060  Biso   1.000  C
  H283     1.0000 0.14340  0.07960  0.10300  Biso   1.000  H
  H284     1.0000 0.92040  0.06380  0.10300  Biso   1.000  H
  H285     1.0000 0.93620  0.85660  0.10300  Biso   1.000  H
  H286     1.0000 0.85660  0.92040  0.89700  Biso   1.000  H
  H287     1.0000 0.07960  0.93620  0.89700  Biso   1.000  H
  H288     1.0000 0.06380  0.14340  0.89700  Biso   1.000  H
  N67      1.0000 0.22350  0.10840  0.18080  Biso   1.000  N
  N68      1.0000 0.89160  0.11510  0.18080  Biso   1.000  N
  N69      1.0000 0.88490  0.77650  0.18080  Biso   1.000  N
  N70      1.0000 0.77650  0.89160  0.81920  Biso   1.000  N
  N71      1.0000 0.10840  0.88490  0.81920  Biso   1.000  N
  N72      1.0000 0.11510  0.22350  0.81920  Biso   1.000  N
  O55      1.0000 0.00370  0.91170  0.50130  Biso   1.000  O
  O56      1.0000 0.08830  0.09200  0.50130  Biso   1.000  O
  O57      1.0000 0.90800  0.99630  0.50130  Biso   1.000  O
  O58      1.0000 0.99630  0.08830  0.49870  Biso   1.000  O
  O59      1.0000 0.91170  0.90800  0.49870  Biso   1.000  O
  O60      1.0000 0.09200  0.00370  0.49870  Biso   1.000  O
  Cl3      1.0000 0.66670  0.33330  0.01777  Biso   1.000  Cl
  Cl4      1.0000 0.33330  0.66670  0.98223  Biso   1.000  Cl
  O61      1.0000 0.66670  0.33330  0.08520  Biso   1.000  O
  O62      1.0000 0.33330  0.66670  0.91480  Biso   1.000  O
  O63      1.0000 0.76480  0.36990  0.99530  Biso   1.000  O
  O64      1.0000 0.63010  0.39490  0.99530  Biso   1.000  O
  O65      1.0000 0.60510  0.23520  0.99530  Biso   1.000  O
  O66      1.0000 0.23520  0.63010  0.00470  Biso   1.000  O
  O67      1.0000 0.36990  0.60510  0.00470  Biso   1.000  O
  O68      1.0000 0.39490  0.76480  0.00470  Biso   1.000  O
  O69      1.0000 0.26930  0.66830  0.54210  Biso   1.000  O
  O70      1.0000 0.33170  0.60100  0.54210  Biso   1.000  O
  O71      1.0000 0.39900  0.73070  0.54210  Biso   1.000  O
  O72      1.0000 0.73070  0.33170  0.45790  Biso   1.000  O
  O73      1.0000 0.66830  0.39900  0.45790  Biso   1.000  O
  O74      1.0000 0.60100  0.26930  0.45790  Biso   1.000  O
  O75      1.0000 0.38240  0.72030  0.43930  Biso   1.000  O
  O76      1.0000 0.27970  0.66210  0.43930  Biso   1.000  O
  O77      1.0000 0.33790  0.61760  0.43930  Biso   1.000  O
  O78      1.0000 0.61760  0.27970  0.56070  Biso   1.000  O
  O79      1.0000 0.72030  0.33790  0.56070  Biso   1.000  O
  O80      1.0000 0.66210  0.38240  0.56070  Biso   1.000  O
  Cl5      1.0000 0.00000  0.00000  0.50000  Biso   1.000  Cl
  O81      1.0000 0.99800  0.93800  0.45010  Biso   1.000  O
  O82      1.0000 0.06200  0.06000  0.45010  Biso   1.000  O
  O83      1.0000 0.94000  0.00200  0.45010  Biso   1.000  O
  O84      1.0000 0.00200  0.06200  0.54990  Biso   1.000  O
  O85      1.0000 0.93800  0.94000  0.54990  Biso   1.000  O
  O86      1.0000 0.06000  0.99800  0.54990  Biso   1.000  O
  O87      1.0000 0.94090  0.93850  0.44960  Biso   1.000  O
  O88      1.0000 0.06150  0.00240  0.44960  Biso   1.000  O
  O89      1.0000 0.99760  0.05910  0.44960  Biso   1.000  O
  O90      1.0000 0.05910  0.06150  0.55040  Biso   1.000  O
  O91      1.0000 0.93850  0.99760  0.55040  Biso   1.000  O
  O92      1.0000 0.00240  0.94090  0.55040  Biso   1.000  O
  Cl6      1.0000 0.00000  0.00000  0.02055  Biso   1.000  Cl
  Cl7      1.0000 0.00000  0.00000  0.97945  Biso   1.000  Cl
  O93      1.0000 0.00000  0.00000  0.08690  Biso   1.000  O
  O94      1.0000 0.00000  0.00000  0.91310  Biso   1.000  O
  O95      1.0000 0.05020  0.94930  0.00370  Biso   1.000  O
  O96      1.0000 0.05070  0.10090  0.00370  Biso   1.000  O
  O97      1.0000 0.89910  0.94980  0.00370  Biso   1.000  O
  O98      1.0000 0.94980  0.05070  0.99630  Biso   1.000  O
  O99      1.0000 0.94930  0.89910  0.99630  Biso   1.000  O
  O100     1.0000 0.10090  0.05020  0.99630  Biso   1.000  O
  Cl8      1.0000 0.33330  0.66670  0.49493  Biso   1.000  Cl
  Cl9      1.0000 0.66670  0.33330  0.50507  Biso   1.000  Cl
  O101     1.0000 0.24140  0.66200  0.50020  Biso   1.000  O
  O102     1.0000 0.33800  0.57940  0.50020  Biso   1.000  O
  O103     1.0000 0.42060  0.75860  0.50020  Biso   1.000  O
  O104     1.0000 0.75860  0.33800  0.49980  Biso   1.000  O
  O105     1.0000 0.66200  0.42060  0.49980  Biso   1.000  O
  O106     1.0000 0.57940  0.24140  0.49980  Biso   1.000  O
  O107     1.0000 0.26290  0.68870  0.52050  Biso   1.000  O
  O108     1.0000 0.31130  0.57420  0.52050  Biso   1.000  O
  O109     1.0000 0.42580  0.73710  0.52050  Biso   1.000  O
  O110     1.0000 0.73710  0.31130  0.47950  Biso   1.000  O
  O111     1.0000 0.68870  0.42580  0.47950  Biso   1.000  O
  O112     1.0000 0.57420  0.26290  0.47950  Biso   1.000  O
  O113     1.0000 0.33330  0.66670  0.42728  Biso   1.000  O
  O114     1.0000 0.66670  0.33330  0.57272  Biso   1.000  O
