data_image0
_cell_length_a       42.26
_cell_length_b       42.26
_cell_length_c       9.636
_cell_angle_alpha    90
_cell_angle_beta     90
_cell_angle_gamma    90

_symmetry_space_group_name_H-M    "P 1"
_symmetry_int_tables_number       1

loop_
  _symmetry_equiv_pos_as_xyz
  'x, y, z'

loop_
  _atom_site_label
  _atom_site_occupancy
  _atom_site_fract_x
  _atom_site_fract_y
  _atom_site_fract_z
  _atom_site_thermal_displace_type
  _atom_site_B_iso_or_equiv
  _atom_site_type_symbol
  Cu1      1.0000 0.84979  0.16993  0.69407  Biso   1.000  Cu
  Cu2      1.0000 0.58007  0.09979  0.94407  Biso   1.000  Cu
  Cu3      1.0000 0.41993  0.40021  0.94407  Biso   1.000  Cu
  Cu4      1.0000 0.34979  0.66993  0.19407  Biso   1.000  Cu
  Cu5      1.0000 0.08007  0.59979  0.44407  Biso   1.000  Cu
  Cu6      1.0000 0.15021  0.33007  0.69407  Biso   1.000  Cu
  Cu7      1.0000 0.65021  0.83007  0.19407  Biso   1.000  Cu
  Cu8      1.0000 0.91993  0.90021  0.44407  Biso   1.000  Cu
  Cu9      1.0000 0.15021  0.83007  0.30593  Biso   1.000  Cu
  Cu10     1.0000 0.91993  0.40021  0.55593  Biso   1.000  Cu
  Cu11     1.0000 0.08007  0.09979  0.55593  Biso   1.000  Cu
  Cu12     1.0000 0.65021  0.33007  0.80593  Biso   1.000  Cu
  Cu13     1.0000 0.41993  0.90021  0.05593  Biso   1.000  Cu
  Cu14     1.0000 0.84979  0.66993  0.30593  Biso   1.000  Cu
  Cu15     1.0000 0.34979  0.16993  0.80593  Biso   1.000  Cu
  Cu16     1.0000 0.58007  0.59979  0.05593  Biso   1.000  Cu
  Cu17     1.0000 0.86574  0.14007  0.19129  Biso   1.000  Cu
  Cu18     1.0000 0.60993  0.11574  0.44129  Biso   1.000  Cu
  Cu19     1.0000 0.39007  0.38426  0.44129  Biso   1.000  Cu
  Cu20     1.0000 0.36574  0.64007  0.69129  Biso   1.000  Cu
  Cu21     1.0000 0.10993  0.61574  0.94129  Biso   1.000  Cu
  Cu22     1.0000 0.13426  0.35993  0.19129  Biso   1.000  Cu
  Cu23     1.0000 0.63426  0.85993  0.69129  Biso   1.000  Cu
  Cu24     1.0000 0.89007  0.88426  0.94129  Biso   1.000  Cu
  Cu25     1.0000 0.13426  0.85993  0.80871  Biso   1.000  Cu
  Cu26     1.0000 0.89007  0.38426  0.05871  Biso   1.000  Cu
  Cu27     1.0000 0.10993  0.11574  0.05871  Biso   1.000  Cu
  Cu28     1.0000 0.63426  0.35993  0.30871  Biso   1.000  Cu
  Cu29     1.0000 0.39007  0.88426  0.55871  Biso   1.000  Cu
  Cu30     1.0000 0.86574  0.64007  0.80871  Biso   1.000  Cu
  Cu31     1.0000 0.36574  0.14007  0.30871  Biso   1.000  Cu
  Cu32     1.0000 0.60993  0.61574  0.55871  Biso   1.000  Cu
  P1       1.0000 0.81878  0.12433  0.93150  Biso   1.000  P
  P2       1.0000 0.62567  0.06878  0.18150  Biso   1.000  P
  P3       1.0000 0.37433  0.43122  0.18150  Biso   1.000  P
  P4       1.0000 0.31878  0.62433  0.43150  Biso   1.000  P
  P5       1.0000 0.12567  0.56878  0.68150  Biso   1.000  P
  P6       1.0000 0.18122  0.37567  0.93150  Biso   1.000  P
  P7       1.0000 0.68122  0.87567  0.43150  Biso   1.000  P
  P8       1.0000 0.87433  0.93122  0.68150  Biso   1.000  P
  P9       1.0000 0.18122  0.87567  0.06850  Biso   1.000  P
  P10      1.0000 0.87433  0.43122  0.31850  Biso   1.000  P
  P11      1.0000 0.12567  0.06878  0.31850  Biso   1.000  P
  P12      1.0000 0.68122  0.37567  0.56850  Biso   1.000  P
  P13      1.0000 0.37433  0.93122  0.81850  Biso   1.000  P
  P14      1.0000 0.81878  0.62433  0.06850  Biso   1.000  P
  P15      1.0000 0.31878  0.12433  0.56850  Biso   1.000  P
  P16      1.0000 0.62567  0.56878  0.81850  Biso   1.000  P
  P17      1.0000 0.83025  0.19090  0.99560  Biso   1.000  P
  P18      1.0000 0.55910  0.08025  0.24560  Biso   1.000  P
  P19      1.0000 0.44090  0.41975  0.24560  Biso   1.000  P
  P20      1.0000 0.33025  0.69090  0.49560  Biso   1.000  P
  P21      1.0000 0.05910  0.58025  0.74560  Biso   1.000  P
  P22      1.0000 0.16975  0.30910  0.99560  Biso   1.000  P
  P23      1.0000 0.66975  0.80910  0.49560  Biso   1.000  P
  P24      1.0000 0.94090  0.91975  0.74560  Biso   1.000  P
  P25      1.0000 0.16975  0.80910  0.00440  Biso   1.000  P
  P26      1.0000 0.94090  0.41975  0.25440  Biso   1.000  P
  P27      1.0000 0.05910  0.08025  0.25440  Biso   1.000  P
  P28      1.0000 0.66975  0.30910  0.50440  Biso   1.000  P
  P29      1.0000 0.44090  0.91975  0.75440  Biso   1.000  P
  P30      1.0000 0.83025  0.69090  0.00440  Biso   1.000  P
  P31      1.0000 0.33025  0.19090  0.50440  Biso   1.000  P
  P32      1.0000 0.55910  0.58025  0.75440  Biso   1.000  P
  P33      1.0000 0.81224  0.13977  0.43280  Biso   1.000  P
  P34      1.0000 0.61023  0.06224  0.68280  Biso   1.000  P
  P35      1.0000 0.38977  0.43776  0.68280  Biso   1.000  P
  P36      1.0000 0.31224  0.63977  0.93280  Biso   1.000  P
  P37      1.0000 0.11023  0.56224  0.18280  Biso   1.000  P
  P38      1.0000 0.18776  0.36023  0.43280  Biso   1.000  P
  P39      1.0000 0.68776  0.86023  0.93280  Biso   1.000  P
  P40      1.0000 0.88977  0.93776  0.18280  Biso   1.000  P
  P41      1.0000 0.18776  0.86023  0.56720  Biso   1.000  P
  P42      1.0000 0.88977  0.43776  0.81720  Biso   1.000  P
  P43      1.0000 0.11023  0.06224  0.81720  Biso   1.000  P
  P44      1.0000 0.68776  0.36023  0.06720  Biso   1.000  P
  P45      1.0000 0.38977  0.93776  0.31720  Biso   1.000  P
  P46      1.0000 0.81224  0.63977  0.56720  Biso   1.000  P
  P47      1.0000 0.31224  0.13977  0.06720  Biso   1.000  P
  P48      1.0000 0.61023  0.56224  0.31720  Biso   1.000  P
  P49      1.0000 0.87514  0.11419  0.49660  Biso   1.000  P
  P50      1.0000 0.63581  0.12514  0.74660  Biso   1.000  P
  P51      1.0000 0.36419  0.37486  0.74660  Biso   1.000  P
  P52      1.0000 0.37514  0.61419  0.99660  Biso   1.000  P
  P53      1.0000 0.13581  0.62514  0.24660  Biso   1.000  P
  P54      1.0000 0.12486  0.38581  0.49660  Biso   1.000  P
  P55      1.0000 0.62486  0.88581  0.99660  Biso   1.000  P
  P56      1.0000 0.86419  0.87486  0.24660  Biso   1.000  P
  P57      1.0000 0.12486  0.88581  0.50340  Biso   1.000  P
  P58      1.0000 0.86419  0.37486  0.75340  Biso   1.000  P
  P59      1.0000 0.13581  0.12514  0.75340  Biso   1.000  P
  P60      1.0000 0.62486  0.38581  0.00340  Biso   1.000  P
  P61      1.0000 0.36419  0.87486  0.25340  Biso   1.000  P
  P62      1.0000 0.87514  0.61419  0.50340  Biso   1.000  P
  P63      1.0000 0.37514  0.11419  0.00340  Biso   1.000  P
  P64      1.0000 0.63581  0.62514  0.25340  Biso   1.000  P
  O1       1.0000 0.83634  0.13235  0.79660  Biso   1.000  O
  O2       1.0000 0.61765  0.08634  0.04660  Biso   1.000  O
  O3       1.0000 0.38235  0.41366  0.04660  Biso   1.000  O
  O4       1.0000 0.33634  0.63235  0.29660  Biso   1.000  O
  O5       1.0000 0.11765  0.58634  0.54660  Biso   1.000  O
  O6       1.0000 0.16366  0.36765  0.79660  Biso   1.000  O
  O7       1.0000 0.66366  0.86765  0.29660  Biso   1.000  O
  O8       1.0000 0.88235  0.91366  0.54660  Biso   1.000  O
  O9       1.0000 0.16366  0.86765  0.20340  Biso   1.000  O
  O10      1.0000 0.88235  0.41366  0.45340  Biso   1.000  O
  O11      1.0000 0.11765  0.08634  0.45340  Biso   1.000  O
  O12      1.0000 0.66366  0.36765  0.70340  Biso   1.000  O
  O13      1.0000 0.38235  0.91366  0.95340  Biso   1.000  O
  O14      1.0000 0.83634  0.63235  0.20340  Biso   1.000  O
  O15      1.0000 0.33634  0.13235  0.70340  Biso   1.000  O
  O16      1.0000 0.61765  0.58634  0.95340  Biso   1.000  O
  O17      1.0000 0.83832  0.11037  0.04680  Biso   1.000  O
  O18      1.0000 0.63963  0.08832  0.29680  Biso   1.000  O
  O19      1.0000 0.36037  0.41168  0.29680  Biso   1.000  O
  O20      1.0000 0.33832  0.61037  0.54680  Biso   1.000  O
  O21      1.0000 0.13963  0.58832  0.79680  Biso   1.000  O
  O22      1.0000 0.16168  0.38963  0.04680  Biso   1.000  O
  O23      1.0000 0.66168  0.88963  0.54680  Biso   1.000  O
  O24      1.0000 0.86037  0.91168  0.79680  Biso   1.000  O
  O25      1.0000 0.16168  0.88963  0.95320  Biso   1.000  O
  O26      1.0000 0.86037  0.41168  0.20320  Biso   1.000  O
  O27      1.0000 0.13963  0.08832  0.20320  Biso   1.000  O
  O28      1.0000 0.66168  0.38963  0.45320  Biso   1.000  O
  O29      1.0000 0.36037  0.91168  0.70320  Biso   1.000  O
  O30      1.0000 0.83832  0.61037  0.95320  Biso   1.000  O
  O31      1.0000 0.33832  0.11037  0.45320  Biso   1.000  O
  O32      1.0000 0.63963  0.58832  0.70320  Biso   1.000  O
  O33      1.0000 0.83827  0.19877  0.84820  Biso   1.000  O
  O34      1.0000 0.55123  0.08827  0.09820  Biso   1.000  O
  O35      1.0000 0.44877  0.41173  0.09820  Biso   1.000  O
  O36      1.0000 0.33827  0.69877  0.34820  Biso   1.000  O
  O37      1.0000 0.05123  0.58827  0.59820  Biso   1.000  O
  O38      1.0000 0.16173  0.30123  0.84820  Biso   1.000  O
  O39      1.0000 0.66173  0.80123  0.34820  Biso   1.000  O
  O40      1.0000 0.94877  0.91173  0.59820  Biso   1.000  O
  O41      1.0000 0.16173  0.80123  0.15180  Biso   1.000  O
  O42      1.0000 0.94877  0.41173  0.40180  Biso   1.000  O
  O43      1.0000 0.05123  0.08827  0.40180  Biso   1.000  O
  O44      1.0000 0.66173  0.30123  0.65180  Biso   1.000  O
  O45      1.0000 0.44877  0.91173  0.90180  Biso   1.000  O
  O46      1.0000 0.83827  0.69877  0.15180  Biso   1.000  O
  O47      1.0000 0.33827  0.19877  0.65180  Biso   1.000  O
  O48      1.0000 0.55123  0.58827  0.90180  Biso   1.000  O
  O49      1.0000 0.85783  0.18039  0.08140  Biso   1.000  O
  O50      1.0000 0.56961  0.10783  0.33140  Biso   1.000  O
  O51      1.0000 0.43039  0.39217  0.33140  Biso   1.000  O
  O52      1.0000 0.35783  0.68039  0.58140  Biso   1.000  O
  O53      1.0000 0.06961  0.60783  0.83140  Biso   1.000  O
  O54      1.0000 0.14217  0.31961  0.08140  Biso   1.000  O
  O55      1.0000 0.64217  0.81961  0.58140  Biso   1.000  O
  O56      1.0000 0.93039  0.89217  0.83140  Biso   1.000  O
  O57      1.0000 0.14217  0.81961  0.91860  Biso   1.000  O
  O58      1.0000 0.93039  0.39217  0.16860  Biso   1.000  O
  O59      1.0000 0.06961  0.10783  0.16860  Biso   1.000  O
  O60      1.0000 0.64217  0.31961  0.41860  Biso   1.000  O
  O61      1.0000 0.43039  0.89217  0.66860  Biso   1.000  O
  O62      1.0000 0.85783  0.68039  0.91860  Biso   1.000  O
  O63      1.0000 0.35783  0.18039  0.41860  Biso   1.000  O
  O64      1.0000 0.56961  0.60783  0.66860  Biso   1.000  O
  O65      1.0000 0.82752  0.14980  0.29930  Biso   1.000  O
  O66      1.0000 0.60020  0.07752  0.54930  Biso   1.000  O
  O67      1.0000 0.39980  0.42248  0.54930  Biso   1.000  O
  O68      1.0000 0.32752  0.64980  0.79930  Biso   1.000  O
  O69      1.0000 0.10020  0.57752  0.04930  Biso   1.000  O
  O70      1.0000 0.17248  0.35020  0.29930  Biso   1.000  O
  O71      1.0000 0.67248  0.85020  0.79930  Biso   1.000  O
  O72      1.0000 0.89980  0.92248  0.04930  Biso   1.000  O
  O73      1.0000 0.17248  0.85020  0.70070  Biso   1.000  O
  O74      1.0000 0.89980  0.42248  0.95070  Biso   1.000  O
  O75      1.0000 0.10020  0.07752  0.95070  Biso   1.000  O
  O76      1.0000 0.67248  0.35020  0.20070  Biso   1.000  O
  O77      1.0000 0.39980  0.92248  0.45070  Biso   1.000  O
  O78      1.0000 0.82752  0.64980  0.70070  Biso   1.000  O
  O79      1.0000 0.32752  0.14980  0.20070  Biso   1.000  O
  O80      1.0000 0.60020  0.57752  0.45070  Biso   1.000  O
  O81      1.0000 0.81135  0.16369  0.54720  Biso   1.000  O
  O82      1.0000 0.58631  0.06135  0.79720  Biso   1.000  O
  O83      1.0000 0.41369  0.43865  0.79720  Biso   1.000  O
  O84      1.0000 0.31135  0.66369  0.04720  Biso   1.000  O
  O85      1.0000 0.08631  0.56135  0.29720  Biso   1.000  O
  O86      1.0000 0.18865  0.33631  0.54720  Biso   1.000  O
  O87      1.0000 0.68865  0.83631  0.04720  Biso   1.000  O
  O88      1.0000 0.91369  0.93865  0.29720  Biso   1.000  O
  O89      1.0000 0.18865  0.83631  0.45280  Biso   1.000  O
  O90      1.0000 0.91369  0.43865  0.70280  Biso   1.000  O
  O91      1.0000 0.08631  0.06135  0.70280  Biso   1.000  O
  O92      1.0000 0.68865  0.33631  0.95280  Biso   1.000  O
  O93      1.0000 0.41369  0.93865  0.20280  Biso   1.000  O
  O94      1.0000 0.81135  0.66369  0.45280  Biso   1.000  O
  O95      1.0000 0.31135  0.16369  0.95280  Biso   1.000  O
  O96      1.0000 0.58631  0.56135  0.20280  Biso   1.000  O
  O97      1.0000 0.88595  0.11820  0.34810  Biso   1.000  O
  O98      1.0000 0.63180  0.13595  0.59810  Biso   1.000  O
  O99      1.0000 0.36820  0.36405  0.59810  Biso   1.000  O
  O100     1.0000 0.38595  0.61820  0.84810  Biso   1.000  O
  O101     1.0000 0.13180  0.63595  0.09810  Biso   1.000  O
  O102     1.0000 0.11405  0.38180  0.34810  Biso   1.000  O
  O103     1.0000 0.61405  0.88180  0.84810  Biso   1.000  O
  O104     1.0000 0.86820  0.86405  0.09810  Biso   1.000  O
  O105     1.0000 0.11405  0.88180  0.65190  Biso   1.000  O
  O106     1.0000 0.86820  0.36405  0.90190  Biso   1.000  O
  O107     1.0000 0.13180  0.13595  0.90190  Biso   1.000  O
  O108     1.0000 0.61405  0.38180  0.15190  Biso   1.000  O
  O109     1.0000 0.36820  0.86405  0.40190  Biso   1.000  O
  O110     1.0000 0.88595  0.61820  0.65190  Biso   1.000  O
  O111     1.0000 0.38595  0.11820  0.15190  Biso   1.000  O
  O112     1.0000 0.63180  0.63595  0.40190  Biso   1.000  O
  O113     1.0000 0.88054  0.14236  0.58990  Biso   1.000  O
  O114     1.0000 0.60764  0.13054  0.83990  Biso   1.000  O
  O115     1.0000 0.39236  0.36946  0.83990  Biso   1.000  O
  O116     1.0000 0.38054  0.64236  0.08990  Biso   1.000  O
  O117     1.0000 0.10764  0.63054  0.33990  Biso   1.000  O
  O118     1.0000 0.11946  0.35764  0.58990  Biso   1.000  O
  O119     1.0000 0.61946  0.85764  0.08990  Biso   1.000  O
  O120     1.0000 0.89236  0.86946  0.33990  Biso   1.000  O
  O121     1.0000 0.11946  0.85764  0.41010  Biso   1.000  O
  O122     1.0000 0.89236  0.36946  0.66010  Biso   1.000  O
  O123     1.0000 0.10764  0.13054  0.66010  Biso   1.000  O
  O124     1.0000 0.61946  0.35764  0.91010  Biso   1.000  O
  O125     1.0000 0.39236  0.86946  0.16010  Biso   1.000  O
  O126     1.0000 0.88054  0.64236  0.41010  Biso   1.000  O
  O127     1.0000 0.38054  0.14236  0.91010  Biso   1.000  O
  O128     1.0000 0.60764  0.63054  0.16010  Biso   1.000  O
  N1       1.0000 0.86513  0.20803  0.58940  Biso   1.000  N
  N2       1.0000 0.54197  0.11513  0.83940  Biso   1.000  N
  N3       1.0000 0.45803  0.38487  0.83940  Biso   1.000  N
  N4       1.0000 0.36513  0.70803  0.08940  Biso   1.000  N
  N5       1.0000 0.04197  0.61513  0.33940  Biso   1.000  N
  N6       1.0000 0.13487  0.29197  0.58940  Biso   1.000  N
  N7       1.0000 0.63487  0.79197  0.08940  Biso   1.000  N
  N8       1.0000 0.95803  0.88487  0.33940  Biso   1.000  N
  N9       1.0000 0.13487  0.79197  0.41060  Biso   1.000  N
  N10      1.0000 0.95803  0.38487  0.66060  Biso   1.000  N
  N11      1.0000 0.04197  0.11513  0.66060  Biso   1.000  N
  N12      1.0000 0.63487  0.29197  0.91060  Biso   1.000  N
  N13      1.0000 0.45803  0.88487  0.16060  Biso   1.000  N
  N14      1.0000 0.86513  0.70803  0.41060  Biso   1.000  N
  N15      1.0000 0.36513  0.20803  0.91060  Biso   1.000  N
  N16      1.0000 0.54197  0.61513  0.16060  Biso   1.000  N
  N17      1.0000 0.88525  0.34412  0.16370  Biso   1.000  N
  N18      1.0000 0.40588  0.13525  0.41370  Biso   1.000  N
  N19      1.0000 0.59412  0.36475  0.41370  Biso   1.000  N
  N20      1.0000 0.38525  0.84412  0.66370  Biso   1.000  N
  N21      1.0000 0.90588  0.63525  0.91370  Biso   1.000  N
  N22      1.0000 0.11475  0.15588  0.16370  Biso   1.000  N
  N23      1.0000 0.61475  0.65588  0.66370  Biso   1.000  N
  N24      1.0000 0.09412  0.86475  0.91370  Biso   1.000  N
  N25      1.0000 0.11475  0.65588  0.83630  Biso   1.000  N
  N26      1.0000 0.09412  0.36475  0.08630  Biso   1.000  N
  N27      1.0000 0.90588  0.13525  0.08630  Biso   1.000  N
  N28      1.0000 0.61475  0.15588  0.33630  Biso   1.000  N
  N29      1.0000 0.59412  0.86475  0.58630  Biso   1.000  N
  N30      1.0000 0.88525  0.84412  0.83630  Biso   1.000  N
  N31      1.0000 0.38525  0.34412  0.33630  Biso   1.000  N
  N32      1.0000 0.40588  0.63525  0.58630  Biso   1.000  N
  C1       1.0000 0.80027  0.16038  0.99300  Biso   1.000  C
  C2       1.0000 0.58962  0.05027  0.24300  Biso   1.000  C
  C3       1.0000 0.41038  0.44973  0.24300  Biso   1.000  C
  C4       1.0000 0.30027  0.66038  0.49300  Biso   1.000  C
  C5       1.0000 0.08962  0.55027  0.74300  Biso   1.000  C
  C6       1.0000 0.19973  0.33962  0.99300  Biso   1.000  C
  C7       1.0000 0.69973  0.83962  0.49300  Biso   1.000  C
  C8       1.0000 0.91038  0.94973  0.74300  Biso   1.000  C
  C9       1.0000 0.19973  0.83962  0.00700  Biso   1.000  C
  C10      1.0000 0.91038  0.44973  0.25700  Biso   1.000  C
  C11      1.0000 0.08962  0.05027  0.25700  Biso   1.000  C
  C12      1.0000 0.69973  0.33962  0.50700  Biso   1.000  C
  C13      1.0000 0.41038  0.94973  0.75700  Biso   1.000  C
  C14      1.0000 0.80027  0.66038  0.00700  Biso   1.000  C
  C15      1.0000 0.30027  0.16038  0.50700  Biso   1.000  C
  C16      1.0000 0.58962  0.55027  0.75700  Biso   1.000  C
  H1       1.0000 0.78310  0.16640  0.93170  Biso   1.000  H
  H2       1.0000 0.58360  0.03310  0.18170  Biso   1.000  H
  H3       1.0000 0.41640  0.46690  0.18170  Biso   1.000  H
  H4       1.0000 0.28310  0.66640  0.43170  Biso   1.000  H
  H5       1.0000 0.08360  0.53310  0.68170  Biso   1.000  H
  H6       1.0000 0.21690  0.33360  0.93170  Biso   1.000  H
  H7       1.0000 0.71690  0.83360  0.43170  Biso   1.000  H
  H8       1.0000 0.91640  0.96690  0.68170  Biso   1.000  H
  H9       1.0000 0.21690  0.83360  0.06830  Biso   1.000  H
  H10      1.0000 0.91640  0.46690  0.31830  Biso   1.000  H
  H11      1.0000 0.08360  0.03310  0.31830  Biso   1.000  H
  H12      1.0000 0.71690  0.33360  0.56830  Biso   1.000  H
  H13      1.0000 0.41640  0.96690  0.81830  Biso   1.000  H
  H14      1.0000 0.78310  0.66640  0.06830  Biso   1.000  H
  H15      1.0000 0.28310  0.16640  0.56830  Biso   1.000  H
  H16      1.0000 0.58360  0.53310  0.81830  Biso   1.000  H
  H17      1.0000 0.79180  0.15720  0.08540  Biso   1.000  H
  H18      1.0000 0.59280  0.04180  0.33540  Biso   1.000  H
  H19      1.0000 0.40720  0.45820  0.33540  Biso   1.000  H
  H20      1.0000 0.29180  0.65720  0.58540  Biso   1.000  H
  H21      1.0000 0.09280  0.54180  0.83540  Biso   1.000  H
  H22      1.0000 0.20820  0.34280  0.08540  Biso   1.000  H
  H23      1.0000 0.70820  0.84280  0.58540  Biso   1.000  H
  H24      1.0000 0.90720  0.95820  0.83540  Biso   1.000  H
  H25      1.0000 0.20820  0.84280  0.91460  Biso   1.000  H
  H26      1.0000 0.90720  0.45820  0.16460  Biso   1.000  H
  H27      1.0000 0.09280  0.04180  0.16460  Biso   1.000  H
  H28      1.0000 0.70820  0.34280  0.41460  Biso   1.000  H
  H29      1.0000 0.40720  0.95820  0.66460  Biso   1.000  H
  H30      1.0000 0.79180  0.65720  0.91460  Biso   1.000  H
  H31      1.0000 0.29180  0.15720  0.41460  Biso   1.000  H
  H32      1.0000 0.59280  0.54180  0.66460  Biso   1.000  H
  C17      1.0000 0.83431  0.10578  0.49250  Biso   1.000  C
  C18      1.0000 0.64422  0.08431  0.74250  Biso   1.000  C
  C19      1.0000 0.35578  0.41569  0.74250  Biso   1.000  C
  C20      1.0000 0.33431  0.60578  0.99250  Biso   1.000  C
  C21      1.0000 0.14422  0.58431  0.24250  Biso   1.000  C
  C22      1.0000 0.16569  0.39422  0.49250  Biso   1.000  C
  C23      1.0000 0.66569  0.89422  0.99250  Biso   1.000  C
  C24      1.0000 0.85578  0.91569  0.24250  Biso   1.000  C
  C25      1.0000 0.16569  0.89422  0.50750  Biso   1.000  C
  C26      1.0000 0.85578  0.41569  0.75750  Biso   1.000  C
  C27      1.0000 0.14422  0.08431  0.75750  Biso   1.000  C
  C28      1.0000 0.66569  0.39422  0.00750  Biso   1.000  C
  C29      1.0000 0.35578  0.91569  0.25750  Biso   1.000  C
  C30      1.0000 0.83431  0.60578  0.50750  Biso   1.000  C
  C31      1.0000 0.33431  0.10578  0.00750  Biso   1.000  C
  C32      1.0000 0.64422  0.58431  0.25750  Biso   1.000  C
  H33      1.0000 0.82720  0.09990  0.58470  Biso   1.000  H
  H34      1.0000 0.65010  0.07720  0.83470  Biso   1.000  H
  H35      1.0000 0.34990  0.42280  0.83470  Biso   1.000  H
  H36      1.0000 0.32720  0.59990  0.08470  Biso   1.000  H
  H37      1.0000 0.15010  0.57720  0.33470  Biso   1.000  H
  H38      1.0000 0.17280  0.40010  0.58470  Biso   1.000  H
  H39      1.0000 0.67280  0.90010  0.08470  Biso   1.000  H
  H40      1.0000 0.84990  0.92280  0.33470  Biso   1.000  H
  H41      1.0000 0.17280  0.90010  0.41530  Biso   1.000  H
  H42      1.0000 0.84990  0.42280  0.66530  Biso   1.000  H
  H43      1.0000 0.15010  0.07720  0.66530  Biso   1.000  H
  H44      1.0000 0.67280  0.40010  0.91530  Biso   1.000  H
  H45      1.0000 0.34990  0.92280  0.16530  Biso   1.000  H
  H46      1.0000 0.82720  0.59990  0.41530  Biso   1.000  H
  H47      1.0000 0.32720  0.09990  0.91530  Biso   1.000  H
  H48      1.0000 0.65010  0.57720  0.16530  Biso   1.000  H
  H49      1.0000 0.83050  0.08800  0.43100  Biso   1.000  H
  H50      1.0000 0.66200  0.08050  0.68100  Biso   1.000  H
  H51      1.0000 0.33800  0.41950  0.68100  Biso   1.000  H
  H52      1.0000 0.33050  0.58800  0.93100  Biso   1.000  H
  H53      1.0000 0.16200  0.58050  0.18100  Biso   1.000  H
  H54      1.0000 0.16950  0.41200  0.43100  Biso   1.000  H
  H55      1.0000 0.66950  0.91200  0.93100  Biso   1.000  H
  H56      1.0000 0.83800  0.91950  0.18100  Biso   1.000  H
  H57      1.0000 0.16950  0.91200  0.56900  Biso   1.000  H
  H58      1.0000 0.83800  0.41950  0.81900  Biso   1.000  H
  H59      1.0000 0.16200  0.08050  0.81900  Biso   1.000  H
  H60      1.0000 0.66950  0.41200  0.06900  Biso   1.000  H
  H61      1.0000 0.33800  0.91950  0.31900  Biso   1.000  H
  H62      1.0000 0.83050  0.58800  0.56900  Biso   1.000  H
  H63      1.0000 0.33050  0.08800  0.06900  Biso   1.000  H
  H64      1.0000 0.66200  0.58050  0.31900  Biso   1.000  H
  C33      1.0000 0.86190  0.23670  0.62920  Biso   1.000  C
  C34      1.0000 0.51330  0.11190  0.87920  Biso   1.000  C
  C35      1.0000 0.48670  0.38810  0.87920  Biso   1.000  C
  C36      1.0000 0.36190  0.73670  0.12920  Biso   1.000  C
  C37      1.0000 0.01330  0.61190  0.37920  Biso   1.000  C
  C38      1.0000 0.13810  0.26330  0.62920  Biso   1.000  C
  C39      1.0000 0.63810  0.76330  0.12920  Biso   1.000  C
  C40      1.0000 0.98670  0.88810  0.37920  Biso   1.000  C
  C41      1.0000 0.13810  0.76330  0.37080  Biso   1.000  C
  C42      1.0000 0.98670  0.38810  0.62080  Biso   1.000  C
  C43      1.0000 0.01330  0.11190  0.62080  Biso   1.000  C
  C44      1.0000 0.63810  0.26330  0.87080  Biso   1.000  C
  C45      1.0000 0.48670  0.88810  0.12080  Biso   1.000  C
  C46      1.0000 0.86190  0.73670  0.37080  Biso   1.000  C
  C47      1.0000 0.36190  0.23670  0.87080  Biso   1.000  C
  C48      1.0000 0.51330  0.61190  0.12080  Biso   1.000  C
  H65      1.0000 0.85630  0.23990  0.72150  Biso   1.000  H
  H66      1.0000 0.51010  0.10630  0.97150  Biso   1.000  H
  H67      1.0000 0.48990  0.39370  0.97150  Biso   1.000  H
  H68      1.0000 0.35630  0.73990  0.22150  Biso   1.000  H
  H69      1.0000 0.01010  0.60630  0.47150  Biso   1.000  H
  H70      1.0000 0.14370  0.26010  0.72150  Biso   1.000  H
  H71      1.0000 0.64370  0.76010  0.22150  Biso   1.000  H
  H72      1.0000 0.98990  0.89370  0.47150  Biso   1.000  H
  H73      1.0000 0.14370  0.76010  0.27850  Biso   1.000  H
  H74      1.0000 0.98990  0.39370  0.52850  Biso   1.000  H
  H75      1.0000 0.01010  0.10630  0.52850  Biso   1.000  H
  H76      1.0000 0.64370  0.26010  0.77850  Biso   1.000  H
  H77      1.0000 0.48990  0.89370  0.02850  Biso   1.000  H
  H78      1.0000 0.85630  0.73990  0.27850  Biso   1.000  H
  H79      1.0000 0.35630  0.23990  0.77850  Biso   1.000  H
  H80      1.0000 0.51010  0.60630  0.02850  Biso   1.000  H
  C49      1.0000 0.86580  0.26320  0.54910  Biso   1.000  C
  C50      1.0000 0.48680  0.11580  0.79910  Biso   1.000  C
  C51      1.0000 0.51320  0.38420  0.79910  Biso   1.000  C
  C52      1.0000 0.36580  0.76320  0.04910  Biso   1.000  C
  C53      1.0000 0.98680  0.61580  0.29910  Biso   1.000  C
  C54      1.0000 0.13420  0.23680  0.54910  Biso   1.000  C
  C55      1.0000 0.63420  0.73680  0.04910  Biso   1.000  C
  C56      1.0000 0.01320  0.88420  0.29910  Biso   1.000  C
  C57      1.0000 0.13420  0.73680  0.45090  Biso   1.000  C
  C58      1.0000 0.01320  0.38420  0.70090  Biso   1.000  C
  C59      1.0000 0.98680  0.11580  0.70090  Biso   1.000  C
  C60      1.0000 0.63420  0.23680  0.95090  Biso   1.000  C
  C61      1.0000 0.51320  0.88420  0.20090  Biso   1.000  C
  C62      1.0000 0.86580  0.76320  0.45090  Biso   1.000  C
  C63      1.0000 0.36580  0.26320  0.95090  Biso   1.000  C
  C64      1.0000 0.48680  0.61580  0.20090  Biso   1.000  C
  H81      1.0000 0.86140  0.28300  0.58680  Biso   1.000  H
  H82      1.0000 0.46700  0.11140  0.83680  Biso   1.000  H
  H83      1.0000 0.53300  0.38860  0.83680  Biso   1.000  H
  H84      1.0000 0.36140  0.78300  0.08680  Biso   1.000  H
  H85      1.0000 0.96700  0.61140  0.33680  Biso   1.000  H
  H86      1.0000 0.13860  0.21700  0.58680  Biso   1.000  H
  H87      1.0000 0.63860  0.71700  0.08680  Biso   1.000  H
  H88      1.0000 0.03300  0.88860  0.33680  Biso   1.000  H
  H89      1.0000 0.13860  0.71700  0.41320  Biso   1.000  H
  H90      1.0000 0.03300  0.38860  0.66320  Biso   1.000  H
  H91      1.0000 0.96700  0.11140  0.66320  Biso   1.000  H
  H92      1.0000 0.63860  0.21700  0.91320  Biso   1.000  H
  H93      1.0000 0.53300  0.88860  0.16320  Biso   1.000  H
  H94      1.0000 0.86140  0.78300  0.41320  Biso   1.000  H
  H95      1.0000 0.36140  0.28300  0.91320  Biso   1.000  H
  H96      1.0000 0.46700  0.61140  0.16320  Biso   1.000  H
  C65      1.0000 0.87610  0.26120  0.41560  Biso   1.000  C
  C66      1.0000 0.48880  0.12610  0.66560  Biso   1.000  C
  C67      1.0000 0.51120  0.37390  0.66560  Biso   1.000  C
  C68      1.0000 0.37610  0.76120  0.91560  Biso   1.000  C
  C69      1.0000 0.98880  0.62610  0.16560  Biso   1.000  C
  C70      1.0000 0.12390  0.23880  0.41560  Biso   1.000  C
  C71      1.0000 0.62390  0.73880  0.91560  Biso   1.000  C
  C72      1.0000 0.01120  0.87390  0.16560  Biso   1.000  C
  C73      1.0000 0.12390  0.73880  0.58440  Biso   1.000  C
  C74      1.0000 0.01120  0.37390  0.83440  Biso   1.000  C
  C75      1.0000 0.98880  0.12610  0.83440  Biso   1.000  C
  C76      1.0000 0.62390  0.23880  0.08440  Biso   1.000  C
  C77      1.0000 0.51120  0.87390  0.33440  Biso   1.000  C
  C78      1.0000 0.87610  0.76120  0.58440  Biso   1.000  C
  C79      1.0000 0.37610  0.26120  0.08440  Biso   1.000  C
  C80      1.0000 0.48880  0.62610  0.33440  Biso   1.000  C
  C81      1.0000 0.88130  0.23140  0.37170  Biso   1.000  C
  C82      1.0000 0.51860  0.13130  0.62170  Biso   1.000  C
  C83      1.0000 0.48140  0.36870  0.62170  Biso   1.000  C
  C84      1.0000 0.38130  0.73140  0.87170  Biso   1.000  C
  C85      1.0000 0.01860  0.63130  0.12170  Biso   1.000  C
  C86      1.0000 0.11870  0.26860  0.37170  Biso   1.000  C
  C87      1.0000 0.61870  0.76860  0.87170  Biso   1.000  C
  C88      1.0000 0.98140  0.86870  0.12170  Biso   1.000  C
  C89      1.0000 0.11870  0.76860  0.62830  Biso   1.000  C
  C90      1.0000 0.98140  0.36870  0.87830  Biso   1.000  C
  C91      1.0000 0.01860  0.13130  0.87830  Biso   1.000  C
  C92      1.0000 0.61870  0.26860  0.12830  Biso   1.000  C
  C93      1.0000 0.48140  0.86870  0.37830  Biso   1.000  C
  C94      1.0000 0.88130  0.73140  0.62830  Biso   1.000  C
  C95      1.0000 0.38130  0.23140  0.12830  Biso   1.000  C
  C96      1.0000 0.51860  0.63130  0.37830  Biso   1.000  C
  H97      1.0000 0.88800  0.22760  0.28120  Biso   1.000  H
  H98      1.0000 0.52240  0.13800  0.53120  Biso   1.000  H
  H99      1.0000 0.47760  0.36200  0.53120  Biso   1.000  H
  H100     1.0000 0.38800  0.72760  0.78120  Biso   1.000  H
  H101     1.0000 0.02240  0.63800  0.03120  Biso   1.000  H
  H102     1.0000 0.11200  0.27240  0.28120  Biso   1.000  H
  H103     1.0000 0.61200  0.77240  0.78120  Biso   1.000  H
  H104     1.0000 0.97760  0.86200  0.03120  Biso   1.000  H
  H105     1.0000 0.11200  0.77240  0.71880  Biso   1.000  H
  H106     1.0000 0.97760  0.36200  0.96880  Biso   1.000  H
  H107     1.0000 0.02240  0.13800  0.96880  Biso   1.000  H
  H108     1.0000 0.61200  0.27240  0.21880  Biso   1.000  H
  H109     1.0000 0.47760  0.86200  0.46880  Biso   1.000  H
  H110     1.0000 0.88800  0.72760  0.71880  Biso   1.000  H
  H111     1.0000 0.38800  0.22760  0.21880  Biso   1.000  H
  H112     1.0000 0.52240  0.63800  0.46880  Biso   1.000  H
  C97      1.0000 0.87680  0.20700  0.46130  Biso   1.000  C
  C98      1.0000 0.54300  0.12680  0.71130  Biso   1.000  C
  C99      1.0000 0.45700  0.37320  0.71130  Biso   1.000  C
  C100     1.0000 0.37680  0.70700  0.96130  Biso   1.000  C
  C101     1.0000 0.04300  0.62680  0.21130  Biso   1.000  C
  C102     1.0000 0.12320  0.29300  0.46130  Biso   1.000  C
  C103     1.0000 0.62320  0.79300  0.96130  Biso   1.000  C
  C104     1.0000 0.95700  0.87320  0.21130  Biso   1.000  C
  C105     1.0000 0.12320  0.79300  0.53870  Biso   1.000  C
  C106     1.0000 0.95700  0.37320  0.78870  Biso   1.000  C
  C107     1.0000 0.04300  0.12680  0.78870  Biso   1.000  C
  C108     1.0000 0.62320  0.29300  0.03870  Biso   1.000  C
  C109     1.0000 0.45700  0.87320  0.28870  Biso   1.000  C
  C110     1.0000 0.87680  0.70700  0.53870  Biso   1.000  C
  C111     1.0000 0.37680  0.20700  0.03870  Biso   1.000  C
  C112     1.0000 0.54300  0.62680  0.28870  Biso   1.000  C
  H113     1.0000 0.88250  0.18710  0.42900  Biso   1.000  H
  H114     1.0000 0.56290  0.13250  0.67900  Biso   1.000  H
  H115     1.0000 0.43710  0.36750  0.67900  Biso   1.000  H
  H116     1.0000 0.38250  0.68710  0.92900  Biso   1.000  H
  H117     1.0000 0.06290  0.63250  0.17900  Biso   1.000  H
  H118     1.0000 0.11750  0.31290  0.42900  Biso   1.000  H
  H119     1.0000 0.61750  0.81290  0.92900  Biso   1.000  H
  H120     1.0000 0.93710  0.86750  0.17900  Biso   1.000  H
  H121     1.0000 0.11750  0.81290  0.57100  Biso   1.000  H
  H122     1.0000 0.93710  0.36750  0.82100  Biso   1.000  H
  H123     1.0000 0.06290  0.13250  0.82100  Biso   1.000  H
  H124     1.0000 0.61750  0.31290  0.07100  Biso   1.000  H
  H125     1.0000 0.43710  0.86750  0.32100  Biso   1.000  H
  H126     1.0000 0.88250  0.68710  0.57100  Biso   1.000  H
  H127     1.0000 0.38250  0.18710  0.07100  Biso   1.000  H
  H128     1.0000 0.56290  0.63250  0.32100  Biso   1.000  H
  C113     1.0000 0.88530  0.31630  0.10570  Biso   1.000  C
  C114     1.0000 0.43370  0.13530  0.35570  Biso   1.000  C
  C115     1.0000 0.56630  0.36470  0.35570  Biso   1.000  C
  C116     1.0000 0.38530  0.81630  0.60570  Biso   1.000  C
  C117     1.0000 0.93370  0.63530  0.85570  Biso   1.000  C
  C118     1.0000 0.11470  0.18370  0.10570  Biso   1.000  C
  C119     1.0000 0.61470  0.68370  0.60570  Biso   1.000  C
  C120     1.0000 0.06630  0.86470  0.85570  Biso   1.000  C
  C121     1.0000 0.11470  0.68370  0.89430  Biso   1.000  C
  C122     1.0000 0.06630  0.36470  0.14430  Biso   1.000  C
  C123     1.0000 0.93370  0.13530  0.14430  Biso   1.000  C
  C124     1.0000 0.61470  0.18370  0.39430  Biso   1.000  C
  C125     1.0000 0.56630  0.86470  0.64430  Biso   1.000  C
  C126     1.0000 0.88530  0.81630  0.89430  Biso   1.000  C
  C127     1.0000 0.38530  0.31630  0.39430  Biso   1.000  C
  C128     1.0000 0.43370  0.63530  0.64430  Biso   1.000  C
  H129     1.0000 0.88640  0.31480  0.00950  Biso   1.000  H
  H130     1.0000 0.43520  0.13640  0.25950  Biso   1.000  H
  H131     1.0000 0.56480  0.36360  0.25950  Biso   1.000  H
  H132     1.0000 0.38640  0.81480  0.50950  Biso   1.000  H
  H133     1.0000 0.93520  0.63640  0.75950  Biso   1.000  H
  H134     1.0000 0.11360  0.18520  0.00950  Biso   1.000  H
  H135     1.0000 0.61360  0.68520  0.50950  Biso   1.000  H
  H136     1.0000 0.06480  0.86360  0.75950  Biso   1.000  H
  H137     1.0000 0.11360  0.68520  0.99050  Biso   1.000  H
  H138     1.0000 0.06480  0.36360  0.24050  Biso   1.000  H
  H139     1.0000 0.93520  0.13640  0.24050  Biso   1.000  H
  H140     1.0000 0.61360  0.18520  0.49050  Biso   1.000  H
  H141     1.0000 0.56480  0.86360  0.74050  Biso   1.000  H
  H142     1.0000 0.88640  0.81480  0.99050  Biso   1.000  H
  H143     1.0000 0.38640  0.31480  0.49050  Biso   1.000  H
  H144     1.0000 0.43520  0.63640  0.74050  Biso   1.000  H
  C129     1.0000 0.88370  0.28780  0.18650  Biso   1.000  C
  C130     1.0000 0.46220  0.13370  0.43650  Biso   1.000  C
  C131     1.0000 0.53780  0.36630  0.43650  Biso   1.000  C
  C132     1.0000 0.38370  0.78780  0.68650  Biso   1.000  C
  C133     1.0000 0.96220  0.63370  0.93650  Biso   1.000  C
  C134     1.0000 0.11630  0.21220  0.18650  Biso   1.000  C
  C135     1.0000 0.61630  0.71220  0.68650  Biso   1.000  C
  C136     1.0000 0.03780  0.86630  0.93650  Biso   1.000  C
  C137     1.0000 0.11630  0.71220  0.81350  Biso   1.000  C
  C138     1.0000 0.03780  0.36630  0.06350  Biso   1.000  C
  C139     1.0000 0.96220  0.13370  0.06350  Biso   1.000  C
  C140     1.0000 0.61630  0.21220  0.31350  Biso   1.000  C
  C141     1.0000 0.53780  0.86630  0.56350  Biso   1.000  C
  C142     1.0000 0.88370  0.78780  0.81350  Biso   1.000  C
  C143     1.0000 0.38370  0.28780  0.31350  Biso   1.000  C
  C144     1.0000 0.46220  0.63370  0.56350  Biso   1.000  C
  H145     1.0000 0.88520  0.26830  0.14290  Biso   1.000  H
  H146     1.0000 0.48170  0.13520  0.39290  Biso   1.000  H
  H147     1.0000 0.51830  0.36480  0.39290  Biso   1.000  H
  H148     1.0000 0.38520  0.76830  0.64290  Biso   1.000  H
  H149     1.0000 0.98170  0.63520  0.89290  Biso   1.000  H
  H150     1.0000 0.11480  0.23170  0.14290  Biso   1.000  H
  H151     1.0000 0.61480  0.73170  0.64290  Biso   1.000  H
  H152     1.0000 0.01830  0.86480  0.89290  Biso   1.000  H
  H153     1.0000 0.11480  0.73170  0.85710  Biso   1.000  H
  H154     1.0000 0.01830  0.36480  0.10710  Biso   1.000  H
  H155     1.0000 0.98170  0.13520  0.10710  Biso   1.000  H
  H156     1.0000 0.61480  0.23170  0.35710  Biso   1.000  H
  H157     1.0000 0.51830  0.86480  0.60710  Biso   1.000  H
  H158     1.0000 0.88520  0.76830  0.85710  Biso   1.000  H
  H159     1.0000 0.38520  0.26830  0.35710  Biso   1.000  H
  H160     1.0000 0.48170  0.63520  0.60710  Biso   1.000  H
  C145     1.0000 0.87980  0.28930  0.32970  Biso   1.000  C
  C146     1.0000 0.46070  0.12980  0.57970  Biso   1.000  C
  C147     1.0000 0.53930  0.37020  0.57970  Biso   1.000  C
  C148     1.0000 0.37980  0.78930  0.82970  Biso   1.000  C
  C149     1.0000 0.96070  0.62980  0.07970  Biso   1.000  C
  C150     1.0000 0.12020  0.21070  0.32970  Biso   1.000  C
  C151     1.0000 0.62020  0.71070  0.82970  Biso   1.000  C
  C152     1.0000 0.03930  0.87020  0.07970  Biso   1.000  C
  C153     1.0000 0.12020  0.71070  0.67030  Biso   1.000  C
  C154     1.0000 0.03930  0.37020  0.92030  Biso   1.000  C
  C155     1.0000 0.96070  0.12980  0.92030  Biso   1.000  C
  C156     1.0000 0.62020  0.21070  0.17030  Biso   1.000  C
  C157     1.0000 0.53930  0.87020  0.42030  Biso   1.000  C
  C158     1.0000 0.87980  0.78930  0.67030  Biso   1.000  C
  C159     1.0000 0.37980  0.28930  0.17030  Biso   1.000  C
  C160     1.0000 0.46070  0.62980  0.42030  Biso   1.000  C
  C161     1.0000 0.87930  0.31860  0.38520  Biso   1.000  C
  C162     1.0000 0.43140  0.12930  0.63520  Biso   1.000  C
  C163     1.0000 0.56860  0.37070  0.63520  Biso   1.000  C
  C164     1.0000 0.37930  0.81860  0.88520  Biso   1.000  C
  C165     1.0000 0.93140  0.62930  0.13520  Biso   1.000  C
  C166     1.0000 0.12070  0.18140  0.38520  Biso   1.000  C
  C167     1.0000 0.62070  0.68140  0.88520  Biso   1.000  C
  C168     1.0000 0.06860  0.87070  0.13520  Biso   1.000  C
  C169     1.0000 0.12070  0.68140  0.61480  Biso   1.000  C
  C170     1.0000 0.06860  0.37070  0.86480  Biso   1.000  C
  C171     1.0000 0.93140  0.12930  0.86480  Biso   1.000  C
  C172     1.0000 0.62070  0.18140  0.11480  Biso   1.000  C
  C173     1.0000 0.56860  0.87070  0.36480  Biso   1.000  C
  C174     1.0000 0.87930  0.81860  0.61480  Biso   1.000  C
  C175     1.0000 0.37930  0.31860  0.11480  Biso   1.000  C
  C176     1.0000 0.43140  0.62930  0.36480  Biso   1.000  C
  H161     1.0000 0.87750  0.32090  0.48080  Biso   1.000  H
  H162     1.0000 0.42910  0.12750  0.73080  Biso   1.000  H
  H163     1.0000 0.57090  0.37250  0.73080  Biso   1.000  H
  H164     1.0000 0.37750  0.82090  0.98080  Biso   1.000  H
  H165     1.0000 0.92910  0.62750  0.23080  Biso   1.000  H
  H166     1.0000 0.12250  0.17910  0.48080  Biso   1.000  H
  H167     1.0000 0.62250  0.67910  0.98080  Biso   1.000  H
  H168     1.0000 0.07090  0.87250  0.23080  Biso   1.000  H
  H169     1.0000 0.12250  0.67910  0.51920  Biso   1.000  H
  H170     1.0000 0.07090  0.37250  0.76920  Biso   1.000  H
  H171     1.0000 0.92910  0.12750  0.76920  Biso   1.000  H
  H172     1.0000 0.62250  0.17910  0.01920  Biso   1.000  H
  H173     1.0000 0.57090  0.87250  0.26920  Biso   1.000  H
  H174     1.0000 0.87750  0.82090  0.51920  Biso   1.000  H
  H175     1.0000 0.37750  0.32090  0.01920  Biso   1.000  H
  H176     1.0000 0.42910  0.62750  0.26920  Biso   1.000  H
  C177     1.0000 0.88150  0.34520  0.30270  Biso   1.000  C
  C178     1.0000 0.40480  0.13150  0.55270  Biso   1.000  C
  C179     1.0000 0.59520  0.36850  0.55270  Biso   1.000  C
  C180     1.0000 0.38150  0.84520  0.80270  Biso   1.000  C
  C181     1.0000 0.90480  0.63150  0.05270  Biso   1.000  C
  C182     1.0000 0.11850  0.15480  0.30270  Biso   1.000  C
  C183     1.0000 0.61850  0.65480  0.80270  Biso   1.000  C
  C184     1.0000 0.09520  0.86850  0.05270  Biso   1.000  C
  C185     1.0000 0.11850  0.65480  0.69730  Biso   1.000  C
  C186     1.0000 0.09520  0.36850  0.94730  Biso   1.000  C
  C187     1.0000 0.90480  0.13150  0.94730  Biso   1.000  C
  C188     1.0000 0.61850  0.15480  0.19730  Biso   1.000  C
  C189     1.0000 0.59520  0.86850  0.44730  Biso   1.000  C
  C190     1.0000 0.88150  0.84520  0.69730  Biso   1.000  C
  C191     1.0000 0.38150  0.34520  0.19730  Biso   1.000  C
  C192     1.0000 0.40480  0.63150  0.44730  Biso   1.000  C
  H177     1.0000 0.88030  0.36490  0.34520  Biso   1.000  H
  H178     1.0000 0.38510  0.13030  0.59520  Biso   1.000  H
  H179     1.0000 0.61490  0.36970  0.59520  Biso   1.000  H
  H180     1.0000 0.38030  0.86490  0.84520  Biso   1.000  H
  H181     1.0000 0.88510  0.63030  0.09520  Biso   1.000  H
  H182     1.0000 0.11970  0.13510  0.34520  Biso   1.000  H
  H183     1.0000 0.61970  0.63510  0.84520  Biso   1.000  H
  H184     1.0000 0.11490  0.86970  0.09520  Biso   1.000  H
  H185     1.0000 0.11970  0.63510  0.65480  Biso   1.000  H
  H186     1.0000 0.11490  0.36970  0.90480  Biso   1.000  H
  H187     1.0000 0.88510  0.13030  0.90480  Biso   1.000  H
  H188     1.0000 0.61970  0.13510  0.15480  Biso   1.000  H
  H189     1.0000 0.61490  0.86970  0.40480  Biso   1.000  H
  H190     1.0000 0.88030  0.86490  0.65480  Biso   1.000  H
  H191     1.0000 0.38030  0.36490  0.15480  Biso   1.000  H
  H192     1.0000 0.38510  0.63030  0.40480  Biso   1.000  H
  C193     1.0000 0.78670  0.09790  0.88930  Biso   1.000  C
  C194     1.0000 0.65210  0.03670  0.13930  Biso   1.000  C
  C195     1.0000 0.34790  0.46330  0.13930  Biso   1.000  C
  C196     1.0000 0.28670  0.59790  0.38930  Biso   1.000  C
  C197     1.0000 0.15210  0.53670  0.63930  Biso   1.000  C
  C198     1.0000 0.21330  0.40210  0.88930  Biso   1.000  C
  C199     1.0000 0.71330  0.90210  0.38930  Biso   1.000  C
  C200     1.0000 0.84790  0.96330  0.63930  Biso   1.000  C
  C201     1.0000 0.21330  0.90210  0.11070  Biso   1.000  C
  C202     1.0000 0.84790  0.46330  0.36070  Biso   1.000  C
  C203     1.0000 0.15210  0.03670  0.36070  Biso   1.000  C
  C204     1.0000 0.71330  0.40210  0.61070  Biso   1.000  C
  C205     1.0000 0.34790  0.96330  0.86070  Biso   1.000  C
  C206     1.0000 0.78670  0.59790  0.11070  Biso   1.000  C
  C207     1.0000 0.28670  0.09790  0.61070  Biso   1.000  C
  C208     1.0000 0.65210  0.53670  0.86070  Biso   1.000  C
  C209     1.0000 0.76750  0.10380  0.77420  Biso   1.000  C
  C210     1.0000 0.64620  0.01750  0.02420  Biso   1.000  C
  C211     1.0000 0.35380  0.48250  0.02420  Biso   1.000  C
  C212     1.0000 0.26750  0.60380  0.27420  Biso   1.000  C
  C213     1.0000 0.14620  0.51750  0.52420  Biso   1.000  C
  C214     1.0000 0.23250  0.39620  0.77420  Biso   1.000  C
  C215     1.0000 0.73250  0.89620  0.27420  Biso   1.000  C
  C216     1.0000 0.85380  0.98250  0.52420  Biso   1.000  C
  C217     1.0000 0.23250  0.89620  0.22580  Biso   1.000  C
  C218     1.0000 0.85380  0.48250  0.47580  Biso   1.000  C
  C219     1.0000 0.14620  0.01750  0.47580  Biso   1.000  C
  C220     1.0000 0.73250  0.39620  0.72580  Biso   1.000  C
  C221     1.0000 0.35380  0.98250  0.97580  Biso   1.000  C
  C222     1.0000 0.76750  0.60380  0.22580  Biso   1.000  C
  C223     1.0000 0.26750  0.10380  0.72580  Biso   1.000  C
  C224     1.0000 0.64620  0.51750  0.97580  Biso   1.000  C
  H193     1.0000 0.77130  0.12160  0.71960  Biso   1.000  H
  H194     1.0000 0.62840  0.02130  0.96960  Biso   1.000  H
  H195     1.0000 0.37160  0.47870  0.96960  Biso   1.000  H
  H196     1.0000 0.27130  0.62160  0.21960  Biso   1.000  H
  H197     1.0000 0.12840  0.52130  0.46960  Biso   1.000  H
  H198     1.0000 0.22870  0.37840  0.71960  Biso   1.000  H
  H199     1.0000 0.72870  0.87840  0.21960  Biso   1.000  H
  H200     1.0000 0.87160  0.97870  0.46960  Biso   1.000  H
  H201     1.0000 0.22870  0.87840  0.28040  Biso   1.000  H
  H202     1.0000 0.87160  0.47870  0.53040  Biso   1.000  H
  H203     1.0000 0.12840  0.02130  0.53040  Biso   1.000  H
  H204     1.0000 0.72870  0.37840  0.78040  Biso   1.000  H
  H205     1.0000 0.37160  0.97870  0.03040  Biso   1.000  H
  H206     1.0000 0.77130  0.62160  0.28040  Biso   1.000  H
  H207     1.0000 0.27130  0.12160  0.78040  Biso   1.000  H
  H208     1.0000 0.62840  0.52130  0.03040  Biso   1.000  H
  C225     1.0000 0.74290  0.08350  0.74060  Biso   1.000  C
  C226     1.0000 0.66650  0.99290  0.99060  Biso   1.000  C
  C227     1.0000 0.33350  0.50710  0.99060  Biso   1.000  C
  C228     1.0000 0.24290  0.58350  0.24060  Biso   1.000  C
  C229     1.0000 0.16650  0.49290  0.49060  Biso   1.000  C
  C230     1.0000 0.25710  0.41650  0.74060  Biso   1.000  C
  C231     1.0000 0.75710  0.91650  0.24060  Biso   1.000  C
  C232     1.0000 0.83350  0.00710  0.49060  Biso   1.000  C
  C233     1.0000 0.25710  0.91650  0.25940  Biso   1.000  C
  C234     1.0000 0.83350  0.50710  0.50940  Biso   1.000  C
  C235     1.0000 0.16650  0.99290  0.50940  Biso   1.000  C
  C236     1.0000 0.75710  0.41650  0.75940  Biso   1.000  C
  C237     1.0000 0.33350  0.00710  0.00940  Biso   1.000  C
  C238     1.0000 0.74290  0.58350  0.25940  Biso   1.000  C
  C239     1.0000 0.24290  0.08350  0.75940  Biso   1.000  C
  C240     1.0000 0.66650  0.49290  0.00940  Biso   1.000  C
  H209     1.0000 0.73030  0.08760  0.66340  Biso   1.000  H
  H210     1.0000 0.66240  0.98030  0.91340  Biso   1.000  H
  H211     1.0000 0.33760  0.51970  0.91340  Biso   1.000  H
  H212     1.0000 0.23030  0.58760  0.16340  Biso   1.000  H
  H213     1.0000 0.16240  0.48030  0.41340  Biso   1.000  H
  H214     1.0000 0.26970  0.41240  0.66340  Biso   1.000  H
  H215     1.0000 0.76970  0.91240  0.16340  Biso   1.000  H
  H216     1.0000 0.83760  0.01970  0.41340  Biso   1.000  H
  H217     1.0000 0.26970  0.91240  0.33660  Biso   1.000  H
  H218     1.0000 0.83760  0.51970  0.58660  Biso   1.000  H
  H219     1.0000 0.16240  0.98030  0.58660  Biso   1.000  H
  H220     1.0000 0.76970  0.41240  0.83660  Biso   1.000  H
  H221     1.0000 0.33760  0.01970  0.08660  Biso   1.000  H
  H222     1.0000 0.73030  0.58760  0.33660  Biso   1.000  H
  H223     1.0000 0.23030  0.08760  0.83660  Biso   1.000  H
  H224     1.0000 0.66240  0.48030  0.08660  Biso   1.000  H
  C241     1.0000 0.73710  0.05760  0.82080  Biso   1.000  C
  C242     1.0000 0.69240  0.98710  0.07080  Biso   1.000  C
  C243     1.0000 0.30760  0.51290  0.07080  Biso   1.000  C
  C244     1.0000 0.23710  0.55760  0.32080  Biso   1.000  C
  C245     1.0000 0.19240  0.48710  0.57080  Biso   1.000  C
  C246     1.0000 0.26290  0.44240  0.82080  Biso   1.000  C
  C247     1.0000 0.76290  0.94240  0.32080  Biso   1.000  C
  C248     1.0000 0.80760  0.01290  0.57080  Biso   1.000  C
  C249     1.0000 0.26290  0.94240  0.17920  Biso   1.000  C
  C250     1.0000 0.80760  0.51290  0.42920  Biso   1.000  C
  C251     1.0000 0.19240  0.98710  0.42920  Biso   1.000  C
  C252     1.0000 0.76290  0.44240  0.67920  Biso   1.000  C
  C253     1.0000 0.30760  0.01290  0.92920  Biso   1.000  C
  C254     1.0000 0.73710  0.55760  0.17920  Biso   1.000  C
  C255     1.0000 0.23710  0.05760  0.67920  Biso   1.000  C
  C256     1.0000 0.69240  0.48710  0.92920  Biso   1.000  C
  H225     1.0000 0.71950  0.04500  0.80250  Biso   1.000  H
  H226     1.0000 0.70500  0.96950  0.05250  Biso   1.000  H
  H227     1.0000 0.29500  0.53050  0.05250  Biso   1.000  H
  H228     1.0000 0.21950  0.54500  0.30250  Biso   1.000  H
  H229     1.0000 0.20500  0.46950  0.55250  Biso   1.000  H
  H230     1.0000 0.28050  0.45500  0.80250  Biso   1.000  H
  H231     1.0000 0.78050  0.95500  0.30250  Biso   1.000  H
  H232     1.0000 0.79500  0.03050  0.55250  Biso   1.000  H
  H233     1.0000 0.28050  0.95500  0.19750  Biso   1.000  H
  H234     1.0000 0.79500  0.53050  0.44750  Biso   1.000  H
  H235     1.0000 0.20500  0.96950  0.44750  Biso   1.000  H
  H236     1.0000 0.78050  0.45500  0.69750  Biso   1.000  H
  H237     1.0000 0.29500  0.03050  0.94750  Biso   1.000  H
  H238     1.0000 0.71950  0.54500  0.19750  Biso   1.000  H
  H239     1.0000 0.21950  0.04500  0.69750  Biso   1.000  H
  H240     1.0000 0.70500  0.46950  0.94750  Biso   1.000  H
  C257     1.0000 0.75710  0.04970  0.92910  Biso   1.000  C
  C258     1.0000 0.70030  0.00710  0.17910  Biso   1.000  C
  C259     1.0000 0.29970  0.49290  0.17910  Biso   1.000  C
  C260     1.0000 0.25710  0.54970  0.42910  Biso   1.000  C
  C261     1.0000 0.20030  0.50710  0.67910  Biso   1.000  C
  C262     1.0000 0.24290  0.45030  0.92910  Biso   1.000  C
  C263     1.0000 0.74290  0.95030  0.42910  Biso   1.000  C
  C264     1.0000 0.79970  0.99290  0.67910  Biso   1.000  C
  C265     1.0000 0.24290  0.95030  0.07090  Biso   1.000  C
  C266     1.0000 0.79970  0.49290  0.32090  Biso   1.000  C
  C267     1.0000 0.20030  0.00710  0.32090  Biso   1.000  C
  C268     1.0000 0.74290  0.45030  0.57090  Biso   1.000  C
  C269     1.0000 0.29970  0.99290  0.82090  Biso   1.000  C
  C270     1.0000 0.75710  0.54970  0.07090  Biso   1.000  C
  C271     1.0000 0.25710  0.04970  0.57090  Biso   1.000  C
  C272     1.0000 0.70030  0.50710  0.82090  Biso   1.000  C
  H241     1.0000 0.75430  0.03080  0.97680  Biso   1.000  H
  H242     1.0000 0.71920  0.00430  0.22680  Biso   1.000  H
  H243     1.0000 0.28080  0.49570  0.22680  Biso   1.000  H
  H244     1.0000 0.25430  0.53080  0.47680  Biso   1.000  H
  H245     1.0000 0.21920  0.50430  0.72680  Biso   1.000  H
  H246     1.0000 0.24570  0.46920  0.97680  Biso   1.000  H
  H247     1.0000 0.74570  0.96920  0.47680  Biso   1.000  H
  H248     1.0000 0.78080  0.99570  0.72680  Biso   1.000  H
  H249     1.0000 0.24570  0.96920  0.02320  Biso   1.000  H
  H250     1.0000 0.78080  0.49570  0.27320  Biso   1.000  H
  H251     1.0000 0.21920  0.00430  0.27320  Biso   1.000  H
  H252     1.0000 0.74570  0.46920  0.52320  Biso   1.000  H
  H253     1.0000 0.28080  0.99570  0.77320  Biso   1.000  H
  H254     1.0000 0.75430  0.53080  0.02320  Biso   1.000  H
  H255     1.0000 0.25430  0.03080  0.52320  Biso   1.000  H
  H256     1.0000 0.71920  0.50430  0.77320  Biso   1.000  H
  C273     1.0000 0.78180  0.07040  0.96680  Biso   1.000  C
  C274     1.0000 0.67960  0.03180  0.21680  Biso   1.000  C
  C275     1.0000 0.32040  0.46820  0.21680  Biso   1.000  C
  C276     1.0000 0.28180  0.57040  0.46680  Biso   1.000  C
  C277     1.0000 0.17960  0.53180  0.71680  Biso   1.000  C
  C278     1.0000 0.21820  0.42960  0.96680  Biso   1.000  C
  C279     1.0000 0.71820  0.92960  0.46680  Biso   1.000  C
  C280     1.0000 0.82040  0.96820  0.71680  Biso   1.000  C
  C281     1.0000 0.21820  0.92960  0.03320  Biso   1.000  C
  C282     1.0000 0.82040  0.46820  0.28320  Biso   1.000  C
  C283     1.0000 0.17960  0.03180  0.28320  Biso   1.000  C
  C284     1.0000 0.71820  0.42960  0.53320  Biso   1.000  C
  C285     1.0000 0.32040  0.96820  0.78320  Biso   1.000  C
  C286     1.0000 0.78180  0.57040  0.03320  Biso   1.000  C
  C287     1.0000 0.28180  0.07040  0.53320  Biso   1.000  C
  C288     1.0000 0.67960  0.53180  0.78320  Biso   1.000  C
  H257     1.0000 0.79460  0.06580  0.04250  Biso   1.000  H
  H258     1.0000 0.68420  0.04460  0.29250  Biso   1.000  H
  H259     1.0000 0.31580  0.45540  0.29250  Biso   1.000  H
  H260     1.0000 0.29460  0.56580  0.54250  Biso   1.000  H
  H261     1.0000 0.18420  0.54460  0.79250  Biso   1.000  H
  H262     1.0000 0.20540  0.43420  0.04250  Biso   1.000  H
  H263     1.0000 0.70540  0.93420  0.54250  Biso   1.000  H
  H264     1.0000 0.81580  0.95540  0.79250  Biso   1.000  H
  H265     1.0000 0.20540  0.93420  0.95750  Biso   1.000  H
  H266     1.0000 0.81580  0.45540  0.20750  Biso   1.000  H
  H267     1.0000 0.18420  0.04460  0.20750  Biso   1.000  H
  H268     1.0000 0.70540  0.43420  0.45750  Biso   1.000  H
  H269     1.0000 0.31580  0.95540  0.70750  Biso   1.000  H
  H270     1.0000 0.79460  0.56580  0.95750  Biso   1.000  H
  H271     1.0000 0.29460  0.06580  0.45750  Biso   1.000  H
  H272     1.0000 0.68420  0.54460  0.70750  Biso   1.000  H
  C289     1.0000 0.81370  0.22550  0.07100  Biso   1.000  C
  C290     1.0000 0.52450  0.06370  0.32100  Biso   1.000  C
  C291     1.0000 0.47550  0.43630  0.32100  Biso   1.000  C
  C292     1.0000 0.31370  0.72550  0.57100  Biso   1.000  C
  C293     1.0000 0.02450  0.56370  0.82100  Biso   1.000  C
  C294     1.0000 0.18630  0.27450  0.07100  Biso   1.000  C
  C295     1.0000 0.68630  0.77450  0.57100  Biso   1.000  C
  C296     1.0000 0.97550  0.93630  0.82100  Biso   1.000  C
  C297     1.0000 0.18630  0.77450  0.92900  Biso   1.000  C
  C298     1.0000 0.97550  0.43630  0.17900  Biso   1.000  C
  C299     1.0000 0.02450  0.06370  0.17900  Biso   1.000  C
  C300     1.0000 0.68630  0.27450  0.42900  Biso   1.000  C
  C301     1.0000 0.47550  0.93630  0.67900  Biso   1.000  C
  C302     1.0000 0.81370  0.72550  0.92900  Biso   1.000  C
  C303     1.0000 0.31370  0.22550  0.42900  Biso   1.000  C
  C304     1.0000 0.52450  0.56370  0.67900  Biso   1.000  C
  C305     1.0000 0.80470  0.24990  0.99550  Biso   1.000  C
  C306     1.0000 0.50010  0.05470  0.24550  Biso   1.000  C
  C307     1.0000 0.49990  0.44530  0.24550  Biso   1.000  C
  C308     1.0000 0.30470  0.74990  0.49550  Biso   1.000  C
  C309     1.0000 0.00010  0.55470  0.74550  Biso   1.000  C
  C310     1.0000 0.19530  0.25010  0.99550  Biso   1.000  C
  C311     1.0000 0.69530  0.75010  0.49550  Biso   1.000  C
  C312     1.0000 0.99990  0.94530  0.74550  Biso   1.000  C
  C313     1.0000 0.19530  0.75010  0.00450  Biso   1.000  C
  C314     1.0000 0.99990  0.44530  0.25450  Biso   1.000  C
  C315     1.0000 0.00010  0.05470  0.25450  Biso   1.000  C
  C316     1.0000 0.69530  0.25010  0.50450  Biso   1.000  C
  C317     1.0000 0.49990  0.94530  0.75450  Biso   1.000  C
  C318     1.0000 0.80470  0.74990  0.00450  Biso   1.000  C
  C319     1.0000 0.30470  0.24990  0.50450  Biso   1.000  C
  C320     1.0000 0.50010  0.55470  0.75450  Biso   1.000  C
  H273     1.0000 0.80740  0.24950  0.89970  Biso   1.000  H
  H274     1.0000 0.50050  0.05740  0.14970  Biso   1.000  H
  H275     1.0000 0.49950  0.44260  0.14970  Biso   1.000  H
  H276     1.0000 0.30740  0.74950  0.39970  Biso   1.000  H
  H277     1.0000 0.00050  0.55740  0.64970  Biso   1.000  H
  H278     1.0000 0.19260  0.25050  0.89970  Biso   1.000  H
  H279     1.0000 0.69260  0.75050  0.39970  Biso   1.000  H
  H280     1.0000 0.99950  0.94260  0.64970  Biso   1.000  H
  H281     1.0000 0.19260  0.75050  0.10030  Biso   1.000  H
  H282     1.0000 0.99950  0.44260  0.35030  Biso   1.000  H
  H283     1.0000 0.00050  0.05740  0.35030  Biso   1.000  H
  H284     1.0000 0.69260  0.25050  0.60030  Biso   1.000  H
  H285     1.0000 0.49950  0.94260  0.85030  Biso   1.000  H
  H286     1.0000 0.80740  0.74950  0.10030  Biso   1.000  H
  H287     1.0000 0.30740  0.24950  0.60030  Biso   1.000  H
  H288     1.0000 0.50050  0.55740  0.85030  Biso   1.000  H
  C321     1.0000 0.79070  0.27730  0.06220  Biso   1.000  C
  C322     1.0000 0.47270  0.04070  0.31220  Biso   1.000  C
  C323     1.0000 0.52730  0.45930  0.31220  Biso   1.000  C
  C324     1.0000 0.29070  0.77730  0.56220  Biso   1.000  C
  C325     1.0000 0.97270  0.54070  0.81220  Biso   1.000  C
  C326     1.0000 0.20930  0.22270  0.06220  Biso   1.000  C
  C327     1.0000 0.70930  0.72270  0.56220  Biso   1.000  C
  C328     1.0000 0.02730  0.95930  0.81220  Biso   1.000  C
  C329     1.0000 0.20930  0.72270  0.93780  Biso   1.000  C
  C330     1.0000 0.02730  0.45930  0.18780  Biso   1.000  C
  C331     1.0000 0.97270  0.04070  0.18780  Biso   1.000  C
  C332     1.0000 0.70930  0.22270  0.43780  Biso   1.000  C
  C333     1.0000 0.52730  0.95930  0.68780  Biso   1.000  C
  C334     1.0000 0.79070  0.77730  0.93780  Biso   1.000  C
  C335     1.0000 0.29070  0.27730  0.43780  Biso   1.000  C
  C336     1.0000 0.47270  0.54070  0.68780  Biso   1.000  C
  H289     1.0000 0.78440  0.29470  0.01010  Biso   1.000  H
  H290     1.0000 0.45530  0.03440  0.26010  Biso   1.000  H
  H291     1.0000 0.54470  0.46560  0.26010  Biso   1.000  H
  H292     1.0000 0.28440  0.79470  0.51010  Biso   1.000  H
  H293     1.0000 0.95530  0.53440  0.76010  Biso   1.000  H
  H294     1.0000 0.21560  0.20530  0.01010  Biso   1.000  H
  H295     1.0000 0.71560  0.70530  0.51010  Biso   1.000  H
  H296     1.0000 0.04470  0.96560  0.76010  Biso   1.000  H
  H297     1.0000 0.21560  0.70530  0.98990  Biso   1.000  H
  H298     1.0000 0.04470  0.46560  0.23990  Biso   1.000  H
  H299     1.0000 0.95530  0.03440  0.23990  Biso   1.000  H
  H300     1.0000 0.71560  0.20530  0.48990  Biso   1.000  H
  H301     1.0000 0.54470  0.96560  0.73990  Biso   1.000  H
  H302     1.0000 0.78440  0.79470  0.98990  Biso   1.000  H
  H303     1.0000 0.28440  0.29470  0.48990  Biso   1.000  H
  H304     1.0000 0.45530  0.53440  0.73990  Biso   1.000  H
  C337     1.0000 0.78700  0.27700  0.19740  Biso   1.000  C
  C338     1.0000 0.47300  0.03700  0.44740  Biso   1.000  C
  C339     1.0000 0.52700  0.46300  0.44740  Biso   1.000  C
  C340     1.0000 0.28700  0.77700  0.69740  Biso   1.000  C
  C341     1.0000 0.97300  0.53700  0.94740  Biso   1.000  C
  C342     1.0000 0.21300  0.22300  0.19740  Biso   1.000  C
  C343     1.0000 0.71300  0.72300  0.69740  Biso   1.000  C
  C344     1.0000 0.02700  0.96300  0.94740  Biso   1.000  C
  C345     1.0000 0.21300  0.72300  0.80260  Biso   1.000  C
  C346     1.0000 0.02700  0.46300  0.05260  Biso   1.000  C
  C347     1.0000 0.97300  0.03700  0.05260  Biso   1.000  C
  C348     1.0000 0.71300  0.22300  0.30260  Biso   1.000  C
  C349     1.0000 0.52700  0.96300  0.55260  Biso   1.000  C
  C350     1.0000 0.78700  0.77700  0.80260  Biso   1.000  C
  C351     1.0000 0.28700  0.27700  0.30260  Biso   1.000  C
  C352     1.0000 0.47300  0.53700  0.55260  Biso   1.000  C
  H305     1.0000 0.77920  0.29500  0.24060  Biso   1.000  H
  H306     1.0000 0.45500  0.02920  0.49060  Biso   1.000  H
  H307     1.0000 0.54500  0.47080  0.49060  Biso   1.000  H
  H308     1.0000 0.27920  0.79500  0.74060  Biso   1.000  H
  H309     1.0000 0.95500  0.52920  0.99060  Biso   1.000  H
  H310     1.0000 0.22080  0.20500  0.24060  Biso   1.000  H
  H311     1.0000 0.72080  0.70500  0.74060  Biso   1.000  H
  H312     1.0000 0.04500  0.97080  0.99060  Biso   1.000  H
  H313     1.0000 0.22080  0.70500  0.75940  Biso   1.000  H
  H314     1.0000 0.04500  0.47080  0.00940  Biso   1.000  H
  H315     1.0000 0.95500  0.02920  0.00940  Biso   1.000  H
  H316     1.0000 0.72080  0.20500  0.25940  Biso   1.000  H
  H317     1.0000 0.54500  0.97080  0.50940  Biso   1.000  H
  H318     1.0000 0.77920  0.79500  0.75940  Biso   1.000  H
  H319     1.0000 0.27920  0.29500  0.25940  Biso   1.000  H
  H320     1.0000 0.45500  0.52920  0.50940  Biso   1.000  H
  C353     1.0000 0.79390  0.25250  0.27340  Biso   1.000  C
  C354     1.0000 0.49750  0.04390  0.52340  Biso   1.000  C
  C355     1.0000 0.50250  0.45610  0.52340  Biso   1.000  C
  C356     1.0000 0.29390  0.75250  0.77340  Biso   1.000  C
  C357     1.0000 0.99750  0.54390  0.02340  Biso   1.000  C
  C358     1.0000 0.20610  0.24750  0.27340  Biso   1.000  C
  C359     1.0000 0.70610  0.74750  0.77340  Biso   1.000  C
  C360     1.0000 0.00250  0.95610  0.02340  Biso   1.000  C
  C361     1.0000 0.20610  0.74750  0.72660  Biso   1.000  C
  C362     1.0000 0.00250  0.45610  0.97660  Biso   1.000  C
  C363     1.0000 0.99750  0.04390  0.97660  Biso   1.000  C
  C364     1.0000 0.70610  0.24750  0.22660  Biso   1.000  C
  C365     1.0000 0.50250  0.95610  0.47660  Biso   1.000  C
  C366     1.0000 0.79390  0.75250  0.72660  Biso   1.000  C
  C367     1.0000 0.29390  0.25250  0.22660  Biso   1.000  C
  C368     1.0000 0.49750  0.54390  0.47660  Biso   1.000  C
  H321     1.0000 0.78980  0.25280  0.36820  Biso   1.000  H
  H322     1.0000 0.49720  0.03980  0.61820  Biso   1.000  H
  H323     1.0000 0.50280  0.46020  0.61820  Biso   1.000  H
  H324     1.0000 0.28980  0.75280  0.86820  Biso   1.000  H
  H325     1.0000 0.99720  0.53980  0.11820  Biso   1.000  H
  H326     1.0000 0.21020  0.24720  0.36820  Biso   1.000  H
  H327     1.0000 0.71020  0.74720  0.86820  Biso   1.000  H
  H328     1.0000 0.00280  0.96020  0.11820  Biso   1.000  H
  H329     1.0000 0.21020  0.74720  0.63180  Biso   1.000  H
  H330     1.0000 0.00280  0.46020  0.88180  Biso   1.000  H
  H331     1.0000 0.99720  0.03980  0.88180  Biso   1.000  H
  H332     1.0000 0.71020  0.24720  0.13180  Biso   1.000  H
  H333     1.0000 0.50280  0.96020  0.38180  Biso   1.000  H
  H334     1.0000 0.78980  0.75280  0.63180  Biso   1.000  H
  H335     1.0000 0.28980  0.25280  0.13180  Biso   1.000  H
  H336     1.0000 0.49720  0.53980  0.38180  Biso   1.000  H
  C369     1.0000 0.80720  0.22630  0.21300  Biso   1.000  C
  C370     1.0000 0.52370  0.05720  0.46300  Biso   1.000  C
  C371     1.0000 0.47630  0.44280  0.46300  Biso   1.000  C
  C372     1.0000 0.30720  0.72630  0.71300  Biso   1.000  C
  C373     1.0000 0.02370  0.55720  0.96300  Biso   1.000  C
  C374     1.0000 0.19280  0.27370  0.21300  Biso   1.000  C
  C375     1.0000 0.69280  0.77370  0.71300  Biso   1.000  C
  C376     1.0000 0.97630  0.94280  0.96300  Biso   1.000  C
  C377     1.0000 0.19280  0.77370  0.78700  Biso   1.000  C
  C378     1.0000 0.97630  0.44280  0.03700  Biso   1.000  C
  C379     1.0000 0.02370  0.05720  0.03700  Biso   1.000  C
  C380     1.0000 0.69280  0.27370  0.28700  Biso   1.000  C
  C381     1.0000 0.47630  0.94280  0.53700  Biso   1.000  C
  C382     1.0000 0.80720  0.72630  0.78700  Biso   1.000  C
  C383     1.0000 0.30720  0.22630  0.28700  Biso   1.000  C
  C384     1.0000 0.52370  0.55720  0.53700  Biso   1.000  C
  H337     1.0000 0.81190  0.20880  0.26750  Biso   1.000  H
  H338     1.0000 0.54120  0.06190  0.51750  Biso   1.000  H
  H339     1.0000 0.45880  0.43810  0.51750  Biso   1.000  H
  H340     1.0000 0.31190  0.70880  0.76750  Biso   1.000  H
  H341     1.0000 0.04120  0.56190  0.01750  Biso   1.000  H
  H342     1.0000 0.18810  0.29120  0.26750  Biso   1.000  H
  H343     1.0000 0.68810  0.79120  0.76750  Biso   1.000  H
  H344     1.0000 0.95880  0.93810  0.01750  Biso   1.000  H
  H345     1.0000 0.18810  0.79120  0.73250  Biso   1.000  H
  H346     1.0000 0.95880  0.43810  0.98250  Biso   1.000  H
  H347     1.0000 0.04120  0.06190  0.98250  Biso   1.000  H
  H348     1.0000 0.68810  0.29120  0.23250  Biso   1.000  H
  H349     1.0000 0.45880  0.93810  0.48250  Biso   1.000  H
  H350     1.0000 0.81190  0.70880  0.73250  Biso   1.000  H
  H351     1.0000 0.31190  0.20880  0.23250  Biso   1.000  H
  H352     1.0000 0.54120  0.56190  0.48250  Biso   1.000  H
  C385     1.0000 0.77180  0.12790  0.39670  Biso   1.000  C
  C386     1.0000 0.62210  0.02180  0.64670  Biso   1.000  C
  C387     1.0000 0.37790  0.47820  0.64670  Biso   1.000  C
  C388     1.0000 0.27180  0.62790  0.89670  Biso   1.000  C
  C389     1.0000 0.12210  0.52180  0.14670  Biso   1.000  C
  C390     1.0000 0.22820  0.37210  0.39670  Biso   1.000  C
  C391     1.0000 0.72820  0.87210  0.89670  Biso   1.000  C
  C392     1.0000 0.87790  0.97820  0.14670  Biso   1.000  C
  C393     1.0000 0.22820  0.87210  0.60330  Biso   1.000  C
  C394     1.0000 0.87790  0.47820  0.85330  Biso   1.000  C
  C395     1.0000 0.12210  0.02180  0.85330  Biso   1.000  C
  C396     1.0000 0.72820  0.37210  0.10330  Biso   1.000  C
  C397     1.0000 0.37790  0.97820  0.35330  Biso   1.000  C
  C398     1.0000 0.77180  0.62790  0.60330  Biso   1.000  C
  C399     1.0000 0.27180  0.12790  0.10330  Biso   1.000  C
  C400     1.0000 0.62210  0.52180  0.35330  Biso   1.000  C
  C401     1.0000 0.76710  0.10630  0.29070  Biso   1.000  C
  C402     1.0000 0.64370  0.01710  0.54070  Biso   1.000  C
  C403     1.0000 0.35630  0.48290  0.54070  Biso   1.000  C
  C404     1.0000 0.26710  0.60630  0.79070  Biso   1.000  C
  C405     1.0000 0.14370  0.51710  0.04070  Biso   1.000  C
  C406     1.0000 0.23290  0.39370  0.29070  Biso   1.000  C
  C407     1.0000 0.73290  0.89370  0.79070  Biso   1.000  C
  C408     1.0000 0.85630  0.98290  0.04070  Biso   1.000  C
  C409     1.0000 0.23290  0.89370  0.70930  Biso   1.000  C
  C410     1.0000 0.85630  0.48290  0.95930  Biso   1.000  C
  C411     1.0000 0.14370  0.01710  0.95930  Biso   1.000  C
  C412     1.0000 0.73290  0.39370  0.20930  Biso   1.000  C
  C413     1.0000 0.35630  0.98290  0.45930  Biso   1.000  C
  C414     1.0000 0.76710  0.60630  0.70930  Biso   1.000  C
  C415     1.0000 0.26710  0.10630  0.20930  Biso   1.000  C
  C416     1.0000 0.64370  0.51710  0.45930  Biso   1.000  C
  H353     1.0000 0.78390  0.09880  0.23790  Biso   1.000  H
  H354     1.0000 0.65120  0.03390  0.48790  Biso   1.000  H
  H355     1.0000 0.34880  0.46610  0.48790  Biso   1.000  H
  H356     1.0000 0.28390  0.59880  0.73790  Biso   1.000  H
  H357     1.0000 0.15120  0.53390  0.98790  Biso   1.000  H
  H358     1.0000 0.21610  0.40120  0.23790  Biso   1.000  H
  H359     1.0000 0.71610  0.90120  0.73790  Biso   1.000  H
  H360     1.0000 0.84880  0.96610  0.98790  Biso   1.000  H
  H361     1.0000 0.21610  0.90120  0.76210  Biso   1.000  H
  H362     1.0000 0.84880  0.46610  0.01210  Biso   1.000  H
  H363     1.0000 0.15120  0.03390  0.01210  Biso   1.000  H
  H364     1.0000 0.71610  0.40120  0.26210  Biso   1.000  H
  H365     1.0000 0.34880  0.96610  0.51210  Biso   1.000  H
  H366     1.0000 0.78390  0.59880  0.76210  Biso   1.000  H
  H367     1.0000 0.28390  0.09880  0.26210  Biso   1.000  H
  H368     1.0000 0.65120  0.53390  0.51210  Biso   1.000  H
  C417     1.0000 0.73580  0.09590  0.26550  Biso   1.000  C
  C418     1.0000 0.65410  0.98580  0.51550  Biso   1.000  C
  C419     1.0000 0.34590  0.51420  0.51550  Biso   1.000  C
  C420     1.0000 0.23580  0.59590  0.76550  Biso   1.000  C
  C421     1.0000 0.15410  0.48580  0.01550  Biso   1.000  C
  C422     1.0000 0.26420  0.40410  0.26550  Biso   1.000  C
  C423     1.0000 0.76420  0.90410  0.76550  Biso   1.000  C
  C424     1.0000 0.84590  0.01420  0.01550  Biso   1.000  C
  C425     1.0000 0.26420  0.90410  0.73450  Biso   1.000  C
  C426     1.0000 0.84590  0.51420  0.98450  Biso   1.000  C
  C427     1.0000 0.15410  0.98580  0.98450  Biso   1.000  C
  C428     1.0000 0.76420  0.40410  0.23450  Biso   1.000  C
  C429     1.0000 0.34590  0.01420  0.48450  Biso   1.000  C
  C430     1.0000 0.73580  0.59590  0.73450  Biso   1.000  C
  C431     1.0000 0.23580  0.09590  0.23450  Biso   1.000  C
  C432     1.0000 0.65410  0.48580  0.48450  Biso   1.000  C
  H369     1.0000 0.73210  0.07940  0.20390  Biso   1.000  H
  H370     1.0000 0.67060  0.98210  0.45390  Biso   1.000  H
  H371     1.0000 0.32940  0.51790  0.45390  Biso   1.000  H
  H372     1.0000 0.23210  0.57940  0.70390  Biso   1.000  H
  H373     1.0000 0.17060  0.48210  0.95390  Biso   1.000  H
  H374     1.0000 0.26790  0.42060  0.20390  Biso   1.000  H
  H375     1.0000 0.76790  0.92060  0.70390  Biso   1.000  H
  H376     1.0000 0.82940  0.01790  0.95390  Biso   1.000  H
  H377     1.0000 0.26790  0.92060  0.79610  Biso   1.000  H
  H378     1.0000 0.82940  0.51790  0.04610  Biso   1.000  H
  H379     1.0000 0.17060  0.98210  0.04610  Biso   1.000  H
  H380     1.0000 0.76790  0.42060  0.29610  Biso   1.000  H
  H381     1.0000 0.32940  0.01790  0.54610  Biso   1.000  H
  H382     1.0000 0.73210  0.57940  0.79610  Biso   1.000  H
  H383     1.0000 0.23210  0.07940  0.29610  Biso   1.000  H
  H384     1.0000 0.67060  0.48210  0.54610  Biso   1.000  H
  C433     1.0000 0.71140  0.11000  0.33110  Biso   1.000  C
  C434     1.0000 0.64000  0.96140  0.58110  Biso   1.000  C
  C435     1.0000 0.36000  0.53860  0.58110  Biso   1.000  C
  C436     1.0000 0.21140  0.61000  0.83110  Biso   1.000  C
  C437     1.0000 0.14000  0.46140  0.08110  Biso   1.000  C
  C438     1.0000 0.28860  0.39000  0.33110  Biso   1.000  C
  C439     1.0000 0.78860  0.89000  0.83110  Biso   1.000  C
  C440     1.0000 0.86000  0.03860  0.08110  Biso   1.000  C
  C441     1.0000 0.28860  0.89000  0.66890  Biso   1.000  C
  C442     1.0000 0.86000  0.53860  0.91890  Biso   1.000  C
  C443     1.0000 0.14000  0.96140  0.91890  Biso   1.000  C
  C444     1.0000 0.78860  0.39000  0.16890  Biso   1.000  C
  C445     1.0000 0.36000  0.03860  0.41890  Biso   1.000  C
  C446     1.0000 0.71140  0.61000  0.66890  Biso   1.000  C
  C447     1.0000 0.21140  0.11000  0.16890  Biso   1.000  C
  C448     1.0000 0.64000  0.46140  0.41890  Biso   1.000  C
  H385     1.0000 0.69090  0.10370  0.31110  Biso   1.000  H
  H386     1.0000 0.64630  0.94090  0.56110  Biso   1.000  H
  H387     1.0000 0.35370  0.55910  0.56110  Biso   1.000  H
  H388     1.0000 0.19090  0.60370  0.81110  Biso   1.000  H
  H389     1.0000 0.14630  0.44090  0.06110  Biso   1.000  H
  H390     1.0000 0.30910  0.39630  0.31110  Biso   1.000  H
  H391     1.0000 0.80910  0.89630  0.81110  Biso   1.000  H
  H392     1.0000 0.85370  0.05910  0.06110  Biso   1.000  H
  H393     1.0000 0.30910  0.89630  0.68890  Biso   1.000  H
  H394     1.0000 0.85370  0.55910  0.93890  Biso   1.000  H
  H395     1.0000 0.14630  0.94090  0.93890  Biso   1.000  H
  H396     1.0000 0.80910  0.39630  0.18890  Biso   1.000  H
  H397     1.0000 0.35370  0.05910  0.43890  Biso   1.000  H
  H398     1.0000 0.69090  0.60370  0.68890  Biso   1.000  H
  H399     1.0000 0.19090  0.10370  0.18890  Biso   1.000  H
  H400     1.0000 0.64630  0.44090  0.43890  Biso   1.000  H
  C449     1.0000 0.71610  0.13260  0.42270  Biso   1.000  C
  C450     1.0000 0.61740  0.96610  0.67270  Biso   1.000  C
  C451     1.0000 0.38260  0.53390  0.67270  Biso   1.000  C
  C452     1.0000 0.21610  0.63260  0.92270  Biso   1.000  C
  C453     1.0000 0.11740  0.46610  0.17270  Biso   1.000  C
  C454     1.0000 0.28390  0.36740  0.42270  Biso   1.000  C
  C455     1.0000 0.78390  0.86740  0.92270  Biso   1.000  C
  C456     1.0000 0.88260  0.03390  0.17270  Biso   1.000  C
  C457     1.0000 0.28390  0.86740  0.57730  Biso   1.000  C
  C458     1.0000 0.88260  0.53390  0.82730  Biso   1.000  C
  C459     1.0000 0.11740  0.96610  0.82730  Biso   1.000  C
  C460     1.0000 0.78390  0.36740  0.07730  Biso   1.000  C
  C461     1.0000 0.38260  0.03390  0.32730  Biso   1.000  C
  C462     1.0000 0.71610  0.63260  0.57730  Biso   1.000  C
  C463     1.0000 0.21610  0.13260  0.07730  Biso   1.000  C
  C464     1.0000 0.61740  0.46610  0.32730  Biso   1.000  C
  H401     1.0000 0.69890  0.14220  0.46610  Biso   1.000  H
  H402     1.0000 0.60780  0.94890  0.71610  Biso   1.000  H
  H403     1.0000 0.39220  0.55110  0.71610  Biso   1.000  H
  H404     1.0000 0.19890  0.64220  0.96610  Biso   1.000  H
  H405     1.0000 0.10780  0.44890  0.21610  Biso   1.000  H
  H406     1.0000 0.30110  0.35780  0.46610  Biso   1.000  H
  H407     1.0000 0.80110  0.85780  0.96610  Biso   1.000  H
  H408     1.0000 0.89220  0.05110  0.21610  Biso   1.000  H
  H409     1.0000 0.30110  0.85780  0.53390  Biso   1.000  H
  H410     1.0000 0.89220  0.55110  0.78390  Biso   1.000  H
  H411     1.0000 0.10780  0.94890  0.78390  Biso   1.000  H
  H412     1.0000 0.80110  0.35780  0.03390  Biso   1.000  H
  H413     1.0000 0.39220  0.05110  0.28390  Biso   1.000  H
  H414     1.0000 0.69890  0.64220  0.53390  Biso   1.000  H
  H415     1.0000 0.19890  0.14220  0.03390  Biso   1.000  H
  H416     1.0000 0.60780  0.44890  0.28390  Biso   1.000  H
  C465     1.0000 0.74710  0.14250  0.45530  Biso   1.000  C
  C466     1.0000 0.60750  0.99710  0.70530  Biso   1.000  C
  C467     1.0000 0.39250  0.50290  0.70530  Biso   1.000  C
  C468     1.0000 0.24710  0.64250  0.95530  Biso   1.000  C
  C469     1.0000 0.10750  0.49710  0.20530  Biso   1.000  C
  C470     1.0000 0.25290  0.35750  0.45530  Biso   1.000  C
  C471     1.0000 0.75290  0.85750  0.95530  Biso   1.000  C
  C472     1.0000 0.89250  0.00290  0.20530  Biso   1.000  C
  C473     1.0000 0.25290  0.85750  0.54470  Biso   1.000  C
  C474     1.0000 0.89250  0.50290  0.79470  Biso   1.000  C
  C475     1.0000 0.10750  0.99710  0.79470  Biso   1.000  C
  C476     1.0000 0.75290  0.35750  0.04470  Biso   1.000  C
  C477     1.0000 0.39250  0.00290  0.29470  Biso   1.000  C
  C478     1.0000 0.74710  0.64250  0.54470  Biso   1.000  C
  C479     1.0000 0.24710  0.14250  0.04470  Biso   1.000  C
  C480     1.0000 0.60750  0.49710  0.29470  Biso   1.000  C
  H417     1.0000 0.75040  0.15900  0.51720  Biso   1.000  H
  H418     1.0000 0.59100  0.00040  0.76720  Biso   1.000  H
  H419     1.0000 0.40900  0.49960  0.76720  Biso   1.000  H
  H420     1.0000 0.25040  0.65900  0.01720  Biso   1.000  H
  H421     1.0000 0.09100  0.50040  0.26720  Biso   1.000  H
  H422     1.0000 0.24960  0.34100  0.51720  Biso   1.000  H
  H423     1.0000 0.74960  0.84100  0.01720  Biso   1.000  H
  H424     1.0000 0.90900  0.99960  0.26720  Biso   1.000  H
  H425     1.0000 0.24960  0.84100  0.48280  Biso   1.000  H
  H426     1.0000 0.90900  0.49960  0.73280  Biso   1.000  H
  H427     1.0000 0.09100  0.00040  0.73280  Biso   1.000  H
  H428     1.0000 0.74960  0.34100  0.98280  Biso   1.000  H
  H429     1.0000 0.40900  0.99960  0.23280  Biso   1.000  H
  H430     1.0000 0.75040  0.65900  0.48280  Biso   1.000  H
  H431     1.0000 0.25040  0.15900  0.98280  Biso   1.000  H
  H432     1.0000 0.59100  0.50040  0.23280  Biso   1.000  H
  C481     1.0000 0.89630  0.08140  0.56720  Biso   1.000  C
  C482     1.0000 0.66860  0.14630  0.81720  Biso   1.000  C
  C483     1.0000 0.33140  0.35370  0.81720  Biso   1.000  C
  C484     1.0000 0.39630  0.58140  0.06720  Biso   1.000  C
  C485     1.0000 0.16860  0.64630  0.31720  Biso   1.000  C
  C486     1.0000 0.10370  0.41860  0.56720  Biso   1.000  C
  C487     1.0000 0.60370  0.91860  0.06720  Biso   1.000  C
  C488     1.0000 0.83140  0.85370  0.31720  Biso   1.000  C
  C489     1.0000 0.10370  0.91860  0.43280  Biso   1.000  C
  C490     1.0000 0.83140  0.35370  0.68280  Biso   1.000  C
  C491     1.0000 0.16860  0.14630  0.68280  Biso   1.000  C
  C492     1.0000 0.60370  0.41860  0.93280  Biso   1.000  C
  C493     1.0000 0.33140  0.85370  0.18280  Biso   1.000  C
  C494     1.0000 0.89630  0.58140  0.43280  Biso   1.000  C
  C495     1.0000 0.39630  0.08140  0.93280  Biso   1.000  C
  C496     1.0000 0.66860  0.64630  0.18280  Biso   1.000  C
  C497     1.0000 0.88830  0.06720  0.68780  Biso   1.000  C
  C498     1.0000 0.68280  0.13830  0.93780  Biso   1.000  C
  C499     1.0000 0.31720  0.36170  0.93780  Biso   1.000  C
  C500     1.0000 0.38830  0.56720  0.18780  Biso   1.000  C
  C501     1.0000 0.18280  0.63830  0.43780  Biso   1.000  C
  C502     1.0000 0.11170  0.43280  0.68780  Biso   1.000  C
  C503     1.0000 0.61170  0.93280  0.18780  Biso   1.000  C
  C504     1.0000 0.81720  0.86170  0.43780  Biso   1.000  C
  C505     1.0000 0.11170  0.93280  0.31220  Biso   1.000  C
  C506     1.0000 0.81720  0.36170  0.56220  Biso   1.000  C
  C507     1.0000 0.18280  0.13830  0.56220  Biso   1.000  C
  C508     1.0000 0.61170  0.43280  0.81220  Biso   1.000  C
  C509     1.0000 0.31720  0.86170  0.06220  Biso   1.000  C
  C510     1.0000 0.88830  0.56720  0.31220  Biso   1.000  C
  C511     1.0000 0.38830  0.06720  0.81220  Biso   1.000  C
  C512     1.0000 0.68280  0.63830  0.06220  Biso   1.000  C
  H433     1.0000 0.86970  0.07370  0.73160  Biso   1.000  H
  H434     1.0000 0.67630  0.11970  0.98160  Biso   1.000  H
  H435     1.0000 0.32370  0.38030  0.98160  Biso   1.000  H
  H436     1.0000 0.36970  0.57370  0.23160  Biso   1.000  H
  H437     1.0000 0.17630  0.61970  0.48160  Biso   1.000  H
  H438     1.0000 0.13030  0.42630  0.73160  Biso   1.000  H
  H439     1.0000 0.63030  0.92630  0.23160  Biso   1.000  H
  H440     1.0000 0.82370  0.88030  0.48160  Biso   1.000  H
  H441     1.0000 0.13030  0.92630  0.26840  Biso   1.000  H
  H442     1.0000 0.82370  0.38030  0.51840  Biso   1.000  H
  H443     1.0000 0.17630  0.11970  0.51840  Biso   1.000  H
  H444     1.0000 0.63030  0.42630  0.76840  Biso   1.000  H
  H445     1.0000 0.32370  0.88030  0.01840  Biso   1.000  H
  H446     1.0000 0.86970  0.57370  0.26840  Biso   1.000  H
  H447     1.0000 0.36970  0.07370  0.76840  Biso   1.000  H
  H448     1.0000 0.67630  0.61970  0.01840  Biso   1.000  H
  C513     1.0000 0.90590  0.04380  0.74930  Biso   1.000  C
  C514     1.0000 0.70620  0.15590  0.99930  Biso   1.000  C
  C515     1.0000 0.29380  0.34410  0.99930  Biso   1.000  C
  C516     1.0000 0.40590  0.54380  0.24930  Biso   1.000  C
  C517     1.0000 0.20620  0.65590  0.49930  Biso   1.000  C
  C518     1.0000 0.09410  0.45620  0.74930  Biso   1.000  C
  C519     1.0000 0.59410  0.95620  0.24930  Biso   1.000  C
  C520     1.0000 0.79380  0.84410  0.49930  Biso   1.000  C
  C521     1.0000 0.09410  0.95620  0.25070  Biso   1.000  C
  C522     1.0000 0.79380  0.34410  0.50070  Biso   1.000  C
  C523     1.0000 0.20620  0.15590  0.50070  Biso   1.000  C
  C524     1.0000 0.59410  0.45620  0.75070  Biso   1.000  C
  C525     1.0000 0.29380  0.84410  0.00070  Biso   1.000  C
  C526     1.0000 0.90590  0.54380  0.25070  Biso   1.000  C
  C527     1.0000 0.40590  0.04380  0.75070  Biso   1.000  C
  C528     1.0000 0.70620  0.65590  0.00070  Biso   1.000  C
  H449     1.0000 0.89950  0.03500  0.83310  Biso   1.000  H
  H450     1.0000 0.71500  0.14950  0.08310  Biso   1.000  H
  H451     1.0000 0.28500  0.35050  0.08310  Biso   1.000  H
  H452     1.0000 0.39950  0.53500  0.33310  Biso   1.000  H
  H453     1.0000 0.21500  0.64950  0.58310  Biso   1.000  H
  H454     1.0000 0.10050  0.46500  0.83310  Biso   1.000  H
  H455     1.0000 0.60050  0.96500  0.33310  Biso   1.000  H
  H456     1.0000 0.78500  0.85050  0.58310  Biso   1.000  H
  H457     1.0000 0.10050  0.96500  0.16690  Biso   1.000  H
  H458     1.0000 0.78500  0.35050  0.41690  Biso   1.000  H
  H459     1.0000 0.21500  0.14950  0.41690  Biso   1.000  H
  H460     1.0000 0.60050  0.46500  0.66690  Biso   1.000  H
  H461     1.0000 0.28500  0.85050  0.91690  Biso   1.000  H
  H462     1.0000 0.89950  0.53500  0.16690  Biso   1.000  H
  H463     1.0000 0.39950  0.03500  0.66690  Biso   1.000  H
  H464     1.0000 0.71500  0.64950  0.91690  Biso   1.000  H
  C529     1.0000 0.93250  0.03390  0.68720  Biso   1.000  C
  C530     1.0000 0.71610  0.18250  0.93720  Biso   1.000  C
  C531     1.0000 0.28390  0.31750  0.93720  Biso   1.000  C
  C532     1.0000 0.43250  0.53390  0.18720  Biso   1.000  C
  C533     1.0000 0.21610  0.68250  0.43720  Biso   1.000  C
  C534     1.0000 0.06750  0.46610  0.68720  Biso   1.000  C
  C535     1.0000 0.56750  0.96610  0.18720  Biso   1.000  C
  C536     1.0000 0.78390  0.81750  0.43720  Biso   1.000  C
  C537     1.0000 0.06750  0.96610  0.31280  Biso   1.000  C
  C538     1.0000 0.78390  0.31750  0.56280  Biso   1.000  C
  C539     1.0000 0.21610  0.18250  0.56280  Biso   1.000  C
  C540     1.0000 0.56750  0.46610  0.81280  Biso   1.000  C
  C541     1.0000 0.28390  0.81750  0.06280  Biso   1.000  C
  C542     1.0000 0.93250  0.53390  0.31280  Biso   1.000  C
  C543     1.0000 0.43250  0.03390  0.81280  Biso   1.000  C
  C544     1.0000 0.71610  0.68250  0.06280  Biso   1.000  C
  H465     1.0000 0.94500  0.01870  0.73020  Biso   1.000  H
  H466     1.0000 0.73130  0.19500  0.98020  Biso   1.000  H
  H467     1.0000 0.26870  0.30500  0.98020  Biso   1.000  H
  H468     1.0000 0.44500  0.51870  0.23020  Biso   1.000  H
  H469     1.0000 0.23130  0.69500  0.48020  Biso   1.000  H
  H470     1.0000 0.05500  0.48130  0.73020  Biso   1.000  H
  H471     1.0000 0.55500  0.98130  0.23020  Biso   1.000  H
  H472     1.0000 0.76870  0.80500  0.48020  Biso   1.000  H
  H473     1.0000 0.05500  0.98130  0.26980  Biso   1.000  H
  H474     1.0000 0.76870  0.30500  0.51980  Biso   1.000  H
  H475     1.0000 0.23130  0.19500  0.51980  Biso   1.000  H
  H476     1.0000 0.55500  0.48130  0.76980  Biso   1.000  H
  H477     1.0000 0.26870  0.80500  0.01980  Biso   1.000  H
  H478     1.0000 0.94500  0.51870  0.26980  Biso   1.000  H
  H479     1.0000 0.44500  0.01870  0.76980  Biso   1.000  H
  H480     1.0000 0.73130  0.69500  0.01980  Biso   1.000  H
  C545     1.0000 0.94120  0.04550  0.56470  Biso   1.000  C
  C546     1.0000 0.70450  0.19120  0.81470  Biso   1.000  C
  C547     1.0000 0.29550  0.30880  0.81470  Biso   1.000  C
  C548     1.0000 0.44120  0.54550  0.06470  Biso   1.000  C
  C549     1.0000 0.20450  0.69120  0.31470  Biso   1.000  C
  C550     1.0000 0.05880  0.45450  0.56470  Biso   1.000  C
  C551     1.0000 0.55880  0.95450  0.06470  Biso   1.000  C
  C552     1.0000 0.79550  0.80880  0.31470  Biso   1.000  C
  C553     1.0000 0.05880  0.95450  0.43530  Biso   1.000  C
  C554     1.0000 0.79550  0.30880  0.68530  Biso   1.000  C
  C555     1.0000 0.20450  0.19120  0.68530  Biso   1.000  C
  C556     1.0000 0.55880  0.45450  0.93530  Biso   1.000  C
  C557     1.0000 0.29550  0.80880  0.18530  Biso   1.000  C
  C558     1.0000 0.94120  0.54550  0.43530  Biso   1.000  C
  C559     1.0000 0.44120  0.04550  0.93530  Biso   1.000  C
  C560     1.0000 0.70450  0.69120  0.18530  Biso   1.000  C
  H481     1.0000 0.95920  0.03780  0.52080  Biso   1.000  H
  H482     1.0000 0.71220  0.20920  0.77080  Biso   1.000  H
  H483     1.0000 0.28780  0.29080  0.77080  Biso   1.000  H
  H484     1.0000 0.45920  0.53780  0.02080  Biso   1.000  H
  H485     1.0000 0.21220  0.70920  0.27080  Biso   1.000  H
  H486     1.0000 0.04080  0.46220  0.52080  Biso   1.000  H
  H487     1.0000 0.54080  0.96220  0.02080  Biso   1.000  H
  H488     1.0000 0.78780  0.79080  0.27080  Biso   1.000  H
  H489     1.0000 0.04080  0.96220  0.47920  Biso   1.000  H
  H490     1.0000 0.78780  0.29080  0.72920  Biso   1.000  H
  H491     1.0000 0.21220  0.20920  0.72920  Biso   1.000  H
  H492     1.0000 0.54080  0.46220  0.97920  Biso   1.000  H
  H493     1.0000 0.28780  0.79080  0.22920  Biso   1.000  H
  H494     1.0000 0.95920  0.53780  0.47920  Biso   1.000  H
  H495     1.0000 0.45920  0.03780  0.97920  Biso   1.000  H
  H496     1.0000 0.71220  0.70920  0.22920  Biso   1.000  H
  C561     1.0000 0.92290  0.06950  0.50160  Biso   1.000  C
  C562     1.0000 0.68050  0.17290  0.75160  Biso   1.000  C
  C563     1.0000 0.31950  0.32710  0.75160  Biso   1.000  C
  C564     1.0000 0.42290  0.56950  0.00160  Biso   1.000  C
  C565     1.0000 0.18050  0.67290  0.25160  Biso   1.000  C
  C566     1.0000 0.07710  0.43050  0.50160  Biso   1.000  C
  C567     1.0000 0.57710  0.93050  0.00160  Biso   1.000  C
  C568     1.0000 0.81950  0.82710  0.25160  Biso   1.000  C
  C569     1.0000 0.07710  0.93050  0.49840  Biso   1.000  C
  C570     1.0000 0.81950  0.32710  0.74840  Biso   1.000  C
  C571     1.0000 0.18050  0.17290  0.74840  Biso   1.000  C
  C572     1.0000 0.57710  0.43050  0.99840  Biso   1.000  C
  C573     1.0000 0.31950  0.82710  0.24840  Biso   1.000  C
  C574     1.0000 0.92290  0.56950  0.49840  Biso   1.000  C
  C575     1.0000 0.42290  0.06950  0.99840  Biso   1.000  C
  C576     1.0000 0.68050  0.67290  0.24840  Biso   1.000  C
  H497     1.0000 0.92890  0.07730  0.41520  Biso   1.000  H
  H498     1.0000 0.67270  0.17890  0.66520  Biso   1.000  H
  H499     1.0000 0.32730  0.32110  0.66520  Biso   1.000  H
  H500     1.0000 0.42890  0.57730  0.91520  Biso   1.000  H
  H501     1.0000 0.17270  0.67890  0.16520  Biso   1.000  H
  H502     1.0000 0.07110  0.42270  0.41520  Biso   1.000  H
  H503     1.0000 0.57110  0.92270  0.91520  Biso   1.000  H
  H504     1.0000 0.82730  0.82110  0.16520  Biso   1.000  H
  H505     1.0000 0.07110  0.92270  0.58480  Biso   1.000  H
  H506     1.0000 0.82730  0.32110  0.83480  Biso   1.000  H
  H507     1.0000 0.17270  0.17890  0.83480  Biso   1.000  H
  H508     1.0000 0.57110  0.42270  0.08480  Biso   1.000  H
  H509     1.0000 0.32730  0.82110  0.33480  Biso   1.000  H
  H510     1.0000 0.92890  0.57730  0.58480  Biso   1.000  H
  H511     1.0000 0.42890  0.07730  0.08480  Biso   1.000  H
  H512     1.0000 0.67270  0.67890  0.33480  Biso   1.000  H
  O129     1.0000 0.91240  0.21590  0.00880  Biso   1.000  O
  O130     1.0000 0.53410  0.16240  0.25880  Biso   1.000  O
  O131     1.0000 0.46590  0.33760  0.25880  Biso   1.000  O
  O132     1.0000 0.41240  0.71590  0.50880  Biso   1.000  O
  O133     1.0000 0.03410  0.66240  0.75880  Biso   1.000  O
  O134     1.0000 0.08760  0.28410  0.00880  Biso   1.000  O
  O135     1.0000 0.58760  0.78410  0.50880  Biso   1.000  O
  O136     1.0000 0.96590  0.83760  0.75880  Biso   1.000  O
  O137     1.0000 0.08760  0.78410  0.99120  Biso   1.000  O
  O138     1.0000 0.96590  0.33760  0.24120  Biso   1.000  O
  O139     1.0000 0.03410  0.16240  0.24120  Biso   1.000  O
  O140     1.0000 0.58760  0.28410  0.49120  Biso   1.000  O
  O141     1.0000 0.46590  0.83760  0.74120  Biso   1.000  O
  O142     1.0000 0.91240  0.71590  0.99120  Biso   1.000  O
  O143     1.0000 0.41240  0.21590  0.49120  Biso   1.000  O
  O144     1.0000 0.53410  0.66240  0.74120  Biso   1.000  O
  O145     1.0000 0.95720  0.22400  0.19800  Biso   1.000  O
  O146     1.0000 0.52600  0.20720  0.44800  Biso   1.000  O
  O147     1.0000 0.47400  0.29280  0.44800  Biso   1.000  O
  O148     1.0000 0.45720  0.72400  0.69800  Biso   1.000  O
  O149     1.0000 0.02600  0.70720  0.94800  Biso   1.000  O
  O150     1.0000 0.04280  0.27600  0.19800  Biso   1.000  O
  O151     1.0000 0.54280  0.77600  0.69800  Biso   1.000  O
  O152     1.0000 0.97400  0.79280  0.94800  Biso   1.000  O
  O153     1.0000 0.04280  0.77600  0.80200  Biso   1.000  O
  O154     1.0000 0.97400  0.29280  0.05200  Biso   1.000  O
  O155     1.0000 0.02600  0.20720  0.05200  Biso   1.000  O
  O156     1.0000 0.54280  0.27600  0.30200  Biso   1.000  O
  O157     1.0000 0.47400  0.79280  0.55200  Biso   1.000  O
  O158     1.0000 0.95720  0.72400  0.80200  Biso   1.000  O
  O159     1.0000 0.45720  0.22400  0.30200  Biso   1.000  O
  O160     1.0000 0.52600  0.70720  0.55200  Biso   1.000  O
  O161     1.0000 0.94340  0.17300  0.53700  Biso   1.000  O
  O162     1.0000 0.57700  0.19340  0.78700  Biso   1.000  O
  O163     1.0000 0.42300  0.30660  0.78700  Biso   1.000  O
  O164     1.0000 0.44340  0.67300  0.03700  Biso   1.000  O
  O165     1.0000 0.07700  0.69340  0.28700  Biso   1.000  O
  O166     1.0000 0.05660  0.32700  0.53700  Biso   1.000  O
  O167     1.0000 0.55660  0.82700  0.03700  Biso   1.000  O
  O168     1.0000 0.92300  0.80660  0.28700  Biso   1.000  O
  O169     1.0000 0.05660  0.82700  0.46300  Biso   1.000  O
  O170     1.0000 0.92300  0.30660  0.71300  Biso   1.000  O
  O171     1.0000 0.07700  0.19340  0.71300  Biso   1.000  O
  O172     1.0000 0.55660  0.32700  0.96300  Biso   1.000  O
  O173     1.0000 0.42300  0.80660  0.21300  Biso   1.000  O
  O174     1.0000 0.94340  0.67300  0.46300  Biso   1.000  O
  O175     1.0000 0.44340  0.17300  0.96300  Biso   1.000  O
  O176     1.0000 0.57700  0.69340  0.21300  Biso   1.000  O
  O177     1.0000 0.95740  0.21480  0.74500  Biso   1.000  O
  O178     1.0000 0.53520  0.20740  0.99500  Biso   1.000  O
  O179     1.0000 0.46480  0.29260  0.99500  Biso   1.000  O
  O180     1.0000 0.45740  0.71480  0.24500  Biso   1.000  O
  O181     1.0000 0.03520  0.70740  0.49500  Biso   1.000  O
  O182     1.0000 0.04260  0.28520  0.74500  Biso   1.000  O
  O183     1.0000 0.54260  0.78520  0.24500  Biso   1.000  O
  O184     1.0000 0.96480  0.79260  0.49500  Biso   1.000  O
  O185     1.0000 0.04260  0.78520  0.25500  Biso   1.000  O
  O186     1.0000 0.96480  0.29260  0.50500  Biso   1.000  O
  O187     1.0000 0.03520  0.20740  0.50500  Biso   1.000  O
  O188     1.0000 0.54260  0.28520  0.75500  Biso   1.000  O
  O189     1.0000 0.46480  0.79260  0.00500  Biso   1.000  O
  O190     1.0000 0.95740  0.71480  0.25500  Biso   1.000  O
  O191     1.0000 0.45740  0.21480  0.75500  Biso   1.000  O
  O192     1.0000 0.53520  0.70740  0.00500  Biso   1.000  O
  O193     1.0000 0.78000  0.21770  0.64170  Biso   1.000  O
  O194     1.0000 0.53230  0.03000  0.89170  Biso   1.000  O
  O195     1.0000 0.46770  0.47000  0.89170  Biso   1.000  O
  O196     1.0000 0.28000  0.71770  0.14170  Biso   1.000  O
  O197     1.0000 0.03230  0.53000  0.39170  Biso   1.000  O
  O198     1.0000 0.22000  0.28230  0.64170  Biso   1.000  O
  O199     1.0000 0.72000  0.78230  0.14170  Biso   1.000  O
  O200     1.0000 0.96770  0.97000  0.39170  Biso   1.000  O
  O201     1.0000 0.22000  0.78230  0.35830  Biso   1.000  O
  O202     1.0000 0.96770  0.47000  0.60830  Biso   1.000  O
  O203     1.0000 0.03230  0.03000  0.60830  Biso   1.000  O
  O204     1.0000 0.72000  0.28230  0.85830  Biso   1.000  O
  O205     1.0000 0.46770  0.97000  0.10830  Biso   1.000  O
  O206     1.0000 0.78000  0.71770  0.35830  Biso   1.000  O
  O207     1.0000 0.28000  0.21770  0.85830  Biso   1.000  O
  O208     1.0000 0.53230  0.53000  0.10830  Biso   1.000  O
