data_image0
_cell_length_a       27.047
_cell_length_b       27.047
_cell_length_c       14.103
_cell_angle_alpha    90
_cell_angle_beta     90
_cell_angle_gamma    90

_symmetry_space_group_name_H-M    "P 1"
_symmetry_int_tables_number       1

loop_
  _symmetry_equiv_pos_as_xyz
  'x, y, z'

loop_
  _atom_site_label
  _atom_site_occupancy
  _atom_site_fract_x
  _atom_site_fract_y
  _atom_site_fract_z
  _atom_site_thermal_displace_type
  _atom_site_B_iso_or_equiv
  _atom_site_type_symbol
  Cu1      1.0000 0.25023  0.34391  0.59824  Biso   1.000  Cu
  Cu2      1.0000 0.40609  0.50023  0.84824  Biso   1.000  Cu
  Cu3      1.0000 0.75023  0.84391  0.09824  Biso   1.000  Cu
  Cu4      1.0000 0.90609  0.00023  0.34824  Biso   1.000  Cu
  Cu5      1.0000 0.59391  0.99977  0.84824  Biso   1.000  Cu
  Cu6      1.0000 0.24977  0.65609  0.09824  Biso   1.000  Cu
  Cu7      1.0000 0.09391  0.49977  0.34824  Biso   1.000  Cu
  Cu8      1.0000 0.74977  0.15609  0.59824  Biso   1.000  Cu
  Cu9      1.0000 0.74977  0.65609  0.40176  Biso   1.000  Cu
  Cu10     1.0000 0.09391  0.99977  0.65176  Biso   1.000  Cu
  Cu11     1.0000 0.24977  0.15609  0.90176  Biso   1.000  Cu
  Cu12     1.0000 0.59391  0.49977  0.15176  Biso   1.000  Cu
  Cu13     1.0000 0.90609  0.50023  0.65176  Biso   1.000  Cu
  Cu14     1.0000 0.75023  0.34391  0.90176  Biso   1.000  Cu
  Cu15     1.0000 0.40609  0.00023  0.15176  Biso   1.000  Cu
  Cu16     1.0000 0.25023  0.84391  0.40176  Biso   1.000  Cu
  O1       1.0000 0.27600  0.40650  0.63770  Biso   1.000  O
  O2       1.0000 0.34350  0.52600  0.88770  Biso   1.000  O
  O3       1.0000 0.77600  0.90650  0.13770  Biso   1.000  O
  O4       1.0000 0.84350  0.02600  0.38770  Biso   1.000  O
  O5       1.0000 0.65650  0.97400  0.88770  Biso   1.000  O
  O6       1.0000 0.22400  0.59350  0.13770  Biso   1.000  O
  O7       1.0000 0.15650  0.47400  0.38770  Biso   1.000  O
  O8       1.0000 0.72400  0.09350  0.63770  Biso   1.000  O
  O9       1.0000 0.72400  0.59350  0.36230  Biso   1.000  O
  O10      1.0000 0.15650  0.97400  0.61230  Biso   1.000  O
  O11      1.0000 0.22400  0.09350  0.86230  Biso   1.000  O
  O12      1.0000 0.65650  0.47400  0.11230  Biso   1.000  O
  O13      1.0000 0.84350  0.52600  0.61230  Biso   1.000  O
  O14      1.0000 0.77600  0.40650  0.86230  Biso   1.000  O
  O15      1.0000 0.34350  0.02600  0.11230  Biso   1.000  O
  O16      1.0000 0.27600  0.90650  0.36230  Biso   1.000  O
  O17      1.0000 0.22875  0.27916  0.55850  Biso   1.000  O
  O18      1.0000 0.47084  0.47875  0.80850  Biso   1.000  O
  O19      1.0000 0.72875  0.77916  0.05850  Biso   1.000  O
  O20      1.0000 0.97084  0.97875  0.30850  Biso   1.000  O
  O21      1.0000 0.52916  0.02125  0.80850  Biso   1.000  O
  O22      1.0000 0.27125  0.72084  0.05850  Biso   1.000  O
  O23      1.0000 0.02916  0.52125  0.30850  Biso   1.000  O
  O24      1.0000 0.77125  0.22084  0.55850  Biso   1.000  O
  O25      1.0000 0.77125  0.72084  0.44150  Biso   1.000  O
  O26      1.0000 0.02916  0.02125  0.69150  Biso   1.000  O
  O27      1.0000 0.27125  0.22084  0.94150  Biso   1.000  O
  O28      1.0000 0.52916  0.52125  0.19150  Biso   1.000  O
  O29      1.0000 0.97084  0.47875  0.69150  Biso   1.000  O
  O30      1.0000 0.72875  0.27916  0.94150  Biso   1.000  O
  O31      1.0000 0.47084  0.97875  0.19150  Biso   1.000  O
  O32      1.0000 0.22875  0.77916  0.44150  Biso   1.000  O
  O33      1.0000 0.29960  0.16161  0.69610  Biso   1.000  O
  O34      1.0000 0.58839  0.54960  0.94610  Biso   1.000  O
  O35      1.0000 0.79960  0.66161  0.19610  Biso   1.000  O
  O36      1.0000 0.08839  0.04960  0.44610  Biso   1.000  O
  O37      1.0000 0.41161  0.95040  0.94610  Biso   1.000  O
  O38      1.0000 0.20040  0.83839  0.19610  Biso   1.000  O
  O39      1.0000 0.91161  0.45040  0.44610  Biso   1.000  O
  O40      1.0000 0.70040  0.33839  0.69610  Biso   1.000  O
  O41      1.0000 0.70040  0.83839  0.30390  Biso   1.000  O
  O42      1.0000 0.91161  0.95040  0.55390  Biso   1.000  O
  O43      1.0000 0.20040  0.33839  0.80390  Biso   1.000  O
  O44      1.0000 0.41161  0.45040  0.05390  Biso   1.000  O
  O45      1.0000 0.08839  0.54960  0.55390  Biso   1.000  O
  O46      1.0000 0.79960  0.16161  0.80390  Biso   1.000  O
  O47      1.0000 0.58839  0.04960  0.05390  Biso   1.000  O
  O48      1.0000 0.29960  0.66161  0.30390  Biso   1.000  O
  H1       1.0000 0.30090  0.19110  0.70940  Biso   1.000  H
  H2       1.0000 0.55890  0.55090  0.95940  Biso   1.000  H
  H3       1.0000 0.80090  0.69110  0.20940  Biso   1.000  H
  H4       1.0000 0.05890  0.05090  0.45940  Biso   1.000  H
  H5       1.0000 0.44110  0.94910  0.95940  Biso   1.000  H
  H6       1.0000 0.19910  0.80890  0.20940  Biso   1.000  H
  H7       1.0000 0.94110  0.44910  0.45940  Biso   1.000  H
  H8       1.0000 0.69910  0.30890  0.70940  Biso   1.000  H
  H9       1.0000 0.69910  0.80890  0.29060  Biso   1.000  H
  H10      1.0000 0.94110  0.94910  0.54060  Biso   1.000  H
  H11      1.0000 0.19910  0.30890  0.79060  Biso   1.000  H
  H12      1.0000 0.44110  0.44910  0.04060  Biso   1.000  H
  H13      1.0000 0.05890  0.55090  0.54060  Biso   1.000  H
  H14      1.0000 0.80090  0.19110  0.79060  Biso   1.000  H
  H15      1.0000 0.55890  0.05090  0.04060  Biso   1.000  H
  H16      1.0000 0.30090  0.69110  0.29060  Biso   1.000  H
  N1       1.0000 0.33352  0.45243  0.71980  Biso   1.000  N
  N2       1.0000 0.29757  0.58352  0.96980  Biso   1.000  N
  N3       1.0000 0.83352  0.95243  0.21980  Biso   1.000  N
  N4       1.0000 0.79757  0.08352  0.46980  Biso   1.000  N
  N5       1.0000 0.70243  0.91648  0.96980  Biso   1.000  N
  N6       1.0000 0.16648  0.54757  0.21980  Biso   1.000  N
  N7       1.0000 0.20243  0.41648  0.46980  Biso   1.000  N
  N8       1.0000 0.66648  0.04757  0.71980  Biso   1.000  N
  N9       1.0000 0.66648  0.54757  0.28020  Biso   1.000  N
  N10      1.0000 0.20243  0.91648  0.53020  Biso   1.000  N
  N11      1.0000 0.16648  0.04757  0.78020  Biso   1.000  N
  N12      1.0000 0.70243  0.41648  0.03020  Biso   1.000  N
  N13      1.0000 0.79757  0.58352  0.53020  Biso   1.000  N
  N14      1.0000 0.83352  0.45243  0.78020  Biso   1.000  N
  N15      1.0000 0.29757  0.08352  0.03020  Biso   1.000  N
  N16      1.0000 0.33352  0.95243  0.28020  Biso   1.000  N
  N17      1.0000 0.37479  0.44528  0.77660  Biso   1.000  N
  N18      1.0000 0.30472  0.62479  0.02660  Biso   1.000  N
  N19      1.0000 0.87479  0.94528  0.27660  Biso   1.000  N
  N20      1.0000 0.80472  0.12479  0.52660  Biso   1.000  N
  N21      1.0000 0.69528  0.87521  0.02660  Biso   1.000  N
  N22      1.0000 0.12521  0.55472  0.27660  Biso   1.000  N
  N23      1.0000 0.19528  0.37521  0.52660  Biso   1.000  N
  N24      1.0000 0.62521  0.05472  0.77660  Biso   1.000  N
  N25      1.0000 0.62521  0.55472  0.22340  Biso   1.000  N
  N26      1.0000 0.19528  0.87521  0.47340  Biso   1.000  N
  N27      1.0000 0.12521  0.05472  0.72340  Biso   1.000  N
  N28      1.0000 0.69528  0.37521  0.97340  Biso   1.000  N
  N29      1.0000 0.80472  0.62479  0.47340  Biso   1.000  N
  N30      1.0000 0.87479  0.44528  0.72340  Biso   1.000  N
  N31      1.0000 0.30472  0.12479  0.97340  Biso   1.000  N
  N32      1.0000 0.37479  0.94528  0.22340  Biso   1.000  N
  N33      1.0000 0.29963  0.30517  0.66410  Biso   1.000  N
  N34      1.0000 0.44483  0.54963  0.91410  Biso   1.000  N
  N35      1.0000 0.79963  0.80517  0.16410  Biso   1.000  N
  N36      1.0000 0.94483  0.04963  0.41410  Biso   1.000  N
  N37      1.0000 0.55517  0.95037  0.91410  Biso   1.000  N
  N38      1.0000 0.20037  0.69483  0.16410  Biso   1.000  N
  N39      1.0000 0.05517  0.45037  0.41410  Biso   1.000  N
  N40      1.0000 0.70037  0.19483  0.66410  Biso   1.000  N
  N41      1.0000 0.70037  0.69483  0.33590  Biso   1.000  N
  N42      1.0000 0.05517  0.95037  0.58590  Biso   1.000  N
  N43      1.0000 0.20037  0.19483  0.83590  Biso   1.000  N
  N44      1.0000 0.55517  0.45037  0.08590  Biso   1.000  N
  N45      1.0000 0.94483  0.54963  0.58590  Biso   1.000  N
  N46      1.0000 0.79963  0.30517  0.83590  Biso   1.000  N
  N47      1.0000 0.44483  0.04963  0.08590  Biso   1.000  N
  N48      1.0000 0.29963  0.80517  0.33590  Biso   1.000  N
  N49      1.0000 0.29265  0.25389  0.65370  Biso   1.000  N
  N50      1.0000 0.49611  0.54265  0.90370  Biso   1.000  N
  N51      1.0000 0.79265  0.75389  0.15370  Biso   1.000  N
  N52      1.0000 0.99611  0.04265  0.40370  Biso   1.000  N
  N53      1.0000 0.50389  0.95735  0.90370  Biso   1.000  N
  N54      1.0000 0.20735  0.74611  0.15370  Biso   1.000  N
  N55      1.0000 0.00389  0.45735  0.40370  Biso   1.000  N
  N56      1.0000 0.70735  0.24611  0.65370  Biso   1.000  N
  N57      1.0000 0.70735  0.74611  0.34630  Biso   1.000  N
  N58      1.0000 0.00389  0.95735  0.59630  Biso   1.000  N
  N59      1.0000 0.20735  0.24611  0.84630  Biso   1.000  N
  N60      1.0000 0.50389  0.45735  0.09630  Biso   1.000  N
  N61      1.0000 0.99611  0.54265  0.59630  Biso   1.000  N
  N62      1.0000 0.79265  0.25389  0.84630  Biso   1.000  N
  N63      1.0000 0.49611  0.04265  0.09630  Biso   1.000  N
  N64      1.0000 0.29265  0.75389  0.34630  Biso   1.000  N
  C1       1.0000 0.27820  0.52170  0.69220  Biso   1.000  C
  C2       1.0000 0.22830  0.52820  0.94220  Biso   1.000  C
  C3       1.0000 0.77820  0.02170  0.19220  Biso   1.000  C
  C4       1.0000 0.72830  0.02820  0.44220  Biso   1.000  C
  C5       1.0000 0.77170  0.97180  0.94220  Biso   1.000  C
  C6       1.0000 0.22180  0.47830  0.19220  Biso   1.000  C
  C7       1.0000 0.27170  0.47180  0.44220  Biso   1.000  C
  C8       1.0000 0.72180  0.97830  0.69220  Biso   1.000  C
  C9       1.0000 0.72180  0.47830  0.30780  Biso   1.000  C
  C10      1.0000 0.27170  0.97180  0.55780  Biso   1.000  C
  C11      1.0000 0.22180  0.97830  0.80780  Biso   1.000  C
  C12      1.0000 0.77170  0.47180  0.05780  Biso   1.000  C
  C13      1.0000 0.72830  0.52820  0.55780  Biso   1.000  C
  C14      1.0000 0.77820  0.52170  0.80780  Biso   1.000  C
  C15      1.0000 0.22830  0.02820  0.05780  Biso   1.000  C
  C16      1.0000 0.27820  0.02170  0.30780  Biso   1.000  C
  H17      1.0000 0.25280  0.50410  0.72120  Biso   1.000  H
  H18      1.0000 0.24590  0.50280  0.97120  Biso   1.000  H
  H19      1.0000 0.75280  0.00410  0.22120  Biso   1.000  H
  H20      1.0000 0.74590  0.00280  0.47120  Biso   1.000  H
  H21      1.0000 0.75410  0.99720  0.97120  Biso   1.000  H
  H22      1.0000 0.24720  0.49590  0.22120  Biso   1.000  H
  H23      1.0000 0.25410  0.49720  0.47120  Biso   1.000  H
  H24      1.0000 0.74720  0.99590  0.72120  Biso   1.000  H
  H25      1.0000 0.74720  0.49590  0.27880  Biso   1.000  H
  H26      1.0000 0.25410  0.99720  0.52880  Biso   1.000  H
  H27      1.0000 0.24720  0.99590  0.77880  Biso   1.000  H
  H28      1.0000 0.75410  0.49720  0.02880  Biso   1.000  H
  H29      1.0000 0.74590  0.50280  0.52880  Biso   1.000  H
  H30      1.0000 0.75280  0.50410  0.77880  Biso   1.000  H
  H31      1.0000 0.24590  0.00280  0.02880  Biso   1.000  H
  H32      1.0000 0.25280  0.00410  0.27880  Biso   1.000  H
  C17      1.0000 0.26980  0.56880  0.65870  Biso   1.000  C
  C18      1.0000 0.18120  0.51980  0.90870  Biso   1.000  C
  C19      1.0000 0.76980  0.06880  0.15870  Biso   1.000  C
  C20      1.0000 0.68120  0.01980  0.40870  Biso   1.000  C
  C21      1.0000 0.81880  0.98020  0.90870  Biso   1.000  C
  C22      1.0000 0.23020  0.43120  0.15870  Biso   1.000  C
  C23      1.0000 0.31880  0.48020  0.40870  Biso   1.000  C
  C24      1.0000 0.73020  0.93120  0.65870  Biso   1.000  C
  C25      1.0000 0.73020  0.43120  0.34130  Biso   1.000  C
  C26      1.0000 0.31880  0.98020  0.59130  Biso   1.000  C
  C27      1.0000 0.23020  0.93120  0.84130  Biso   1.000  C
  C28      1.0000 0.81880  0.48020  0.09130  Biso   1.000  C
  C29      1.0000 0.68120  0.51980  0.59130  Biso   1.000  C
  C30      1.0000 0.76980  0.56880  0.84130  Biso   1.000  C
  C31      1.0000 0.18120  0.01980  0.09130  Biso   1.000  C
  C32      1.0000 0.26980  0.06880  0.34130  Biso   1.000  C
  H33      1.0000 0.23870  0.58310  0.66440  Biso   1.000  H
  H34      1.0000 0.16690  0.48870  0.91440  Biso   1.000  H
  H35      1.0000 0.73870  0.08310  0.16440  Biso   1.000  H
  H36      1.0000 0.66690  0.98870  0.41440  Biso   1.000  H
  H37      1.0000 0.83310  0.01130  0.91440  Biso   1.000  H
  H38      1.0000 0.26130  0.41690  0.16440  Biso   1.000  H
  H39      1.0000 0.33310  0.51130  0.41440  Biso   1.000  H
  H40      1.0000 0.76130  0.91690  0.66440  Biso   1.000  H
  H41      1.0000 0.76130  0.41690  0.33560  Biso   1.000  H
  H42      1.0000 0.33310  0.01130  0.58560  Biso   1.000  H
  H43      1.0000 0.26130  0.91690  0.83560  Biso   1.000  H
  H44      1.0000 0.83310  0.51130  0.08560  Biso   1.000  H
  H45      1.0000 0.66690  0.48870  0.58560  Biso   1.000  H
  H46      1.0000 0.73870  0.58310  0.83560  Biso   1.000  H
  H47      1.0000 0.16690  0.98870  0.08560  Biso   1.000  H
  H48      1.0000 0.23870  0.08310  0.33560  Biso   1.000  H
  C33      1.0000 0.30710  0.59390  0.61740  Biso   1.000  C
  C34      1.0000 0.15610  0.55710  0.86740  Biso   1.000  C
  C35      1.0000 0.80710  0.09390  0.11740  Biso   1.000  C
  C36      1.0000 0.65610  0.05710  0.36740  Biso   1.000  C
  C37      1.0000 0.84390  0.94290  0.86740  Biso   1.000  C
  C38      1.0000 0.19290  0.40610  0.11740  Biso   1.000  C
  C39      1.0000 0.34390  0.44290  0.36740  Biso   1.000  C
  C40      1.0000 0.69290  0.90610  0.61740  Biso   1.000  C
  C41      1.0000 0.69290  0.40610  0.38260  Biso   1.000  C
  C42      1.0000 0.34390  0.94290  0.63260  Biso   1.000  C
  C43      1.0000 0.19290  0.90610  0.88260  Biso   1.000  C
  C44      1.0000 0.84390  0.44290  0.13260  Biso   1.000  C
  C45      1.0000 0.65610  0.55710  0.63260  Biso   1.000  C
  C46      1.0000 0.80710  0.59390  0.88260  Biso   1.000  C
  C47      1.0000 0.15610  0.05710  0.13260  Biso   1.000  C
  C48      1.0000 0.30710  0.09390  0.38260  Biso   1.000  C
  H49      1.0000 0.30150  0.62570  0.59470  Biso   1.000  H
  H50      1.0000 0.12430  0.55150  0.84470  Biso   1.000  H
  H51      1.0000 0.80150  0.12570  0.09470  Biso   1.000  H
  H52      1.0000 0.62430  0.05150  0.34470  Biso   1.000  H
  H53      1.0000 0.87570  0.94850  0.84470  Biso   1.000  H
  H54      1.0000 0.19850  0.37430  0.09470  Biso   1.000  H
  H55      1.0000 0.37570  0.44850  0.34470  Biso   1.000  H
  H56      1.0000 0.69850  0.87430  0.59470  Biso   1.000  H
  H57      1.0000 0.69850  0.37430  0.40530  Biso   1.000  H
  H58      1.0000 0.37570  0.94850  0.65530  Biso   1.000  H
  H59      1.0000 0.19850  0.87430  0.90530  Biso   1.000  H
  H60      1.0000 0.87570  0.44850  0.15530  Biso   1.000  H
  H61      1.0000 0.62430  0.55150  0.65530  Biso   1.000  H
  H62      1.0000 0.80150  0.62570  0.90530  Biso   1.000  H
  H63      1.0000 0.12430  0.05150  0.15530  Biso   1.000  H
  H64      1.0000 0.30150  0.12570  0.40530  Biso   1.000  H
  C49      1.0000 0.35330  0.57330  0.60860  Biso   1.000  C
  C50      1.0000 0.17670  0.60330  0.85860  Biso   1.000  C
  C51      1.0000 0.85330  0.07330  0.10860  Biso   1.000  C
  C52      1.0000 0.67670  0.10330  0.35860  Biso   1.000  C
  C53      1.0000 0.82330  0.89670  0.85860  Biso   1.000  C
  C54      1.0000 0.14670  0.42670  0.10860  Biso   1.000  C
  C55      1.0000 0.32330  0.39670  0.35860  Biso   1.000  C
  C56      1.0000 0.64670  0.92670  0.60860  Biso   1.000  C
  C57      1.0000 0.64670  0.42670  0.39140  Biso   1.000  C
  C58      1.0000 0.32330  0.89670  0.64140  Biso   1.000  C
  C59      1.0000 0.14670  0.92670  0.89140  Biso   1.000  C
  C60      1.0000 0.82330  0.39670  0.14140  Biso   1.000  C
  C61      1.0000 0.67670  0.60330  0.64140  Biso   1.000  C
  C62      1.0000 0.85330  0.57330  0.89140  Biso   1.000  C
  C63      1.0000 0.17670  0.10330  0.14140  Biso   1.000  C
  C64      1.0000 0.35330  0.07330  0.39140  Biso   1.000  C
  H65      1.0000 0.37880  0.59100  0.58050  Biso   1.000  H
  H66      1.0000 0.15900  0.62880  0.83050  Biso   1.000  H
  H67      1.0000 0.87880  0.09100  0.08050  Biso   1.000  H
  H68      1.0000 0.65900  0.12880  0.33050  Biso   1.000  H
  H69      1.0000 0.84100  0.87120  0.83050  Biso   1.000  H
  H70      1.0000 0.12120  0.40900  0.08050  Biso   1.000  H
  H71      1.0000 0.34100  0.37120  0.33050  Biso   1.000  H
  H72      1.0000 0.62120  0.90900  0.58050  Biso   1.000  H
  H73      1.0000 0.62120  0.40900  0.41950  Biso   1.000  H
  H74      1.0000 0.34100  0.87120  0.66950  Biso   1.000  H
  H75      1.0000 0.12120  0.90900  0.91950  Biso   1.000  H
  H76      1.0000 0.84100  0.37120  0.16950  Biso   1.000  H
  H77      1.0000 0.65900  0.62880  0.66950  Biso   1.000  H
  H78      1.0000 0.87880  0.59100  0.91950  Biso   1.000  H
  H79      1.0000 0.15900  0.12880  0.16950  Biso   1.000  H
  H80      1.0000 0.37880  0.09100  0.41950  Biso   1.000  H
  C65      1.0000 0.36140  0.52630  0.64160  Biso   1.000  C
  C66      1.0000 0.22370  0.61140  0.89160  Biso   1.000  C
  C67      1.0000 0.86140  0.02630  0.14160  Biso   1.000  C
  C68      1.0000 0.72370  0.11140  0.39160  Biso   1.000  C
  C69      1.0000 0.77630  0.88860  0.89160  Biso   1.000  C
  C70      1.0000 0.13860  0.47370  0.14160  Biso   1.000  C
  C71      1.0000 0.27630  0.38860  0.39160  Biso   1.000  C
  C72      1.0000 0.63860  0.97370  0.64160  Biso   1.000  C
  C73      1.0000 0.63860  0.47370  0.35840  Biso   1.000  C
  C74      1.0000 0.27630  0.88860  0.60840  Biso   1.000  C
  C75      1.0000 0.13860  0.97370  0.85840  Biso   1.000  C
  C76      1.0000 0.77630  0.38860  0.10840  Biso   1.000  C
  C77      1.0000 0.72370  0.61140  0.60840  Biso   1.000  C
  C78      1.0000 0.86140  0.52630  0.85840  Biso   1.000  C
  C79      1.0000 0.22370  0.11140  0.10840  Biso   1.000  C
  C80      1.0000 0.36140  0.02630  0.35840  Biso   1.000  C
  H81      1.0000 0.39250  0.51190  0.63570  Biso   1.000  H
  H82      1.0000 0.23810  0.64250  0.88570  Biso   1.000  H
  H83      1.0000 0.89250  0.01190  0.13570  Biso   1.000  H
  H84      1.0000 0.73810  0.14250  0.38570  Biso   1.000  H
  H85      1.0000 0.76190  0.85750  0.88570  Biso   1.000  H
  H86      1.0000 0.10750  0.48810  0.13570  Biso   1.000  H
  H87      1.0000 0.26190  0.35750  0.38570  Biso   1.000  H
  H88      1.0000 0.60750  0.98810  0.63570  Biso   1.000  H
  H89      1.0000 0.60750  0.48810  0.36430  Biso   1.000  H
  H90      1.0000 0.26190  0.85750  0.61430  Biso   1.000  H
  H91      1.0000 0.10750  0.98810  0.86430  Biso   1.000  H
  H92      1.0000 0.76190  0.35750  0.11430  Biso   1.000  H
  H93      1.0000 0.73810  0.64250  0.61430  Biso   1.000  H
  H94      1.0000 0.89250  0.51190  0.86430  Biso   1.000  H
  H95      1.0000 0.23810  0.14250  0.11430  Biso   1.000  H
  H96      1.0000 0.39250  0.01190  0.36430  Biso   1.000  H
  C81      1.0000 0.32400  0.50090  0.68290  Biso   1.000  C
  C82      1.0000 0.24910  0.57400  0.93290  Biso   1.000  C
  C83      1.0000 0.82400  0.00090  0.18290  Biso   1.000  C
  C84      1.0000 0.74910  0.07400  0.43290  Biso   1.000  C
  C85      1.0000 0.75090  0.92600  0.93290  Biso   1.000  C
  C86      1.0000 0.17600  0.49910  0.18290  Biso   1.000  C
  C87      1.0000 0.25090  0.42600  0.43290  Biso   1.000  C
  C88      1.0000 0.67600  0.99910  0.68290  Biso   1.000  C
  C89      1.0000 0.67600  0.49910  0.31710  Biso   1.000  C
  C90      1.0000 0.25090  0.92600  0.56710  Biso   1.000  C
  C91      1.0000 0.17600  0.99910  0.81710  Biso   1.000  C
  C92      1.0000 0.75090  0.42600  0.06710  Biso   1.000  C
  C93      1.0000 0.74910  0.57400  0.56710  Biso   1.000  C
  C94      1.0000 0.82400  0.50090  0.81710  Biso   1.000  C
  C95      1.0000 0.24910  0.07400  0.06710  Biso   1.000  C
  C96      1.0000 0.32400  0.00090  0.31710  Biso   1.000  C
  C97      1.0000 0.31510  0.40810  0.68920  Biso   1.000  C
  C98      1.0000 0.34190  0.56510  0.93920  Biso   1.000  C
  C99      1.0000 0.81510  0.90810  0.18920  Biso   1.000  C
  C100     1.0000 0.84190  0.06510  0.43920  Biso   1.000  C
  C101     1.0000 0.65810  0.93490  0.93920  Biso   1.000  C
  C102     1.0000 0.18490  0.59190  0.18920  Biso   1.000  C
  C103     1.0000 0.15810  0.43490  0.43920  Biso   1.000  C
  C104     1.0000 0.68490  0.09190  0.68920  Biso   1.000  C
  C105     1.0000 0.68490  0.59190  0.31080  Biso   1.000  C
  C106     1.0000 0.15810  0.93490  0.56080  Biso   1.000  C
  C107     1.0000 0.18490  0.09190  0.81080  Biso   1.000  C
  C108     1.0000 0.65810  0.43490  0.06080  Biso   1.000  C
  C109     1.0000 0.84190  0.56510  0.56080  Biso   1.000  C
  C110     1.0000 0.81510  0.40810  0.81080  Biso   1.000  C
  C111     1.0000 0.34190  0.06510  0.06080  Biso   1.000  C
  C112     1.0000 0.31510  0.90810  0.31080  Biso   1.000  C
  C113     1.0000 0.34540  0.37080  0.72730  Biso   1.000  C
  C114     1.0000 0.37920  0.59540  0.97730  Biso   1.000  C
  C115     1.0000 0.84540  0.87080  0.22730  Biso   1.000  C
  C116     1.0000 0.87920  0.09540  0.47730  Biso   1.000  C
  C117     1.0000 0.62080  0.90460  0.97730  Biso   1.000  C
  C118     1.0000 0.15460  0.62920  0.22730  Biso   1.000  C
  C119     1.0000 0.12080  0.40460  0.47730  Biso   1.000  C
  C120     1.0000 0.65460  0.12920  0.72730  Biso   1.000  C
  C121     1.0000 0.65460  0.62920  0.27270  Biso   1.000  C
  C122     1.0000 0.12080  0.90460  0.52270  Biso   1.000  C
  C123     1.0000 0.15460  0.12920  0.77270  Biso   1.000  C
  C124     1.0000 0.62080  0.40460  0.02270  Biso   1.000  C
  C125     1.0000 0.87920  0.59540  0.52270  Biso   1.000  C
  C126     1.0000 0.84540  0.37080  0.77270  Biso   1.000  C
  C127     1.0000 0.37920  0.09540  0.02270  Biso   1.000  C
  C128     1.0000 0.34540  0.87080  0.27270  Biso   1.000  C
  C129     1.0000 0.38130  0.39650  0.78140  Biso   1.000  C
  C130     1.0000 0.35350  0.63130  0.03140  Biso   1.000  C
  C131     1.0000 0.88130  0.89650  0.28140  Biso   1.000  C
  C132     1.0000 0.85350  0.13130  0.53140  Biso   1.000  C
  C133     1.0000 0.64650  0.86870  0.03140  Biso   1.000  C
  C134     1.0000 0.11870  0.60350  0.28140  Biso   1.000  C
  C135     1.0000 0.14650  0.36870  0.53140  Biso   1.000  C
  C136     1.0000 0.61870  0.10350  0.78140  Biso   1.000  C
  C137     1.0000 0.61870  0.60350  0.21860  Biso   1.000  C
  C138     1.0000 0.14650  0.86870  0.46860  Biso   1.000  C
  C139     1.0000 0.11870  0.10350  0.71860  Biso   1.000  C
  C140     1.0000 0.64650  0.36870  0.96860  Biso   1.000  C
  C141     1.0000 0.85350  0.63130  0.46860  Biso   1.000  C
  C142     1.0000 0.88130  0.39650  0.71860  Biso   1.000  C
  C143     1.0000 0.35350  0.13130  0.96860  Biso   1.000  C
  C144     1.0000 0.38130  0.89650  0.21860  Biso   1.000  C
  C145     1.0000 0.42200  0.37710  0.84410  Biso   1.000  C
  C146     1.0000 0.37290  0.67200  0.09410  Biso   1.000  C
  C147     1.0000 0.92200  0.87710  0.34410  Biso   1.000  C
  C148     1.0000 0.87290  0.17200  0.59410  Biso   1.000  C
  C149     1.0000 0.62710  0.82800  0.09410  Biso   1.000  C
  C150     1.0000 0.07800  0.62290  0.34410  Biso   1.000  C
  C151     1.0000 0.12710  0.32800  0.59410  Biso   1.000  C
  C152     1.0000 0.57800  0.12290  0.84410  Biso   1.000  C
  C153     1.0000 0.57800  0.62290  0.15590  Biso   1.000  C
  C154     1.0000 0.12710  0.82800  0.40590  Biso   1.000  C
  C155     1.0000 0.07800  0.12290  0.65590  Biso   1.000  C
  C156     1.0000 0.62710  0.32800  0.90590  Biso   1.000  C
  C157     1.0000 0.87290  0.67200  0.40590  Biso   1.000  C
  C158     1.0000 0.92200  0.37710  0.65590  Biso   1.000  C
  C159     1.0000 0.37290  0.17200  0.90590  Biso   1.000  C
  C160     1.0000 0.42200  0.87710  0.15590  Biso   1.000  C
  H97      1.0000 0.43630  0.40390  0.87900  Biso   1.000  H
  H98      1.0000 0.34610  0.68630  0.12900  Biso   1.000  H
  H99      1.0000 0.93630  0.90390  0.37900  Biso   1.000  H
  H100     1.0000 0.84610  0.18630  0.62900  Biso   1.000  H
  H101     1.0000 0.65390  0.81370  0.12900  Biso   1.000  H
  H102     1.0000 0.06370  0.59610  0.37900  Biso   1.000  H
  H103     1.0000 0.15390  0.31370  0.62900  Biso   1.000  H
  H104     1.0000 0.56370  0.09610  0.87900  Biso   1.000  H
  H105     1.0000 0.56370  0.59610  0.12100  Biso   1.000  H
  H106     1.0000 0.15390  0.81370  0.37100  Biso   1.000  H
  H107     1.0000 0.06370  0.09610  0.62100  Biso   1.000  H
  H108     1.0000 0.65390  0.31370  0.87100  Biso   1.000  H
  H109     1.0000 0.84610  0.68630  0.37100  Biso   1.000  H
  H110     1.0000 0.93630  0.40390  0.62100  Biso   1.000  H
  H111     1.0000 0.34610  0.18630  0.87100  Biso   1.000  H
  H112     1.0000 0.43630  0.90390  0.12100  Biso   1.000  H
  H113     1.0000 0.44690  0.36170  0.80570  Biso   1.000  H
  H114     1.0000 0.38830  0.69690  0.05570  Biso   1.000  H
  H115     1.0000 0.94690  0.86170  0.30570  Biso   1.000  H
  H116     1.0000 0.88830  0.19690  0.55570  Biso   1.000  H
  H117     1.0000 0.61170  0.80310  0.05570  Biso   1.000  H
  H118     1.0000 0.05310  0.63830  0.30570  Biso   1.000  H
  H119     1.0000 0.11170  0.30310  0.55570  Biso   1.000  H
  H120     1.0000 0.55310  0.13830  0.80570  Biso   1.000  H
  H121     1.0000 0.55310  0.63830  0.19430  Biso   1.000  H
  H122     1.0000 0.11170  0.80310  0.44430  Biso   1.000  H
  H123     1.0000 0.05310  0.13830  0.69430  Biso   1.000  H
  H124     1.0000 0.61170  0.30310  0.94430  Biso   1.000  H
  H125     1.0000 0.88830  0.69690  0.44430  Biso   1.000  H
  H126     1.0000 0.94690  0.36170  0.69430  Biso   1.000  H
  H127     1.0000 0.38830  0.19690  0.94430  Biso   1.000  H
  H128     1.0000 0.44690  0.86170  0.19430  Biso   1.000  H
  H129     1.0000 0.40860  0.35330  0.88750  Biso   1.000  H
  H130     1.0000 0.39670  0.65860  0.13750  Biso   1.000  H
  H131     1.0000 0.90860  0.85330  0.38750  Biso   1.000  H
  H132     1.0000 0.89670  0.15860  0.63750  Biso   1.000  H
  H133     1.0000 0.60330  0.84140  0.13750  Biso   1.000  H
  H134     1.0000 0.09140  0.64670  0.38750  Biso   1.000  H
  H135     1.0000 0.10330  0.34140  0.63750  Biso   1.000  H
  H136     1.0000 0.59140  0.14670  0.88750  Biso   1.000  H
  H137     1.0000 0.59140  0.64670  0.11250  Biso   1.000  H
  H138     1.0000 0.10330  0.84140  0.36250  Biso   1.000  H
  H139     1.0000 0.09140  0.14670  0.61250  Biso   1.000  H
  H140     1.0000 0.60330  0.34140  0.86250  Biso   1.000  H
  H141     1.0000 0.89670  0.65860  0.36250  Biso   1.000  H
  H142     1.0000 0.90860  0.35330  0.61250  Biso   1.000  H
  H143     1.0000 0.39670  0.15860  0.86250  Biso   1.000  H
  H144     1.0000 0.40860  0.85330  0.11250  Biso   1.000  H
  C161     1.0000 0.33790  0.31910  0.71360  Biso   1.000  C
  C162     1.0000 0.43090  0.58790  0.96360  Biso   1.000  C
  C163     1.0000 0.83790  0.81910  0.21360  Biso   1.000  C
  C164     1.0000 0.93090  0.08790  0.46360  Biso   1.000  C
  C165     1.0000 0.56910  0.91210  0.96360  Biso   1.000  C
  C166     1.0000 0.16210  0.68090  0.21360  Biso   1.000  C
  C167     1.0000 0.06910  0.41210  0.46360  Biso   1.000  C
  C168     1.0000 0.66210  0.18090  0.71360  Biso   1.000  C
  C169     1.0000 0.66210  0.68090  0.28640  Biso   1.000  C
  C170     1.0000 0.06910  0.91210  0.53640  Biso   1.000  C
  C171     1.0000 0.16210  0.18090  0.78640  Biso   1.000  C
  C172     1.0000 0.56910  0.41210  0.03640  Biso   1.000  C
  C173     1.0000 0.93090  0.58790  0.53640  Biso   1.000  C
  C174     1.0000 0.83790  0.31910  0.78640  Biso   1.000  C
  C175     1.0000 0.43090  0.08790  0.03640  Biso   1.000  C
  C176     1.0000 0.33790  0.81910  0.28640  Biso   1.000  C
  C177     1.0000 0.37290  0.28180  0.75390  Biso   1.000  C
  C178     1.0000 0.46820  0.62290  0.00390  Biso   1.000  C
  C179     1.0000 0.87290  0.78180  0.25390  Biso   1.000  C
  C180     1.0000 0.96820  0.12290  0.50390  Biso   1.000  C
  C181     1.0000 0.53180  0.87710  0.00390  Biso   1.000  C
  C182     1.0000 0.12710  0.71820  0.25390  Biso   1.000  C
  C183     1.0000 0.03180  0.37710  0.50390  Biso   1.000  C
  C184     1.0000 0.62710  0.21820  0.75390  Biso   1.000  C
  C185     1.0000 0.62710  0.71820  0.24610  Biso   1.000  C
  C186     1.0000 0.03180  0.87710  0.49610  Biso   1.000  C
  C187     1.0000 0.12710  0.21820  0.74610  Biso   1.000  C
  C188     1.0000 0.53180  0.37710  0.99610  Biso   1.000  C
  C189     1.0000 0.96820  0.62290  0.49610  Biso   1.000  C
  C190     1.0000 0.87290  0.28180  0.74610  Biso   1.000  C
  C191     1.0000 0.46820  0.12290  0.99610  Biso   1.000  C
  C192     1.0000 0.37290  0.78180  0.24610  Biso   1.000  C
  H145     1.0000 0.37390  0.25330  0.71350  Biso   1.000  H
  H146     1.0000 0.49670  0.62390  0.96350  Biso   1.000  H
  H147     1.0000 0.87390  0.75330  0.21350  Biso   1.000  H
  H148     1.0000 0.99670  0.12390  0.46350  Biso   1.000  H
  H149     1.0000 0.50330  0.87610  0.96350  Biso   1.000  H
  H150     1.0000 0.12610  0.74670  0.21350  Biso   1.000  H
  H151     1.0000 0.00330  0.37610  0.46350  Biso   1.000  H
  H152     1.0000 0.62610  0.24670  0.71350  Biso   1.000  H
  H153     1.0000 0.62610  0.74670  0.28650  Biso   1.000  H
  H154     1.0000 0.00330  0.87610  0.53650  Biso   1.000  H
  H155     1.0000 0.12610  0.24670  0.78650  Biso   1.000  H
  H156     1.0000 0.50330  0.37610  0.03650  Biso   1.000  H
  H157     1.0000 0.99670  0.62390  0.53650  Biso   1.000  H
  H158     1.0000 0.87390  0.25330  0.78650  Biso   1.000  H
  H159     1.0000 0.49670  0.12390  0.03650  Biso   1.000  H
  H160     1.0000 0.37390  0.75330  0.28650  Biso   1.000  H
  H161     1.0000 0.36200  0.27230  0.81600  Biso   1.000  H
  H162     1.0000 0.47770  0.61200  0.06600  Biso   1.000  H
  H163     1.0000 0.86200  0.77230  0.31600  Biso   1.000  H
  H164     1.0000 0.97770  0.11200  0.56600  Biso   1.000  H
  H165     1.0000 0.52230  0.88800  0.06600  Biso   1.000  H
  H166     1.0000 0.13800  0.72770  0.31600  Biso   1.000  H
  H167     1.0000 0.02230  0.38800  0.56600  Biso   1.000  H
  H168     1.0000 0.63800  0.22770  0.81600  Biso   1.000  H
  H169     1.0000 0.63800  0.72770  0.18400  Biso   1.000  H
  H170     1.0000 0.02230  0.88800  0.43400  Biso   1.000  H
  H171     1.0000 0.13800  0.22770  0.68400  Biso   1.000  H
  H172     1.0000 0.52230  0.38800  0.93400  Biso   1.000  H
  H173     1.0000 0.97770  0.61200  0.43400  Biso   1.000  H
  H174     1.0000 0.86200  0.27230  0.68400  Biso   1.000  H
  H175     1.0000 0.47770  0.11200  0.93400  Biso   1.000  H
  H176     1.0000 0.36200  0.77230  0.18400  Biso   1.000  H
  H177     1.0000 0.40530  0.29610  0.75810  Biso   1.000  H
  H178     1.0000 0.45390  0.65530  0.00810  Biso   1.000  H
  H179     1.0000 0.90530  0.79610  0.25810  Biso   1.000  H
  H180     1.0000 0.95390  0.15530  0.50810  Biso   1.000  H
  H181     1.0000 0.54610  0.84470  0.00810  Biso   1.000  H
  H182     1.0000 0.09470  0.70390  0.25810  Biso   1.000  H
  H183     1.0000 0.04610  0.34470  0.50810  Biso   1.000  H
  H184     1.0000 0.59470  0.20390  0.75810  Biso   1.000  H
  H185     1.0000 0.59470  0.70390  0.24190  Biso   1.000  H
  H186     1.0000 0.04610  0.84470  0.49190  Biso   1.000  H
  H187     1.0000 0.09470  0.20390  0.74190  Biso   1.000  H
  H188     1.0000 0.54610  0.34470  0.99190  Biso   1.000  H
  H189     1.0000 0.95390  0.65530  0.49190  Biso   1.000  H
  H190     1.0000 0.90530  0.29610  0.74190  Biso   1.000  H
  H191     1.0000 0.45390  0.15530  0.99190  Biso   1.000  H
  H192     1.0000 0.40530  0.79610  0.24190  Biso   1.000  H
  C193     1.0000 0.25460  0.24550  0.59890  Biso   1.000  C
  C194     1.0000 0.50450  0.50460  0.84890  Biso   1.000  C
  C195     1.0000 0.75460  0.74550  0.09890  Biso   1.000  C
  C196     1.0000 0.00450  0.00460  0.34890  Biso   1.000  C
  C197     1.0000 0.49550  0.99540  0.84890  Biso   1.000  C
  C198     1.0000 0.24540  0.75450  0.09890  Biso   1.000  C
  C199     1.0000 0.99550  0.49540  0.34890  Biso   1.000  C
  C200     1.0000 0.74540  0.25450  0.59890  Biso   1.000  C
  C201     1.0000 0.74540  0.75450  0.40110  Biso   1.000  C
  C202     1.0000 0.99550  0.99540  0.65110  Biso   1.000  C
  C203     1.0000 0.24540  0.25450  0.90110  Biso   1.000  C
  C204     1.0000 0.49550  0.49540  0.15110  Biso   1.000  C
  C205     1.0000 0.00450  0.50460  0.65110  Biso   1.000  C
  C206     1.0000 0.75460  0.24550  0.90110  Biso   1.000  C
  C207     1.0000 0.50450  0.00460  0.15110  Biso   1.000  C
  C208     1.0000 0.25460  0.74550  0.40110  Biso   1.000  C
  C209     1.0000 0.24060  0.19300  0.58350  Biso   1.000  C
  C210     1.0000 0.55700  0.49060  0.83350  Biso   1.000  C
  C211     1.0000 0.74060  0.69300  0.08350  Biso   1.000  C
  C212     1.0000 0.05700  0.99060  0.33350  Biso   1.000  C
  C213     1.0000 0.44300  0.00940  0.83350  Biso   1.000  C
  C214     1.0000 0.25940  0.80700  0.08350  Biso   1.000  C
  C215     1.0000 0.94300  0.50940  0.33350  Biso   1.000  C
  C216     1.0000 0.75940  0.30700  0.58350  Biso   1.000  C
  C217     1.0000 0.75940  0.80700  0.41650  Biso   1.000  C
  C218     1.0000 0.94300  0.00940  0.66650  Biso   1.000  C
  C219     1.0000 0.25940  0.30700  0.91650  Biso   1.000  C
  C220     1.0000 0.44300  0.50940  0.16650  Biso   1.000  C
  C221     1.0000 0.05700  0.49060  0.66650  Biso   1.000  C
  C222     1.0000 0.74060  0.19300  0.91650  Biso   1.000  C
  C223     1.0000 0.55700  0.99060  0.16650  Biso   1.000  C
  C224     1.0000 0.24060  0.69300  0.41650  Biso   1.000  C
  C225     1.0000 0.20250  0.18130  0.52250  Biso   1.000  C
  C226     1.0000 0.56870  0.45250  0.77250  Biso   1.000  C
  C227     1.0000 0.70250  0.68130  0.02250  Biso   1.000  C
  C228     1.0000 0.06870  0.95250  0.27250  Biso   1.000  C
  C229     1.0000 0.43130  0.04750  0.77250  Biso   1.000  C
  C230     1.0000 0.29750  0.81870  0.02250  Biso   1.000  C
  C231     1.0000 0.93130  0.54750  0.27250  Biso   1.000  C
  C232     1.0000 0.79750  0.31870  0.52250  Biso   1.000  C
  C233     1.0000 0.79750  0.81870  0.47750  Biso   1.000  C
  C234     1.0000 0.93130  0.04750  0.72750  Biso   1.000  C
  C235     1.0000 0.29750  0.31870  0.97750  Biso   1.000  C
  C236     1.0000 0.43130  0.54750  0.22750  Biso   1.000  C
  C237     1.0000 0.06870  0.45250  0.72750  Biso   1.000  C
  C238     1.0000 0.70250  0.18130  0.97750  Biso   1.000  C
  C239     1.0000 0.56870  0.95250  0.22750  Biso   1.000  C
  C240     1.0000 0.20250  0.68130  0.47750  Biso   1.000  C
  H193     1.0000 0.18700  0.20680  0.48960  Biso   1.000  H
  H194     1.0000 0.54320  0.43700  0.73960  Biso   1.000  H
  H195     1.0000 0.68700  0.70680  0.98960  Biso   1.000  H
  H196     1.0000 0.04320  0.93700  0.23960  Biso   1.000  H
  H197     1.0000 0.45680  0.06300  0.73960  Biso   1.000  H
  H198     1.0000 0.31300  0.79320  0.98960  Biso   1.000  H
  H199     1.0000 0.95680  0.56300  0.23960  Biso   1.000  H
  H200     1.0000 0.81300  0.29320  0.48960  Biso   1.000  H
  H201     1.0000 0.81300  0.79320  0.51040  Biso   1.000  H
  H202     1.0000 0.95680  0.06300  0.76040  Biso   1.000  H
  H203     1.0000 0.31300  0.29320  0.01040  Biso   1.000  H
  H204     1.0000 0.45680  0.56300  0.26040  Biso   1.000  H
  H205     1.0000 0.04320  0.43700  0.76040  Biso   1.000  H
  H206     1.0000 0.68700  0.20680  0.01040  Biso   1.000  H
  H207     1.0000 0.54320  0.93700  0.26040  Biso   1.000  H
  H208     1.0000 0.18700  0.70680  0.51040  Biso   1.000  H
  C241     1.0000 0.18680  0.13380  0.50830  Biso   1.000  C
  C242     1.0000 0.61620  0.43680  0.75830  Biso   1.000  C
  C243     1.0000 0.68680  0.63380  0.00830  Biso   1.000  C
  C244     1.0000 0.11620  0.93680  0.25830  Biso   1.000  C
  C245     1.0000 0.38380  0.06320  0.75830  Biso   1.000  C
  C246     1.0000 0.31320  0.86620  0.00830  Biso   1.000  C
  C247     1.0000 0.88380  0.56320  0.25830  Biso   1.000  C
  C248     1.0000 0.81320  0.36620  0.50830  Biso   1.000  C
  C249     1.0000 0.81320  0.86620  0.49170  Biso   1.000  C
  C250     1.0000 0.88380  0.06320  0.74170  Biso   1.000  C
  C251     1.0000 0.31320  0.36620  0.99170  Biso   1.000  C
  C252     1.0000 0.38380  0.56320  0.24170  Biso   1.000  C
  C253     1.0000 0.11620  0.43680  0.74170  Biso   1.000  C
  C254     1.0000 0.68680  0.13380  0.99170  Biso   1.000  C
  C255     1.0000 0.61620  0.93680  0.24170  Biso   1.000  C
  C256     1.0000 0.18680  0.63380  0.49170  Biso   1.000  C
  H209     1.0000 0.16150  0.12730  0.46540  Biso   1.000  H
  H210     1.0000 0.62270  0.41150  0.71540  Biso   1.000  H
  H211     1.0000 0.66150  0.62730  0.96540  Biso   1.000  H
  H212     1.0000 0.12270  0.91150  0.21540  Biso   1.000  H
  H213     1.0000 0.37730  0.08850  0.71540  Biso   1.000  H
  H214     1.0000 0.33850  0.87270  0.96540  Biso   1.000  H
  H215     1.0000 0.87730  0.58850  0.21540  Biso   1.000  H
  H216     1.0000 0.83850  0.37270  0.46540  Biso   1.000  H
  H217     1.0000 0.83850  0.87270  0.53460  Biso   1.000  H
  H218     1.0000 0.87730  0.08850  0.78460  Biso   1.000  H
  H219     1.0000 0.33850  0.37270  0.03460  Biso   1.000  H
  H220     1.0000 0.37730  0.58850  0.28460  Biso   1.000  H
  H221     1.0000 0.12270  0.41150  0.78460  Biso   1.000  H
  H222     1.0000 0.66150  0.12730  0.03460  Biso   1.000  H
  H223     1.0000 0.62270  0.91150  0.28460  Biso   1.000  H
  H224     1.0000 0.16150  0.62730  0.53460  Biso   1.000  H
  C257     1.0000 0.20820  0.09610  0.55710  Biso   1.000  C
  C258     1.0000 0.65390  0.45820  0.80710  Biso   1.000  C
  C259     1.0000 0.70820  0.59610  0.05710  Biso   1.000  C
  C260     1.0000 0.15390  0.95820  0.30710  Biso   1.000  C
  C261     1.0000 0.34610  0.04180  0.80710  Biso   1.000  C
  C262     1.0000 0.29180  0.90390  0.05710  Biso   1.000  C
  C263     1.0000 0.84610  0.54180  0.30710  Biso   1.000  C
  C264     1.0000 0.79180  0.40390  0.55710  Biso   1.000  C
  C265     1.0000 0.79180  0.90390  0.44290  Biso   1.000  C
  C266     1.0000 0.84610  0.04180  0.69290  Biso   1.000  C
  C267     1.0000 0.29180  0.40390  0.94290  Biso   1.000  C
  C268     1.0000 0.34610  0.54180  0.19290  Biso   1.000  C
  C269     1.0000 0.15390  0.45820  0.69290  Biso   1.000  C
  C270     1.0000 0.70820  0.09610  0.94290  Biso   1.000  C
  C271     1.0000 0.65390  0.95820  0.19290  Biso   1.000  C
  C272     1.0000 0.20820  0.59610  0.44290  Biso   1.000  C
  H225     1.0000 0.19690  0.06390  0.54910  Biso   1.000  H
  H226     1.0000 0.68610  0.44690  0.79910  Biso   1.000  H
  H227     1.0000 0.69690  0.56390  0.04910  Biso   1.000  H
  H228     1.0000 0.18610  0.94690  0.29910  Biso   1.000  H
  H229     1.0000 0.31390  0.05310  0.79910  Biso   1.000  H
  H230     1.0000 0.30310  0.93610  0.04910  Biso   1.000  H
  H231     1.0000 0.81390  0.55310  0.29910  Biso   1.000  H
  H232     1.0000 0.80310  0.43610  0.54910  Biso   1.000  H
  H233     1.0000 0.80310  0.93610  0.45090  Biso   1.000  H
  H234     1.0000 0.81390  0.05310  0.70090  Biso   1.000  H
  H235     1.0000 0.30310  0.43610  0.95090  Biso   1.000  H
  H236     1.0000 0.31390  0.55310  0.20090  Biso   1.000  H
  H237     1.0000 0.18610  0.44690  0.70090  Biso   1.000  H
  H238     1.0000 0.69690  0.06390  0.95090  Biso   1.000  H
  H239     1.0000 0.68610  0.94690  0.20090  Biso   1.000  H
  H240     1.0000 0.19690  0.56390  0.45090  Biso   1.000  H
  C273     1.0000 0.24660  0.10570  0.61850  Biso   1.000  C
  C274     1.0000 0.64430  0.49660  0.86850  Biso   1.000  C
  C275     1.0000 0.74660  0.60570  0.11850  Biso   1.000  C
  C276     1.0000 0.14430  0.99660  0.36850  Biso   1.000  C
  C277     1.0000 0.35570  0.00340  0.86850  Biso   1.000  C
  C278     1.0000 0.25340  0.89430  0.11850  Biso   1.000  C
  C279     1.0000 0.85570  0.50340  0.36850  Biso   1.000  C
  C280     1.0000 0.75340  0.39430  0.61850  Biso   1.000  C
  C281     1.0000 0.75340  0.89430  0.38150  Biso   1.000  C
  C282     1.0000 0.85570  0.00340  0.63150  Biso   1.000  C
  C283     1.0000 0.25340  0.39430  0.88150  Biso   1.000  C
  C284     1.0000 0.35570  0.50340  0.13150  Biso   1.000  C
  C285     1.0000 0.14430  0.49660  0.63150  Biso   1.000  C
  C286     1.0000 0.74660  0.10570  0.88150  Biso   1.000  C
  C287     1.0000 0.64430  0.99660  0.13150  Biso   1.000  C
  C288     1.0000 0.24660  0.60570  0.38150  Biso   1.000  C
  H241     1.0000 0.26170  0.08000  0.65130  Biso   1.000  H
  H242     1.0000 0.67000  0.51170  0.90130  Biso   1.000  H
  H243     1.0000 0.76170  0.58000  0.15130  Biso   1.000  H
  H244     1.0000 0.17000  0.01170  0.40130  Biso   1.000  H
  H245     1.0000 0.33000  0.98830  0.90130  Biso   1.000  H
  H246     1.0000 0.23830  0.92000  0.15130  Biso   1.000  H
  H247     1.0000 0.83000  0.48830  0.40130  Biso   1.000  H
  H248     1.0000 0.73830  0.42000  0.65130  Biso   1.000  H
  H249     1.0000 0.73830  0.92000  0.34870  Biso   1.000  H
  H250     1.0000 0.83000  0.98830  0.59870  Biso   1.000  H
  H251     1.0000 0.23830  0.42000  0.84870  Biso   1.000  H
  H252     1.0000 0.33000  0.48830  0.09870  Biso   1.000  H
  H253     1.0000 0.17000  0.51170  0.59870  Biso   1.000  H
  H254     1.0000 0.76170  0.08000  0.84870  Biso   1.000  H
  H255     1.0000 0.67000  0.01170  0.09870  Biso   1.000  H
  H256     1.0000 0.26170  0.58000  0.34870  Biso   1.000  H
  C289     1.0000 0.26250  0.15380  0.63110  Biso   1.000  C
  C290     1.0000 0.59620  0.51250  0.88110  Biso   1.000  C
  C291     1.0000 0.76250  0.65380  0.13110  Biso   1.000  C
  C292     1.0000 0.09620  0.01250  0.38110  Biso   1.000  C
  C293     1.0000 0.40380  0.98750  0.88110  Biso   1.000  C
  C294     1.0000 0.23750  0.84620  0.13110  Biso   1.000  C
  C295     1.0000 0.90380  0.48750  0.38110  Biso   1.000  C
  C296     1.0000 0.73750  0.34620  0.63110  Biso   1.000  C
  C297     1.0000 0.73750  0.84620  0.36890  Biso   1.000  C
  C298     1.0000 0.90380  0.98750  0.61890  Biso   1.000  C
  C299     1.0000 0.23750  0.34620  0.86890  Biso   1.000  C
  C300     1.0000 0.40380  0.48750  0.11890  Biso   1.000  C
  C301     1.0000 0.09620  0.51250  0.61890  Biso   1.000  C
  C302     1.0000 0.76250  0.15380  0.86890  Biso   1.000  C
  C303     1.0000 0.59620  0.01250  0.11890  Biso   1.000  C
  C304     1.0000 0.26250  0.65380  0.36890  Biso   1.000  C
  O49      1.0000 0.26300  0.26890  0.40840  Biso   1.000  O
  O50      1.0000 0.48110  0.51300  0.65840  Biso   1.000  O
  O51      1.0000 0.76300  0.76890  0.90840  Biso   1.000  O
  O52      1.0000 0.98110  0.01300  0.15840  Biso   1.000  O
  O53      1.0000 0.51890  0.98700  0.65840  Biso   1.000  O
  O54      1.0000 0.23700  0.73110  0.90840  Biso   1.000  O
  O55      1.0000 0.01890  0.48700  0.15840  Biso   1.000  O
  O56      1.0000 0.73700  0.23110  0.40840  Biso   1.000  O
  O57      1.0000 0.73700  0.73110  0.59160  Biso   1.000  O
  O58      1.0000 0.01890  0.98700  0.84160  Biso   1.000  O
  O59      1.0000 0.23700  0.23110  0.09160  Biso   1.000  O
  O60      1.0000 0.51890  0.48700  0.34160  Biso   1.000  O
  O61      1.0000 0.98110  0.51300  0.84160  Biso   1.000  O
  O62      1.0000 0.76300  0.26890  0.09160  Biso   1.000  O
  O63      1.0000 0.48110  0.01300  0.34160  Biso   1.000  O
  O64      1.0000 0.26300  0.76890  0.59160  Biso   1.000  O
