data_image0
_cell_length_a       25.369
_cell_length_b       15.975
_cell_length_c       37.872
_cell_angle_alpha    90
_cell_angle_beta     101.898
_cell_angle_gamma    90

_symmetry_space_group_name_H-M    "P 1"
_symmetry_int_tables_number       1

loop_
  _symmetry_equiv_pos_as_xyz
  'x, y, z'

loop_
  _atom_site_label
  _atom_site_occupancy
  _atom_site_fract_x
  _atom_site_fract_y
  _atom_site_fract_z
  _atom_site_thermal_displace_type
  _atom_site_B_iso_or_equiv
  _atom_site_type_symbol
  Cu1      1.0000 0.50000  0.50000  0.50000  Biso   1.000  Cu
  Cu2      1.0000 0.00000  0.00000  0.50000  Biso   1.000  Cu
  Cu3      1.0000 0.50000  0.50000  0.00000  Biso   1.000  Cu
  Cu4      1.0000 0.00000  0.00000  0.00000  Biso   1.000  Cu
  O1       1.0000 0.45910  0.60040  0.48196  Biso   1.000  O
  O2       1.0000 0.95910  0.10040  0.48196  Biso   1.000  O
  O3       1.0000 0.54090  0.60040  0.01804  Biso   1.000  O
  O4       1.0000 0.04090  0.10040  0.01804  Biso   1.000  O
  O5       1.0000 0.54090  0.39960  0.51804  Biso   1.000  O
  O6       1.0000 0.04090  0.89960  0.51804  Biso   1.000  O
  O7       1.0000 0.45910  0.39960  0.98196  Biso   1.000  O
  O8       1.0000 0.95910  0.89960  0.98196  Biso   1.000  O
  C1       1.0000 0.40670  0.69400  0.44230  Biso   1.000  C
  C2       1.0000 0.90670  0.19400  0.44230  Biso   1.000  C
  C3       1.0000 0.59330  0.69400  0.05770  Biso   1.000  C
  C4       1.0000 0.09330  0.19400  0.05770  Biso   1.000  C
  C5       1.0000 0.59330  0.30600  0.55770  Biso   1.000  C
  C6       1.0000 0.09330  0.80600  0.55770  Biso   1.000  C
  C7       1.0000 0.40670  0.30600  0.94230  Biso   1.000  C
  C8       1.0000 0.90670  0.80600  0.94230  Biso   1.000  C
  F1       1.0000 0.43260  0.75720  0.45910  Biso   1.000  F
  F2       1.0000 0.93260  0.25720  0.45910  Biso   1.000  F
  F3       1.0000 0.56740  0.75720  0.04090  Biso   1.000  F
  F4       1.0000 0.06740  0.25720  0.04090  Biso   1.000  F
  F5       1.0000 0.56740  0.24280  0.54090  Biso   1.000  F
  F6       1.0000 0.06740  0.74280  0.54090  Biso   1.000  F
  F7       1.0000 0.43260  0.24280  0.95910  Biso   1.000  F
  F8       1.0000 0.93260  0.74280  0.95910  Biso   1.000  F
  F9       1.0000 0.36740  0.68820  0.45990  Biso   1.000  F
  F10      1.0000 0.86740  0.18820  0.45990  Biso   1.000  F
  F11      1.0000 0.63260  0.68820  0.04010  Biso   1.000  F
  F12      1.0000 0.13260  0.18820  0.04010  Biso   1.000  F
  F13      1.0000 0.63260  0.31180  0.54010  Biso   1.000  F
  F14      1.0000 0.13260  0.81180  0.54010  Biso   1.000  F
  F15      1.0000 0.36740  0.31180  0.95990  Biso   1.000  F
  F16      1.0000 0.86740  0.81180  0.95990  Biso   1.000  F
  F17      1.0000 0.38770  0.71040  0.41200  Biso   1.000  F
  F18      1.0000 0.88770  0.21040  0.41200  Biso   1.000  F
  F19      1.0000 0.61230  0.71040  0.08800  Biso   1.000  F
  F20      1.0000 0.11230  0.21040  0.08800  Biso   1.000  F
  F21      1.0000 0.61230  0.28960  0.58800  Biso   1.000  F
  F22      1.0000 0.11230  0.78960  0.58800  Biso   1.000  F
  F23      1.0000 0.38770  0.28960  0.91200  Biso   1.000  F
  F24      1.0000 0.88770  0.78960  0.91200  Biso   1.000  F
  C9       1.0000 0.44120  0.61520  0.44960  Biso   1.000  C
  C10      1.0000 0.94120  0.11520  0.44960  Biso   1.000  C
  C11      1.0000 0.55880  0.61520  0.05040  Biso   1.000  C
  C12      1.0000 0.05880  0.11520  0.05040  Biso   1.000  C
  C13      1.0000 0.55880  0.38480  0.55040  Biso   1.000  C
  C14      1.0000 0.05880  0.88480  0.55040  Biso   1.000  C
  C15      1.0000 0.44120  0.38480  0.94960  Biso   1.000  C
  C16      1.0000 0.94120  0.88480  0.94960  Biso   1.000  C
  C17      1.0000 0.44920  0.56870  0.42000  Biso   1.000  C
  C18      1.0000 0.94920  0.06870  0.42000  Biso   1.000  C
  C19      1.0000 0.55080  0.56870  0.08000  Biso   1.000  C
  C20      1.0000 0.05080  0.06870  0.08000  Biso   1.000  C
  C21      1.0000 0.55080  0.43130  0.58000  Biso   1.000  C
  C22      1.0000 0.05080  0.93130  0.58000  Biso   1.000  C
  C23      1.0000 0.44920  0.43130  0.92000  Biso   1.000  C
  C24      1.0000 0.94920  0.93130  0.92000  Biso   1.000  C
  H1       1.0000 0.43340  0.58700  0.39700  Biso   1.000  H
  H2       1.0000 0.93340  0.08700  0.39700  Biso   1.000  H
  H3       1.0000 0.56660  0.58700  0.10300  Biso   1.000  H
  H4       1.0000 0.06660  0.08700  0.10300  Biso   1.000  H
  H5       1.0000 0.56660  0.41300  0.60300  Biso   1.000  H
  H6       1.0000 0.06660  0.91300  0.60300  Biso   1.000  H
  H7       1.0000 0.43340  0.41300  0.89700  Biso   1.000  H
  H8       1.0000 0.93340  0.91300  0.89700  Biso   1.000  H
  C25      1.0000 0.47870  0.49910  0.42340  Biso   1.000  C
  C26      1.0000 0.97870  0.99910  0.42340  Biso   1.000  C
  C27      1.0000 0.52130  0.49910  0.07660  Biso   1.000  C
  C28      1.0000 0.02130  0.99910  0.07660  Biso   1.000  C
  C29      1.0000 0.52130  0.50090  0.57660  Biso   1.000  C
  C30      1.0000 0.02130  0.00090  0.57660  Biso   1.000  C
  C31      1.0000 0.47870  0.50090  0.92340  Biso   1.000  C
  C32      1.0000 0.97870  0.00090  0.92340  Biso   1.000  C
  C33      1.0000 0.48200  0.45300  0.38730  Biso   1.000  C
  C34      1.0000 0.98200  0.95300  0.38730  Biso   1.000  C
  C35      1.0000 0.51800  0.45300  0.11270  Biso   1.000  C
  C36      1.0000 0.01800  0.95300  0.11270  Biso   1.000  C
  C37      1.0000 0.51800  0.54700  0.61270  Biso   1.000  C
  C38      1.0000 0.01800  0.04700  0.61270  Biso   1.000  C
  C39      1.0000 0.48200  0.54700  0.88730  Biso   1.000  C
  C40      1.0000 0.98200  0.04700  0.88730  Biso   1.000  C
  F25      1.0000 0.46790  0.37770  0.38810  Biso   1.000  F
  F26      1.0000 0.96790  0.87770  0.38810  Biso   1.000  F
  F27      1.0000 0.53210  0.37770  0.11190  Biso   1.000  F
  F28      1.0000 0.03210  0.87770  0.11190  Biso   1.000  F
  F29      1.0000 0.53210  0.62230  0.61190  Biso   1.000  F
  F30      1.0000 0.03210  0.12230  0.61190  Biso   1.000  F
  F31      1.0000 0.46790  0.62230  0.88810  Biso   1.000  F
  F32      1.0000 0.96790  0.12230  0.88810  Biso   1.000  F
  F33      1.0000 0.53610  0.44180  0.38810  Biso   1.000  F
  F34      1.0000 0.03610  0.94180  0.38810  Biso   1.000  F
  F35      1.0000 0.46390  0.44180  0.11190  Biso   1.000  F
  F36      1.0000 0.96390  0.94180  0.11190  Biso   1.000  F
  F37      1.0000 0.46390  0.55820  0.61190  Biso   1.000  F
  F38      1.0000 0.96390  0.05820  0.61190  Biso   1.000  F
  F39      1.0000 0.53610  0.55820  0.88810  Biso   1.000  F
  F40      1.0000 0.03610  0.05820  0.88810  Biso   1.000  F
  F41      1.0000 0.46500  0.48980  0.35990  Biso   1.000  F
  F42      1.0000 0.96500  0.98980  0.35990  Biso   1.000  F
  F43      1.0000 0.53500  0.48980  0.14010  Biso   1.000  F
  F44      1.0000 0.03500  0.98980  0.14010  Biso   1.000  F
  F45      1.0000 0.53500  0.51020  0.64010  Biso   1.000  F
  F46      1.0000 0.03500  0.01020  0.64010  Biso   1.000  F
  F47      1.0000 0.46500  0.51020  0.85990  Biso   1.000  F
  F48      1.0000 0.96500  0.01020  0.85990  Biso   1.000  F
  O9       1.0000 0.50530  0.46520  0.45167  Biso   1.000  O
  O10      1.0000 0.00530  0.96520  0.45167  Biso   1.000  O
  O11      1.0000 0.49470  0.46520  0.04833  Biso   1.000  O
  O12      1.0000 0.99470  0.96520  0.04833  Biso   1.000  O
  O13      1.0000 0.49470  0.53480  0.54833  Biso   1.000  O
  O14      1.0000 0.99470  0.03480  0.54833  Biso   1.000  O
  O15      1.0000 0.50530  0.53480  0.95167  Biso   1.000  O
  O16      1.0000 0.00530  0.03480  0.95167  Biso   1.000  O
  Cu5      1.0000 0.50000  0.00000  0.50000  Biso   1.000  Cu
  Cu6      1.0000 0.00000  0.50000  0.50000  Biso   1.000  Cu
  Cu7      1.0000 0.50000  0.00000  0.00000  Biso   1.000  Cu
  Cu8      1.0000 0.00000  0.50000  0.00000  Biso   1.000  Cu
  O17      1.0000 0.42460  0.96630  0.49932  Biso   1.000  O
  O18      1.0000 0.92460  0.46630  0.49932  Biso   1.000  O
  O19      1.0000 0.57540  0.96630  0.00068  Biso   1.000  O
  O20      1.0000 0.07540  0.46630  0.00068  Biso   1.000  O
  O21      1.0000 0.57540  0.03370  0.50068  Biso   1.000  O
  O22      1.0000 0.07540  0.53370  0.50068  Biso   1.000  O
  O23      1.0000 0.42460  0.03370  0.99932  Biso   1.000  O
  O24      1.0000 0.92460  0.53370  0.99932  Biso   1.000  O
  C41      1.0000 0.33430  0.94020  0.47920  Biso   1.000  C
  C42      1.0000 0.83430  0.44020  0.47920  Biso   1.000  C
  C43      1.0000 0.66570  0.94020  0.02080  Biso   1.000  C
  C44      1.0000 0.16570  0.44020  0.02080  Biso   1.000  C
  C45      1.0000 0.66570  0.05980  0.52080  Biso   1.000  C
  C46      1.0000 0.16570  0.55980  0.52080  Biso   1.000  C
  C47      1.0000 0.33430  0.05980  0.97920  Biso   1.000  C
  C48      1.0000 0.83430  0.55980  0.97920  Biso   1.000  C
  F49      1.0000 0.32390  0.86480  0.48290  Biso   1.000  F
  F50      1.0000 0.82390  0.36480  0.48290  Biso   1.000  F
  F51      1.0000 0.67610  0.86480  0.01710  Biso   1.000  F
  F52      1.0000 0.17610  0.36480  0.01710  Biso   1.000  F
  F53      1.0000 0.67610  0.13520  0.51710  Biso   1.000  F
  F54      1.0000 0.17610  0.63520  0.51710  Biso   1.000  F
  F55      1.0000 0.32390  0.13520  0.98290  Biso   1.000  F
  F56      1.0000 0.82390  0.63520  0.98290  Biso   1.000  F
  F57      1.0000 0.29460  0.96300  0.45310  Biso   1.000  F
  F58      1.0000 0.79460  0.46300  0.45310  Biso   1.000  F
  F59      1.0000 0.70540  0.96300  0.04690  Biso   1.000  F
  F60      1.0000 0.20540  0.46300  0.04690  Biso   1.000  F
  F61      1.0000 0.70540  0.03700  0.54690  Biso   1.000  F
  F62      1.0000 0.20540  0.53700  0.54690  Biso   1.000  F
  F63      1.0000 0.29460  0.03700  0.95310  Biso   1.000  F
  F64      1.0000 0.79460  0.53700  0.95310  Biso   1.000  F
  F65      1.0000 0.32490  0.98340  0.50470  Biso   1.000  F
  F66      1.0000 0.82490  0.48340  0.50470  Biso   1.000  F
  F67      1.0000 0.67510  0.98340  0.99530  Biso   1.000  F
  F68      1.0000 0.17510  0.48340  0.99530  Biso   1.000  F
  F69      1.0000 0.67510  0.01660  0.49530  Biso   1.000  F
  F70      1.0000 0.17510  0.51660  0.49530  Biso   1.000  F
  F71      1.0000 0.32490  0.01660  0.00470  Biso   1.000  F
  F72      1.0000 0.82490  0.51660  0.00470  Biso   1.000  F
  C49      1.0000 0.39000  0.95470  0.47160  Biso   1.000  C
  C50      1.0000 0.89000  0.45470  0.47160  Biso   1.000  C
  C51      1.0000 0.61000  0.95470  0.02840  Biso   1.000  C
  C52      1.0000 0.11000  0.45470  0.02840  Biso   1.000  C
  C53      1.0000 0.61000  0.04530  0.52840  Biso   1.000  C
  C54      1.0000 0.11000  0.54530  0.52840  Biso   1.000  C
  C55      1.0000 0.39000  0.04530  0.97160  Biso   1.000  C
  C56      1.0000 0.89000  0.54530  0.97160  Biso   1.000  C
  C57      1.0000 0.39770  0.95030  0.43700  Biso   1.000  C
  C58      1.0000 0.89770  0.45030  0.43700  Biso   1.000  C
  C59      1.0000 0.60230  0.95030  0.06300  Biso   1.000  C
  C60      1.0000 0.10230  0.45030  0.06300  Biso   1.000  C
  C61      1.0000 0.60230  0.04970  0.56300  Biso   1.000  C
  C62      1.0000 0.10230  0.54970  0.56300  Biso   1.000  C
  C63      1.0000 0.39770  0.04970  0.93700  Biso   1.000  C
  C64      1.0000 0.89770  0.54970  0.93700  Biso   1.000  C
  H9       1.0000 0.36780  0.94020  0.41870  Biso   1.000  H
  H10      1.0000 0.86780  0.44020  0.41870  Biso   1.000  H
  H11      1.0000 0.63220  0.94020  0.08130  Biso   1.000  H
  H12      1.0000 0.13220  0.44020  0.08130  Biso   1.000  H
  H13      1.0000 0.63220  0.05980  0.58130  Biso   1.000  H
  H14      1.0000 0.13220  0.55980  0.58130  Biso   1.000  H
  H15      1.0000 0.36780  0.05980  0.91870  Biso   1.000  H
  H16      1.0000 0.86780  0.55980  0.91870  Biso   1.000  H
  C65      1.0000 0.44630  0.95980  0.42760  Biso   1.000  C
  C66      1.0000 0.94630  0.45980  0.42760  Biso   1.000  C
  C67      1.0000 0.55370  0.95980  0.07240  Biso   1.000  C
  C68      1.0000 0.05370  0.45980  0.07240  Biso   1.000  C
  C69      1.0000 0.55370  0.04020  0.57240  Biso   1.000  C
  C70      1.0000 0.05370  0.54020  0.57240  Biso   1.000  C
  C71      1.0000 0.44630  0.04020  0.92760  Biso   1.000  C
  C72      1.0000 0.94630  0.54020  0.92760  Biso   1.000  C
  C73      1.0000 0.44940  0.94960  0.38790  Biso   1.000  C
  C74      1.0000 0.94940  0.44960  0.38790  Biso   1.000  C
  C75      1.0000 0.55060  0.94960  0.11210  Biso   1.000  C
  C76      1.0000 0.05060  0.44960  0.11210  Biso   1.000  C
  C77      1.0000 0.55060  0.05040  0.61210  Biso   1.000  C
  C78      1.0000 0.05060  0.55040  0.61210  Biso   1.000  C
  C79      1.0000 0.44940  0.05040  0.88790  Biso   1.000  C
  C80      1.0000 0.94940  0.55040  0.88790  Biso   1.000  C
  F73      1.0000 0.40370  0.93890  0.36580  Biso   1.000  F
  F74      1.0000 0.90370  0.43890  0.36580  Biso   1.000  F
  F75      1.0000 0.59630  0.93890  0.13420  Biso   1.000  F
  F76      1.0000 0.09630  0.43890  0.13420  Biso   1.000  F
  F77      1.0000 0.59630  0.06110  0.63420  Biso   1.000  F
  F78      1.0000 0.09630  0.56110  0.63420  Biso   1.000  F
  F79      1.0000 0.40370  0.06110  0.86580  Biso   1.000  F
  F80      1.0000 0.90370  0.56110  0.86580  Biso   1.000  F
  F81      1.0000 0.47100  0.01260  0.37587  Biso   1.000  F
  F82      1.0000 0.97100  0.51260  0.37587  Biso   1.000  F
  F83      1.0000 0.52900  0.01260  0.12413  Biso   1.000  F
  F84      1.0000 0.02900  0.51260  0.12413  Biso   1.000  F
  F85      1.0000 0.52900  0.98740  0.62413  Biso   1.000  F
  F86      1.0000 0.02900  0.48740  0.62413  Biso   1.000  F
  F87      1.0000 0.47100  0.98740  0.87587  Biso   1.000  F
  F88      1.0000 0.97100  0.48740  0.87587  Biso   1.000  F
  F89      1.0000 0.48010  0.88650  0.38340  Biso   1.000  F
  F90      1.0000 0.98010  0.38650  0.38340  Biso   1.000  F
  F91      1.0000 0.51990  0.88650  0.11660  Biso   1.000  F
  F92      1.0000 0.01990  0.38650  0.11660  Biso   1.000  F
  F93      1.0000 0.51990  0.11350  0.61660  Biso   1.000  F
  F94      1.0000 0.01990  0.61350  0.61660  Biso   1.000  F
  F95      1.0000 0.48010  0.11350  0.88340  Biso   1.000  F
  F96      1.0000 0.98010  0.61350  0.88340  Biso   1.000  F
  O25      1.0000 0.49070  0.97450  0.44667  Biso   1.000  O
  O26      1.0000 0.99070  0.47450  0.44667  Biso   1.000  O
  O27      1.0000 0.50930  0.97450  0.05333  Biso   1.000  O
  O28      1.0000 0.00930  0.47450  0.05333  Biso   1.000  O
  O29      1.0000 0.50930  0.02550  0.55333  Biso   1.000  O
  O30      1.0000 0.00930  0.52550  0.55333  Biso   1.000  O
  O31      1.0000 0.49070  0.02550  0.94667  Biso   1.000  O
  O32      1.0000 0.99070  0.52550  0.94667  Biso   1.000  O
  Cu9      1.0000 0.77292  0.20370  0.21538  Biso   1.000  Cu
  Cu10     1.0000 0.27292  0.70370  0.21538  Biso   1.000  Cu
  Cu11     1.0000 0.22708  0.20370  0.28462  Biso   1.000  Cu
  Cu12     1.0000 0.72708  0.70370  0.28462  Biso   1.000  Cu
  Cu13     1.0000 0.22708  0.79630  0.78462  Biso   1.000  Cu
  Cu14     1.0000 0.72708  0.29630  0.78462  Biso   1.000  Cu
  Cu15     1.0000 0.77292  0.79630  0.71538  Biso   1.000  Cu
  Cu16     1.0000 0.27292  0.29630  0.71538  Biso   1.000  Cu
  O33      1.0000 0.73060  0.19190  0.16642  Biso   1.000  O
  O34      1.0000 0.23060  0.69190  0.16642  Biso   1.000  O
  O35      1.0000 0.26940  0.19190  0.33358  Biso   1.000  O
  O36      1.0000 0.76940  0.69190  0.33358  Biso   1.000  O
  O37      1.0000 0.26940  0.80810  0.83358  Biso   1.000  O
  O38      1.0000 0.76940  0.30810  0.83358  Biso   1.000  O
  O39      1.0000 0.73060  0.80810  0.66642  Biso   1.000  O
  O40      1.0000 0.23060  0.30810  0.66642  Biso   1.000  O
  C81      1.0000 0.66300  0.19620  0.11620  Biso   1.000  C
  C82      1.0000 0.16300  0.69620  0.11620  Biso   1.000  C
  C83      1.0000 0.33700  0.19620  0.38380  Biso   1.000  C
  C84      1.0000 0.83700  0.69620  0.38380  Biso   1.000  C
  C85      1.0000 0.33700  0.80380  0.88380  Biso   1.000  C
  C86      1.0000 0.83700  0.30380  0.88380  Biso   1.000  C
  C87      1.0000 0.66300  0.80380  0.61620  Biso   1.000  C
  C88      1.0000 0.16300  0.30380  0.61620  Biso   1.000  C
  F97      1.0000 0.67780  0.12770  0.10680  Biso   1.000  F
  F98      1.0000 0.17780  0.62770  0.10680  Biso   1.000  F
  F99      1.0000 0.32220  0.12770  0.39320  Biso   1.000  F
  F100     1.0000 0.82220  0.62770  0.39320  Biso   1.000  F
  F101     1.0000 0.32220  0.87230  0.89320  Biso   1.000  F
  F102     1.0000 0.82220  0.37230  0.89320  Biso   1.000  F
  F103     1.0000 0.67780  0.87230  0.60680  Biso   1.000  F
  F104     1.0000 0.17780  0.37230  0.60680  Biso   1.000  F
  F105     1.0000 0.67210  0.24780  0.09450  Biso   1.000  F
  F106     1.0000 0.17210  0.74780  0.09450  Biso   1.000  F
  F107     1.0000 0.32790  0.24780  0.40550  Biso   1.000  F
  F108     1.0000 0.82790  0.74780  0.40550  Biso   1.000  F
  F109     1.0000 0.32790  0.75220  0.90550  Biso   1.000  F
  F110     1.0000 0.82790  0.25220  0.90550  Biso   1.000  F
  F111     1.0000 0.67210  0.75220  0.59450  Biso   1.000  F
  F112     1.0000 0.17210  0.25220  0.59450  Biso   1.000  F
  F113     1.0000 0.61160  0.18930  0.10980  Biso   1.000  F
  F114     1.0000 0.11160  0.68930  0.10980  Biso   1.000  F
  F115     1.0000 0.38840  0.18930  0.39020  Biso   1.000  F
  F116     1.0000 0.88840  0.68930  0.39020  Biso   1.000  F
  F117     1.0000 0.38840  0.81070  0.89020  Biso   1.000  F
  F118     1.0000 0.88840  0.31070  0.89020  Biso   1.000  F
  F119     1.0000 0.61160  0.81070  0.60980  Biso   1.000  F
  F120     1.0000 0.11160  0.31070  0.60980  Biso   1.000  F
  C89      1.0000 0.68450  0.21970  0.15600  Biso   1.000  C
  C90      1.0000 0.18450  0.71970  0.15600  Biso   1.000  C
  C91      1.0000 0.31550  0.21970  0.34400  Biso   1.000  C
  C92      1.0000 0.81550  0.71970  0.34400  Biso   1.000  C
  C93      1.0000 0.31550  0.78030  0.84400  Biso   1.000  C
  C94      1.0000 0.81550  0.28030  0.84400  Biso   1.000  C
  C95      1.0000 0.68450  0.78030  0.65600  Biso   1.000  C
  C96      1.0000 0.18450  0.28030  0.65600  Biso   1.000  C
  C97      1.0000 0.65510  0.26800  0.17440  Biso   1.000  C
  C98      1.0000 0.15510  0.76800  0.17440  Biso   1.000  C
  C99      1.0000 0.34490  0.26800  0.32560  Biso   1.000  C
  C100     1.0000 0.84490  0.76800  0.32560  Biso   1.000  C
  C101     1.0000 0.34490  0.73200  0.82560  Biso   1.000  C
  C102     1.0000 0.84490  0.23200  0.82560  Biso   1.000  C
  C103     1.0000 0.65510  0.73200  0.67440  Biso   1.000  C
  C104     1.0000 0.15510  0.23200  0.67440  Biso   1.000  C
  H17      1.0000 0.62100  0.28520  0.16260  Biso   1.000  H
  H18      1.0000 0.12100  0.78520  0.16260  Biso   1.000  H
  H19      1.0000 0.37900  0.28520  0.33740  Biso   1.000  H
  H20      1.0000 0.87900  0.78520  0.33740  Biso   1.000  H
  H21      1.0000 0.37900  0.71480  0.83740  Biso   1.000  H
  H22      1.0000 0.87900  0.21480  0.83740  Biso   1.000  H
  H23      1.0000 0.62100  0.71480  0.66260  Biso   1.000  H
  H24      1.0000 0.12100  0.21480  0.66260  Biso   1.000  H
  C105     1.0000 0.67360  0.29240  0.20940  Biso   1.000  C
  C106     1.0000 0.17360  0.79240  0.20940  Biso   1.000  C
  C107     1.0000 0.32640  0.29240  0.29060  Biso   1.000  C
  C108     1.0000 0.82640  0.79240  0.29060  Biso   1.000  C
  C109     1.0000 0.32640  0.70760  0.79060  Biso   1.000  C
  C110     1.0000 0.82640  0.20760  0.79060  Biso   1.000  C
  C111     1.0000 0.67360  0.70760  0.70940  Biso   1.000  C
  C112     1.0000 0.17360  0.20760  0.70940  Biso   1.000  C
  C113     1.0000 0.63800  0.35400  0.22540  Biso   1.000  C
  C114     1.0000 0.13800  0.85400  0.22540  Biso   1.000  C
  C115     1.0000 0.36200  0.35400  0.27460  Biso   1.000  C
  C116     1.0000 0.86200  0.85400  0.27460  Biso   1.000  C
  C117     1.0000 0.36200  0.64600  0.77460  Biso   1.000  C
  C118     1.0000 0.86200  0.14600  0.77460  Biso   1.000  C
  C119     1.0000 0.63800  0.64600  0.72540  Biso   1.000  C
  C120     1.0000 0.13800  0.14600  0.72540  Biso   1.000  C
  F121     1.0000 0.59100  0.35760  0.21110  Biso   1.000  F
  F122     1.0000 0.09100  0.85760  0.21110  Biso   1.000  F
  F123     1.0000 0.40900  0.35760  0.28890  Biso   1.000  F
  F124     1.0000 0.90900  0.85760  0.28890  Biso   1.000  F
  F125     1.0000 0.40900  0.64240  0.78890  Biso   1.000  F
  F126     1.0000 0.90900  0.14240  0.78890  Biso   1.000  F
  F127     1.0000 0.59100  0.64240  0.71110  Biso   1.000  F
  F128     1.0000 0.09100  0.14240  0.71110  Biso   1.000  F
  F129     1.0000 0.65880  0.42480  0.23130  Biso   1.000  F
  F130     1.0000 0.15880  0.92480  0.23130  Biso   1.000  F
  F131     1.0000 0.34120  0.42480  0.26870  Biso   1.000  F
  F132     1.0000 0.84120  0.92480  0.26870  Biso   1.000  F
  F133     1.0000 0.34120  0.57520  0.76870  Biso   1.000  F
  F134     1.0000 0.84120  0.07520  0.76870  Biso   1.000  F
  F135     1.0000 0.65880  0.57520  0.73130  Biso   1.000  F
  F136     1.0000 0.15880  0.07520  0.73130  Biso   1.000  F
  F137     1.0000 0.63880  0.32910  0.25800  Biso   1.000  F
  F138     1.0000 0.13880  0.82910  0.25800  Biso   1.000  F
  F139     1.0000 0.36120  0.32910  0.24200  Biso   1.000  F
  F140     1.0000 0.86120  0.82910  0.24200  Biso   1.000  F
  F141     1.0000 0.36120  0.67090  0.74200  Biso   1.000  F
  F142     1.0000 0.86120  0.17090  0.74200  Biso   1.000  F
  F143     1.0000 0.63880  0.67090  0.75800  Biso   1.000  F
  F144     1.0000 0.13880  0.17090  0.75800  Biso   1.000  F
  O41      1.0000 0.71820  0.27480  0.22924  Biso   1.000  O
  O42      1.0000 0.21820  0.77480  0.22924  Biso   1.000  O
  O43      1.0000 0.28180  0.27480  0.27076  Biso   1.000  O
  O44      1.0000 0.78180  0.77480  0.27076  Biso   1.000  O
  O45      1.0000 0.28180  0.72520  0.77076  Biso   1.000  O
  O46      1.0000 0.78180  0.22520  0.77076  Biso   1.000  O
  O47      1.0000 0.71820  0.72520  0.72924  Biso   1.000  O
  O48      1.0000 0.21820  0.22520  0.72924  Biso   1.000  O
  O49      1.0000 0.81580  0.21900  0.26349  Biso   1.000  O
  O50      1.0000 0.31580  0.71900  0.26349  Biso   1.000  O
  O51      1.0000 0.18420  0.21900  0.23651  Biso   1.000  O
  O52      1.0000 0.68420  0.71900  0.23651  Biso   1.000  O
  O53      1.0000 0.18420  0.78100  0.73651  Biso   1.000  O
  O54      1.0000 0.68420  0.28100  0.73651  Biso   1.000  O
  O55      1.0000 0.81580  0.78100  0.76349  Biso   1.000  O
  O56      1.0000 0.31580  0.28100  0.76349  Biso   1.000  O
  C121     1.0000 0.89380  0.21600  0.31220  Biso   1.000  C
  C122     1.0000 0.39380  0.71600  0.31220  Biso   1.000  C
  C123     1.0000 0.10620  0.21600  0.18780  Biso   1.000  C
  C124     1.0000 0.60620  0.71600  0.18780  Biso   1.000  C
  C125     1.0000 0.10620  0.78400  0.68780  Biso   1.000  C
  C126     1.0000 0.60620  0.28400  0.68780  Biso   1.000  C
  C127     1.0000 0.89380  0.78400  0.81220  Biso   1.000  C
  C128     1.0000 0.39380  0.28400  0.81220  Biso   1.000  C
  F145     1.0000 0.85870  0.17240  0.33150  Biso   1.000  F
  F146     1.0000 0.35870  0.67240  0.33150  Biso   1.000  F
  F147     1.0000 0.14130  0.17240  0.16850  Biso   1.000  F
  F148     1.0000 0.64130  0.67240  0.16850  Biso   1.000  F
  F149     1.0000 0.14130  0.82760  0.66850  Biso   1.000  F
  F150     1.0000 0.64130  0.32760  0.66850  Biso   1.000  F
  F151     1.0000 0.85870  0.82760  0.83150  Biso   1.000  F
  F152     1.0000 0.35870  0.32760  0.83150  Biso   1.000  F
  F153     1.0000 0.88020  0.27300  0.32370  Biso   1.000  F
  F154     1.0000 0.38020  0.77300  0.32370  Biso   1.000  F
  F155     1.0000 0.11980  0.27300  0.17630  Biso   1.000  F
  F156     1.0000 0.61980  0.77300  0.17630  Biso   1.000  F
  F157     1.0000 0.11980  0.72700  0.67630  Biso   1.000  F
  F158     1.0000 0.61980  0.22700  0.67630  Biso   1.000  F
  F159     1.0000 0.88020  0.72700  0.82370  Biso   1.000  F
  F160     1.0000 0.38020  0.22700  0.82370  Biso   1.000  F
  F161     1.0000 0.93210  0.17670  0.32590  Biso   1.000  F
  F162     1.0000 0.43210  0.67670  0.32590  Biso   1.000  F
  F163     1.0000 0.06790  0.17670  0.17410  Biso   1.000  F
  F164     1.0000 0.56790  0.67670  0.17410  Biso   1.000  F
  F165     1.0000 0.06790  0.82330  0.67410  Biso   1.000  F
  F166     1.0000 0.56790  0.32330  0.67410  Biso   1.000  F
  F167     1.0000 0.93210  0.82330  0.82590  Biso   1.000  F
  F168     1.0000 0.43210  0.32330  0.82590  Biso   1.000  F
  C129     1.0000 0.86140  0.18740  0.27390  Biso   1.000  C
  C130     1.0000 0.36140  0.68740  0.27390  Biso   1.000  C
  C131     1.0000 0.13860  0.18740  0.22610  Biso   1.000  C
  C132     1.0000 0.63860  0.68740  0.22610  Biso   1.000  C
  C133     1.0000 0.13860  0.81260  0.72610  Biso   1.000  C
  C134     1.0000 0.63860  0.31260  0.72610  Biso   1.000  C
  C135     1.0000 0.86140  0.81260  0.77390  Biso   1.000  C
  C136     1.0000 0.36140  0.31260  0.77390  Biso   1.000  C
  C137     1.0000 0.89200  0.14220  0.25450  Biso   1.000  C
  C138     1.0000 0.39200  0.64220  0.25450  Biso   1.000  C
  C139     1.0000 0.10800  0.14220  0.24550  Biso   1.000  C
  C140     1.0000 0.60800  0.64220  0.24550  Biso   1.000  C
  C141     1.0000 0.10800  0.85780  0.74550  Biso   1.000  C
  C142     1.0000 0.60800  0.35780  0.74550  Biso   1.000  C
  C143     1.0000 0.89200  0.85780  0.75450  Biso   1.000  C
  C144     1.0000 0.39200  0.35780  0.75450  Biso   1.000  C
  H25      1.0000 0.92600  0.12380  0.26600  Biso   1.000  H
  H26      1.0000 0.42600  0.62380  0.26600  Biso   1.000  H
  H27      1.0000 0.07400  0.12380  0.23400  Biso   1.000  H
  H28      1.0000 0.57400  0.62380  0.23400  Biso   1.000  H
  H29      1.0000 0.07400  0.87620  0.73400  Biso   1.000  H
  H30      1.0000 0.57400  0.37620  0.73400  Biso   1.000  H
  H31      1.0000 0.92600  0.87620  0.76600  Biso   1.000  H
  H32      1.0000 0.42600  0.37620  0.76600  Biso   1.000  H
  C145     1.0000 0.87310  0.12320  0.21780  Biso   1.000  C
  C146     1.0000 0.37310  0.62320  0.21780  Biso   1.000  C
  C147     1.0000 0.12690  0.12320  0.28220  Biso   1.000  C
  C148     1.0000 0.62690  0.62320  0.28220  Biso   1.000  C
  C149     1.0000 0.12690  0.87680  0.78220  Biso   1.000  C
  C150     1.0000 0.62690  0.37680  0.78220  Biso   1.000  C
  C151     1.0000 0.87310  0.87680  0.71780  Biso   1.000  C
  C152     1.0000 0.37310  0.37680  0.71780  Biso   1.000  C
  C153     1.0000 0.90980  0.06230  0.20260  Biso   1.000  C
  C154     1.0000 0.40980  0.56230  0.20260  Biso   1.000  C
  C155     1.0000 0.09020  0.06230  0.29740  Biso   1.000  C
  C156     1.0000 0.59020  0.56230  0.29740  Biso   1.000  C
  C157     1.0000 0.09020  0.93770  0.79740  Biso   1.000  C
  C158     1.0000 0.59020  0.43770  0.79740  Biso   1.000  C
  C159     1.0000 0.90980  0.93770  0.70260  Biso   1.000  C
  C160     1.0000 0.40980  0.43770  0.70260  Biso   1.000  C
  F169     1.0000 0.88840  0.02630  0.17720  Biso   1.000  F
  F170     1.0000 0.38840  0.52630  0.17720  Biso   1.000  F
  F171     1.0000 0.11160  0.02630  0.32280  Biso   1.000  F
  F172     1.0000 0.61160  0.52630  0.32280  Biso   1.000  F
  F173     1.0000 0.11160  0.97370  0.82280  Biso   1.000  F
  F174     1.0000 0.61160  0.47370  0.82280  Biso   1.000  F
  F175     1.0000 0.88840  0.97370  0.67720  Biso   1.000  F
  F176     1.0000 0.38840  0.47370  0.67720  Biso   1.000  F
  F177     1.0000 0.95270  0.04610  0.21840  Biso   1.000  F
  F178     1.0000 0.45270  0.54610  0.21840  Biso   1.000  F
  F179     1.0000 0.04730  0.04610  0.28160  Biso   1.000  F
  F180     1.0000 0.54730  0.54610  0.28160  Biso   1.000  F
  F181     1.0000 0.04730  0.95390  0.78160  Biso   1.000  F
  F182     1.0000 0.54730  0.45390  0.78160  Biso   1.000  F
  F183     1.0000 0.95270  0.95390  0.71840  Biso   1.000  F
  F184     1.0000 0.45270  0.45390  0.71840  Biso   1.000  F
  F185     1.0000 0.92970  0.11960  0.18030  Biso   1.000  F
  F186     1.0000 0.42970  0.61960  0.18030  Biso   1.000  F
  F187     1.0000 0.07030  0.11960  0.31970  Biso   1.000  F
  F188     1.0000 0.57030  0.61960  0.31970  Biso   1.000  F
  F189     1.0000 0.07030  0.88040  0.81970  Biso   1.000  F
  F190     1.0000 0.57030  0.38040  0.81970  Biso   1.000  F
  F191     1.0000 0.92970  0.88040  0.68030  Biso   1.000  F
  F192     1.0000 0.42970  0.38040  0.68030  Biso   1.000  F
  O57      1.0000 0.82950  0.14290  0.19881  Biso   1.000  O
  O58      1.0000 0.32950  0.64290  0.19881  Biso   1.000  O
  O59      1.0000 0.17050  0.14290  0.30119  Biso   1.000  O
  O60      1.0000 0.67050  0.64290  0.30119  Biso   1.000  O
  O61      1.0000 0.17050  0.85710  0.80119  Biso   1.000  O
  O62      1.0000 0.67050  0.35710  0.80119  Biso   1.000  O
  O63      1.0000 0.82950  0.85710  0.69881  Biso   1.000  O
  O64      1.0000 0.32950  0.35710  0.69881  Biso   1.000  O
  O65      1.0000 0.82530  0.33250  0.20581  Biso   1.000  O
  O66      1.0000 0.32530  0.83250  0.20581  Biso   1.000  O
  O67      1.0000 0.17470  0.33250  0.29419  Biso   1.000  O
  O68      1.0000 0.67470  0.83250  0.29419  Biso   1.000  O
  O69      1.0000 0.17470  0.66750  0.79419  Biso   1.000  O
  O70      1.0000 0.67470  0.16750  0.79419  Biso   1.000  O
  O71      1.0000 0.82530  0.66750  0.70581  Biso   1.000  O
  O72      1.0000 0.32530  0.16750  0.70581  Biso   1.000  O
  N1       1.0000 0.82480  0.39500  0.18450  Biso   1.000  N
  N2       1.0000 0.32480  0.89500  0.18450  Biso   1.000  N
  N3       1.0000 0.17520  0.39500  0.31550  Biso   1.000  N
  N4       1.0000 0.67520  0.89500  0.31550  Biso   1.000  N
  N5       1.0000 0.17520  0.60500  0.81550  Biso   1.000  N
  N6       1.0000 0.67520  0.10500  0.81550  Biso   1.000  N
  N7       1.0000 0.82480  0.60500  0.68450  Biso   1.000  N
  N8       1.0000 0.32480  0.10500  0.68450  Biso   1.000  N
  C161     1.0000 0.84030  0.38750  0.14880  Biso   1.000  C
  C162     1.0000 0.34030  0.88750  0.14880  Biso   1.000  C
  C163     1.0000 0.15970  0.38750  0.35120  Biso   1.000  C
  C164     1.0000 0.65970  0.88750  0.35120  Biso   1.000  C
  C165     1.0000 0.15970  0.61250  0.85120  Biso   1.000  C
  C166     1.0000 0.65970  0.11250  0.85120  Biso   1.000  C
  C167     1.0000 0.84030  0.61250  0.64880  Biso   1.000  C
  C168     1.0000 0.34030  0.11250  0.64880  Biso   1.000  C
  C169     1.0000 0.89320  0.34190  0.15670  Biso   1.000  C
  C170     1.0000 0.39320  0.84190  0.15670  Biso   1.000  C
  C171     1.0000 0.10680  0.34190  0.34330  Biso   1.000  C
  C172     1.0000 0.60680  0.84190  0.34330  Biso   1.000  C
  C173     1.0000 0.10680  0.65810  0.84330  Biso   1.000  C
  C174     1.0000 0.60680  0.15810  0.84330  Biso   1.000  C
  C175     1.0000 0.89320  0.65810  0.65670  Biso   1.000  C
  C176     1.0000 0.39320  0.15810  0.65670  Biso   1.000  C
  H33      1.0000 0.91990  0.37610  0.17170  Biso   1.000  H
  H34      1.0000 0.41990  0.87610  0.17170  Biso   1.000  H
  H35      1.0000 0.08010  0.37610  0.32830  Biso   1.000  H
  H36      1.0000 0.58010  0.87610  0.32830  Biso   1.000  H
  H37      1.0000 0.08010  0.62390  0.82830  Biso   1.000  H
  H38      1.0000 0.58010  0.12390  0.82830  Biso   1.000  H
  H39      1.0000 0.91990  0.62390  0.67170  Biso   1.000  H
  H40      1.0000 0.41990  0.12390  0.67170  Biso   1.000  H
  H41      1.0000 0.90440  0.32990  0.13450  Biso   1.000  H
  H42      1.0000 0.40440  0.82990  0.13450  Biso   1.000  H
  H43      1.0000 0.09560  0.32990  0.36550  Biso   1.000  H
  H44      1.0000 0.59560  0.82990  0.36550  Biso   1.000  H
  H45      1.0000 0.09560  0.67010  0.86550  Biso   1.000  H
  H46      1.0000 0.59560  0.17010  0.86550  Biso   1.000  H
  H47      1.0000 0.90440  0.67010  0.63450  Biso   1.000  H
  H48      1.0000 0.40440  0.17010  0.63450  Biso   1.000  H
  H49      1.0000 0.88920  0.29040  0.16900  Biso   1.000  H
  H50      1.0000 0.38920  0.79040  0.16900  Biso   1.000  H
  H51      1.0000 0.11080  0.29040  0.33100  Biso   1.000  H
  H52      1.0000 0.61080  0.79040  0.33100  Biso   1.000  H
  H53      1.0000 0.11080  0.70960  0.83100  Biso   1.000  H
  H54      1.0000 0.61080  0.20960  0.83100  Biso   1.000  H
  H55      1.0000 0.88920  0.70960  0.66900  Biso   1.000  H
  H56      1.0000 0.38920  0.20960  0.66900  Biso   1.000  H
  C177     1.0000 0.80370  0.32460  0.12680  Biso   1.000  C
  C178     1.0000 0.30370  0.82460  0.12680  Biso   1.000  C
  C179     1.0000 0.19630  0.32460  0.37320  Biso   1.000  C
  C180     1.0000 0.69630  0.82460  0.37320  Biso   1.000  C
  C181     1.0000 0.19630  0.67540  0.87320  Biso   1.000  C
  C182     1.0000 0.69630  0.17540  0.87320  Biso   1.000  C
  C183     1.0000 0.80370  0.67540  0.62680  Biso   1.000  C
  C184     1.0000 0.30370  0.17540  0.62680  Biso   1.000  C
  H57      1.0000 0.76790  0.34700  0.12060  Biso   1.000  H
  H58      1.0000 0.26790  0.84700  0.12060  Biso   1.000  H
  H59      1.0000 0.23210  0.34700  0.37940  Biso   1.000  H
  H60      1.0000 0.73210  0.84700  0.37940  Biso   1.000  H
  H61      1.0000 0.23210  0.65300  0.87940  Biso   1.000  H
  H62      1.0000 0.73210  0.15300  0.87940  Biso   1.000  H
  H63      1.0000 0.76790  0.65300  0.62060  Biso   1.000  H
  H64      1.0000 0.26790  0.15300  0.62060  Biso   1.000  H
  H65      1.0000 0.80350  0.27430  0.14060  Biso   1.000  H
  H66      1.0000 0.30350  0.77430  0.14060  Biso   1.000  H
  H67      1.0000 0.19650  0.27430  0.35940  Biso   1.000  H
  H68      1.0000 0.69650  0.77430  0.35940  Biso   1.000  H
  H69      1.0000 0.19650  0.72570  0.85940  Biso   1.000  H
  H70      1.0000 0.69650  0.22570  0.85940  Biso   1.000  H
  H71      1.0000 0.80350  0.72570  0.64060  Biso   1.000  H
  H72      1.0000 0.30350  0.22570  0.64060  Biso   1.000  H
  H73      1.0000 0.81640  0.31220  0.10520  Biso   1.000  H
  H74      1.0000 0.31640  0.81220  0.10520  Biso   1.000  H
  H75      1.0000 0.18360  0.31220  0.39480  Biso   1.000  H
  H76      1.0000 0.68360  0.81220  0.39480  Biso   1.000  H
  H77      1.0000 0.18360  0.68780  0.89480  Biso   1.000  H
  H78      1.0000 0.68360  0.18780  0.89480  Biso   1.000  H
  H79      1.0000 0.81640  0.68780  0.60520  Biso   1.000  H
  H80      1.0000 0.31640  0.18780  0.60520  Biso   1.000  H
  C185     1.0000 0.83870  0.47220  0.13700  Biso   1.000  C
  C186     1.0000 0.33870  0.97220  0.13700  Biso   1.000  C
  C187     1.0000 0.16130  0.47220  0.36300  Biso   1.000  C
  C188     1.0000 0.66130  0.97220  0.36300  Biso   1.000  C
  C189     1.0000 0.16130  0.52780  0.86300  Biso   1.000  C
  C190     1.0000 0.66130  0.02780  0.86300  Biso   1.000  C
  C191     1.0000 0.83870  0.52780  0.63700  Biso   1.000  C
  C192     1.0000 0.33870  0.02780  0.63700  Biso   1.000  C
  C193     1.0000 0.80210  0.48300  0.10420  Biso   1.000  C
  C194     1.0000 0.30210  0.98300  0.10420  Biso   1.000  C
  C195     1.0000 0.19790  0.48300  0.39580  Biso   1.000  C
  C196     1.0000 0.69790  0.98300  0.39580  Biso   1.000  C
  C197     1.0000 0.19790  0.51700  0.89580  Biso   1.000  C
  C198     1.0000 0.69790  0.01700  0.89580  Biso   1.000  C
  C199     1.0000 0.80210  0.51700  0.60420  Biso   1.000  C
  C200     1.0000 0.30210  0.01700  0.60420  Biso   1.000  C
  H81      1.0000 0.76830  0.45800  0.10580  Biso   1.000  H
  H82      1.0000 0.26830  0.95800  0.10580  Biso   1.000  H
  H83      1.0000 0.23170  0.45800  0.39420  Biso   1.000  H
  H84      1.0000 0.73170  0.95800  0.39420  Biso   1.000  H
  H85      1.0000 0.23170  0.54200  0.89420  Biso   1.000  H
  H86      1.0000 0.73170  0.04200  0.89420  Biso   1.000  H
  H87      1.0000 0.76830  0.54200  0.60580  Biso   1.000  H
  H88      1.0000 0.26830  0.04200  0.60580  Biso   1.000  H
  H89      1.0000 0.81590  0.45680  0.08520  Biso   1.000  H
  H90      1.0000 0.31590  0.95680  0.08520  Biso   1.000  H
  H91      1.0000 0.18410  0.45680  0.41480  Biso   1.000  H
  H92      1.0000 0.68410  0.95680  0.41480  Biso   1.000  H
  H93      1.0000 0.18410  0.54320  0.91480  Biso   1.000  H
  H94      1.0000 0.68410  0.04320  0.91480  Biso   1.000  H
  H95      1.0000 0.81590  0.54320  0.58520  Biso   1.000  H
  H96      1.0000 0.31590  0.04320  0.58520  Biso   1.000  H
  H97      1.0000 0.79700  0.54170  0.09930  Biso   1.000  H
  H98      1.0000 0.29700  0.04170  0.09930  Biso   1.000  H
  H99      1.0000 0.20300  0.54170  0.40070  Biso   1.000  H
  H100     1.0000 0.70300  0.04170  0.40070  Biso   1.000  H
  H101     1.0000 0.20300  0.45830  0.90070  Biso   1.000  H
  H102     1.0000 0.70300  0.95830  0.90070  Biso   1.000  H
  H103     1.0000 0.79700  0.45830  0.59930  Biso   1.000  H
  H104     1.0000 0.29700  0.95830  0.59930  Biso   1.000  H
  C201     1.0000 0.87640  0.50750  0.12690  Biso   1.000  C
  C202     1.0000 0.37640  0.00750  0.12690  Biso   1.000  C
  C203     1.0000 0.12360  0.50750  0.37310  Biso   1.000  C
  C204     1.0000 0.62360  0.00750  0.37310  Biso   1.000  C
  C205     1.0000 0.12360  0.49250  0.87310  Biso   1.000  C
  C206     1.0000 0.62360  0.99250  0.87310  Biso   1.000  C
  C207     1.0000 0.87640  0.49250  0.62690  Biso   1.000  C
  C208     1.0000 0.37640  0.99250  0.62690  Biso   1.000  C
  H105     1.0000 0.88780  0.47410  0.10880  Biso   1.000  H
  H106     1.0000 0.38780  0.97410  0.10880  Biso   1.000  H
  H107     1.0000 0.11220  0.47410  0.39120  Biso   1.000  H
  H108     1.0000 0.61220  0.97410  0.39120  Biso   1.000  H
  H109     1.0000 0.11220  0.52590  0.89120  Biso   1.000  H
  H110     1.0000 0.61220  0.02590  0.89120  Biso   1.000  H
  H111     1.0000 0.88780  0.52590  0.60880  Biso   1.000  H
  H112     1.0000 0.38780  0.02590  0.60880  Biso   1.000  H
  H113     1.0000 0.90590  0.51450  0.14710  Biso   1.000  H
  H114     1.0000 0.40590  0.01450  0.14710  Biso   1.000  H
  H115     1.0000 0.09410  0.51450  0.35290  Biso   1.000  H
  H116     1.0000 0.59410  0.01450  0.35290  Biso   1.000  H
  H117     1.0000 0.09410  0.48550  0.85290  Biso   1.000  H
  H118     1.0000 0.59410  0.98550  0.85290  Biso   1.000  H
  H119     1.0000 0.90590  0.48550  0.64710  Biso   1.000  H
  H120     1.0000 0.40590  0.98550  0.64710  Biso   1.000  H
  H121     1.0000 0.86470  0.56130  0.11700  Biso   1.000  H
  H122     1.0000 0.36470  0.06130  0.11700  Biso   1.000  H
  H123     1.0000 0.13530  0.56130  0.38300  Biso   1.000  H
  H124     1.0000 0.63530  0.06130  0.38300  Biso   1.000  H
  H125     1.0000 0.13530  0.43870  0.88300  Biso   1.000  H
  H126     1.0000 0.63530  0.93870  0.88300  Biso   1.000  H
  H127     1.0000 0.86470  0.43870  0.61700  Biso   1.000  H
  H128     1.0000 0.36470  0.93870  0.61700  Biso   1.000  H
  N9       1.0000 0.81670  0.51960  0.16330  Biso   1.000  N
  N10      1.0000 0.31670  0.01960  0.16330  Biso   1.000  N
  N11      1.0000 0.18330  0.51960  0.33670  Biso   1.000  N
  N12      1.0000 0.68330  0.01960  0.33670  Biso   1.000  N
  N13      1.0000 0.18330  0.48040  0.83670  Biso   1.000  N
  N14      1.0000 0.68330  0.98040  0.83670  Biso   1.000  N
  N15      1.0000 0.81670  0.48040  0.66330  Biso   1.000  N
  N16      1.0000 0.31670  0.98040  0.66330  Biso   1.000  N
  O73      1.0000 0.80760  0.59670  0.16010  Biso   1.000  O
  O74      1.0000 0.30760  0.09670  0.16010  Biso   1.000  O
  O75      1.0000 0.19240  0.59670  0.33990  Biso   1.000  O
  O76      1.0000 0.69240  0.09670  0.33990  Biso   1.000  O
  O77      1.0000 0.19240  0.40330  0.83990  Biso   1.000  O
  O78      1.0000 0.69240  0.90330  0.83990  Biso   1.000  O
  O79      1.0000 0.80760  0.40330  0.66010  Biso   1.000  O
  O80      1.0000 0.30760  0.90330  0.66010  Biso   1.000  O
  C209     1.0000 0.81120  0.47270  0.19140  Biso   1.000  C
  C210     1.0000 0.31120  0.97270  0.19140  Biso   1.000  C
  C211     1.0000 0.18880  0.47270  0.30860  Biso   1.000  C
  C212     1.0000 0.68880  0.97270  0.30860  Biso   1.000  C
  C213     1.0000 0.18880  0.52730  0.80860  Biso   1.000  C
  C214     1.0000 0.68880  0.02730  0.80860  Biso   1.000  C
  C215     1.0000 0.81120  0.52730  0.69140  Biso   1.000  C
  C216     1.0000 0.31120  0.02730  0.69140  Biso   1.000  C
  C217     1.0000 0.79470  0.50110  0.22250  Biso   1.000  C
  C218     1.0000 0.29470  0.00110  0.22250  Biso   1.000  C
  C219     1.0000 0.20530  0.50110  0.27750  Biso   1.000  C
  C220     1.0000 0.70530  0.00110  0.27750  Biso   1.000  C
  C221     1.0000 0.20530  0.49890  0.77750  Biso   1.000  C
  C222     1.0000 0.70530  0.99890  0.77750  Biso   1.000  C
  C223     1.0000 0.79470  0.49890  0.72250  Biso   1.000  C
  C224     1.0000 0.29470  0.99890  0.72250  Biso   1.000  C
  C225     1.0000 0.77870  0.58030  0.23070  Biso   1.000  C
  C226     1.0000 0.27870  0.08030  0.23070  Biso   1.000  C
  C227     1.0000 0.22130  0.58030  0.26930  Biso   1.000  C
  C228     1.0000 0.72130  0.08030  0.26930  Biso   1.000  C
  C229     1.0000 0.22130  0.41970  0.76930  Biso   1.000  C
  C230     1.0000 0.72130  0.91970  0.76930  Biso   1.000  C
  C231     1.0000 0.77870  0.41970  0.73070  Biso   1.000  C
  C232     1.0000 0.27870  0.91970  0.73070  Biso   1.000  C
  H129     1.0000 0.77690  0.62610  0.21530  Biso   1.000  H
  H130     1.0000 0.27690  0.12610  0.21530  Biso   1.000  H
  H131     1.0000 0.22310  0.62610  0.28470  Biso   1.000  H
  H132     1.0000 0.72310  0.12610  0.28470  Biso   1.000  H
  H133     1.0000 0.22310  0.37390  0.78470  Biso   1.000  H
  H134     1.0000 0.72310  0.87390  0.78470  Biso   1.000  H
  H135     1.0000 0.77690  0.37390  0.71530  Biso   1.000  H
  H136     1.0000 0.27690  0.87390  0.71530  Biso   1.000  H
  N17      1.0000 0.76630  0.58320  0.26290  Biso   1.000  N
  N18      1.0000 0.26630  0.08320  0.26290  Biso   1.000  N
  N19      1.0000 0.23370  0.58320  0.23710  Biso   1.000  N
  N20      1.0000 0.73370  0.08320  0.23710  Biso   1.000  N
  N21      1.0000 0.23370  0.41680  0.73710  Biso   1.000  N
  N22      1.0000 0.73370  0.91680  0.73710  Biso   1.000  N
  N23      1.0000 0.76630  0.41680  0.76290  Biso   1.000  N
  N24      1.0000 0.26630  0.91680  0.76290  Biso   1.000  N
  N25      1.0000 0.77380  0.50450  0.27564  Biso   1.000  N
  N26      1.0000 0.27380  0.00450  0.27564  Biso   1.000  N
  N27      1.0000 0.22620  0.50450  0.22436  Biso   1.000  N
  N28      1.0000 0.72620  0.00450  0.22436  Biso   1.000  N
  N29      1.0000 0.22620  0.49550  0.72436  Biso   1.000  N
  N30      1.0000 0.72620  0.99550  0.72436  Biso   1.000  N
  N31      1.0000 0.77380  0.49550  0.77564  Biso   1.000  N
  N32      1.0000 0.27380  0.99550  0.77564  Biso   1.000  N
  C233     1.0000 0.79150  0.45330  0.25230  Biso   1.000  C
  C234     1.0000 0.29150  0.95330  0.25230  Biso   1.000  C
  C235     1.0000 0.20850  0.45330  0.24770  Biso   1.000  C
  C236     1.0000 0.70850  0.95330  0.24770  Biso   1.000  C
  C237     1.0000 0.20850  0.54670  0.74770  Biso   1.000  C
  C238     1.0000 0.70850  0.04670  0.74770  Biso   1.000  C
  C239     1.0000 0.79150  0.54670  0.75230  Biso   1.000  C
  C240     1.0000 0.29150  0.04670  0.75230  Biso   1.000  C
  H137     1.0000 0.79990  0.39680  0.25560  Biso   1.000  H
  H138     1.0000 0.29990  0.89680  0.25560  Biso   1.000  H
  H139     1.0000 0.20010  0.39680  0.24440  Biso   1.000  H
  H140     1.0000 0.70010  0.89680  0.24440  Biso   1.000  H
  H141     1.0000 0.20010  0.60320  0.74440  Biso   1.000  H
  H142     1.0000 0.70010  0.10320  0.74440  Biso   1.000  H
  H143     1.0000 0.79990  0.60320  0.75560  Biso   1.000  H
  H144     1.0000 0.29990  0.10320  0.75560  Biso   1.000  H
  C241     1.0000 0.75980  0.48340  0.31040  Biso   1.000  C
  C242     1.0000 0.25980  0.98340  0.31040  Biso   1.000  C
  C243     1.0000 0.24020  0.48340  0.18960  Biso   1.000  C
  C244     1.0000 0.74020  0.98340  0.18960  Biso   1.000  C
  C245     1.0000 0.24020  0.51660  0.68960  Biso   1.000  C
  C246     1.0000 0.74020  0.01660  0.68960  Biso   1.000  C
  C247     1.0000 0.75980  0.51660  0.81040  Biso   1.000  C
  C248     1.0000 0.25980  0.01660  0.81040  Biso   1.000  C
  H145     1.0000 0.78030  0.51980  0.32870  Biso   1.000  H
  H146     1.0000 0.28030  0.01980  0.32870  Biso   1.000  H
  H147     1.0000 0.21970  0.51980  0.17130  Biso   1.000  H
  H148     1.0000 0.71970  0.01980  0.17130  Biso   1.000  H
  H149     1.0000 0.21970  0.48020  0.67130  Biso   1.000  H
  H150     1.0000 0.71970  0.98020  0.67130  Biso   1.000  H
  H151     1.0000 0.78030  0.48020  0.82870  Biso   1.000  H
  H152     1.0000 0.28030  0.98020  0.82870  Biso   1.000  H
  H153     1.0000 0.72200  0.49640  0.30870  Biso   1.000  H
  H154     1.0000 0.22200  0.99640  0.30870  Biso   1.000  H
  H155     1.0000 0.27800  0.49640  0.19130  Biso   1.000  H
  H156     1.0000 0.77800  0.99640  0.19130  Biso   1.000  H
  H157     1.0000 0.27800  0.50360  0.69130  Biso   1.000  H
  H158     1.0000 0.77800  0.00360  0.69130  Biso   1.000  H
  H159     1.0000 0.72200  0.50360  0.80870  Biso   1.000  H
  H160     1.0000 0.22200  0.00360  0.80870  Biso   1.000  H
  C249     1.0000 0.76810  0.40290  0.32210  Biso   1.000  C
  C250     1.0000 0.26810  0.90290  0.32210  Biso   1.000  C
  C251     1.0000 0.23190  0.40290  0.17790  Biso   1.000  C
  C252     1.0000 0.73190  0.90290  0.17790  Biso   1.000  C
  C253     1.0000 0.23190  0.59710  0.67790  Biso   1.000  C
  C254     1.0000 0.73190  0.09710  0.67790  Biso   1.000  C
  C255     1.0000 0.76810  0.59710  0.82210  Biso   1.000  C
  C256     1.0000 0.26810  0.09710  0.82210  Biso   1.000  C
  H161     1.0000 0.80640  0.39110  0.32660  Biso   1.000  H
  H162     1.0000 0.30640  0.89110  0.32660  Biso   1.000  H
  H163     1.0000 0.19360  0.39110  0.17340  Biso   1.000  H
  H164     1.0000 0.69360  0.89110  0.17340  Biso   1.000  H
  H165     1.0000 0.19360  0.60890  0.67340  Biso   1.000  H
  H166     1.0000 0.69360  0.10890  0.67340  Biso   1.000  H
  H167     1.0000 0.80640  0.60890  0.82660  Biso   1.000  H
  H168     1.0000 0.30640  0.10890  0.82660  Biso   1.000  H
  H169     1.0000 0.75040  0.36560  0.30310  Biso   1.000  H
  H170     1.0000 0.25040  0.86560  0.30310  Biso   1.000  H
  H171     1.0000 0.24960  0.36560  0.19690  Biso   1.000  H
  H172     1.0000 0.74960  0.86560  0.19690  Biso   1.000  H
  H173     1.0000 0.24960  0.63440  0.69690  Biso   1.000  H
  H174     1.0000 0.74960  0.13440  0.69690  Biso   1.000  H
  H175     1.0000 0.75040  0.63440  0.80310  Biso   1.000  H
  H176     1.0000 0.25040  0.13440  0.80310  Biso   1.000  H
  C257     1.0000 0.74700  0.38430  0.35680  Biso   1.000  C
  C258     1.0000 0.24700  0.88430  0.35680  Biso   1.000  C
  C259     1.0000 0.25300  0.38430  0.14320  Biso   1.000  C
  C260     1.0000 0.75300  0.88430  0.14320  Biso   1.000  C
  C261     1.0000 0.25300  0.61570  0.64320  Biso   1.000  C
  C262     1.0000 0.75300  0.11570  0.64320  Biso   1.000  C
  C263     1.0000 0.74700  0.61570  0.85680  Biso   1.000  C
  C264     1.0000 0.24700  0.11570  0.85680  Biso   1.000  C
  H177     1.0000 0.74410  0.42870  0.37210  Biso   1.000  H
  H178     1.0000 0.24410  0.92870  0.37210  Biso   1.000  H
  H179     1.0000 0.25590  0.42870  0.12790  Biso   1.000  H
  H180     1.0000 0.75590  0.92870  0.12790  Biso   1.000  H
  H181     1.0000 0.25590  0.57130  0.62790  Biso   1.000  H
  H182     1.0000 0.75590  0.07130  0.62790  Biso   1.000  H
  H183     1.0000 0.74410  0.57130  0.87210  Biso   1.000  H
  H184     1.0000 0.24410  0.07130  0.87210  Biso   1.000  H
  C265     1.0000 0.73400  0.31470  0.36520  Biso   1.000  C
  C266     1.0000 0.23400  0.81470  0.36520  Biso   1.000  C
  C267     1.0000 0.26600  0.31470  0.13480  Biso   1.000  C
  C268     1.0000 0.76600  0.81470  0.13480  Biso   1.000  C
  C269     1.0000 0.26600  0.68530  0.63480  Biso   1.000  C
  C270     1.0000 0.76600  0.18530  0.63480  Biso   1.000  C
  C271     1.0000 0.73400  0.68530  0.86520  Biso   1.000  C
  C272     1.0000 0.23400  0.18530  0.86520  Biso   1.000  C
  H185     1.0000 0.76120  0.27580  0.36070  Biso   1.000  H
  H186     1.0000 0.26120  0.77580  0.36070  Biso   1.000  H
  H187     1.0000 0.23880  0.27580  0.13930  Biso   1.000  H
  H188     1.0000 0.73880  0.77580  0.13930  Biso   1.000  H
  H189     1.0000 0.23880  0.72420  0.63930  Biso   1.000  H
  H190     1.0000 0.73880  0.22420  0.63930  Biso   1.000  H
  H191     1.0000 0.76120  0.72420  0.86070  Biso   1.000  H
  H192     1.0000 0.26120  0.22420  0.86070  Biso   1.000  H
  H193     1.0000 0.70070  0.30010  0.34860  Biso   1.000  H
  H194     1.0000 0.20070  0.80010  0.34860  Biso   1.000  H
  H195     1.0000 0.29930  0.30010  0.15140  Biso   1.000  H
  H196     1.0000 0.79930  0.80010  0.15140  Biso   1.000  H
  H197     1.0000 0.29930  0.69990  0.65140  Biso   1.000  H
  H198     1.0000 0.79930  0.19990  0.65140  Biso   1.000  H
  H199     1.0000 0.70070  0.69990  0.84860  Biso   1.000  H
  H200     1.0000 0.20070  0.19990  0.84860  Biso   1.000  H
  C273     1.0000 0.72560  0.29800  0.40320  Biso   1.000  C
  C274     1.0000 0.22560  0.79800  0.40320  Biso   1.000  C
  C275     1.0000 0.27440  0.29800  0.09680  Biso   1.000  C
  C276     1.0000 0.77440  0.79800  0.09680  Biso   1.000  C
  C277     1.0000 0.27440  0.70200  0.59680  Biso   1.000  C
  C278     1.0000 0.77440  0.20200  0.59680  Biso   1.000  C
  C279     1.0000 0.72560  0.70200  0.90320  Biso   1.000  C
  C280     1.0000 0.22560  0.20200  0.90320  Biso   1.000  C
  H201     1.0000 0.75020  0.25650  0.41570  Biso   1.000  H
  H202     1.0000 0.25020  0.75650  0.41570  Biso   1.000  H
  H203     1.0000 0.24980  0.25650  0.08430  Biso   1.000  H
  H204     1.0000 0.74980  0.75650  0.08430  Biso   1.000  H
  H205     1.0000 0.24980  0.74350  0.58430  Biso   1.000  H
  H206     1.0000 0.74980  0.24350  0.58430  Biso   1.000  H
  H207     1.0000 0.75020  0.74350  0.91570  Biso   1.000  H
  H208     1.0000 0.25020  0.24350  0.91570  Biso   1.000  H
  H209     1.0000 0.72820  0.34920  0.41750  Biso   1.000  H
  H210     1.0000 0.22820  0.84920  0.41750  Biso   1.000  H
  H211     1.0000 0.27180  0.34920  0.08250  Biso   1.000  H
  H212     1.0000 0.77180  0.84920  0.08250  Biso   1.000  H
  H213     1.0000 0.27180  0.65080  0.58250  Biso   1.000  H
  H214     1.0000 0.77180  0.15080  0.58250  Biso   1.000  H
  H215     1.0000 0.72820  0.65080  0.91750  Biso   1.000  H
  H216     1.0000 0.22820  0.15080  0.91750  Biso   1.000  H
  C281     1.0000 0.67130  0.26820  0.39320  Biso   1.000  C
  C282     1.0000 0.17130  0.76820  0.39320  Biso   1.000  C
  C283     1.0000 0.32870  0.26820  0.10680  Biso   1.000  C
  C284     1.0000 0.82870  0.76820  0.10680  Biso   1.000  C
  C285     1.0000 0.32870  0.73180  0.60680  Biso   1.000  C
  C286     1.0000 0.82870  0.23180  0.60680  Biso   1.000  C
  C287     1.0000 0.67130  0.73180  0.89320  Biso   1.000  C
  C288     1.0000 0.17130  0.23180  0.89320  Biso   1.000  C
  H217     1.0000 0.67050  0.21410  0.38140  Biso   1.000  H
  H218     1.0000 0.17050  0.71410  0.38140  Biso   1.000  H
  H219     1.0000 0.32950  0.21410  0.11860  Biso   1.000  H
  H220     1.0000 0.82950  0.71410  0.11860  Biso   1.000  H
  H221     1.0000 0.32950  0.78590  0.61860  Biso   1.000  H
  H222     1.0000 0.82950  0.28590  0.61860  Biso   1.000  H
  H223     1.0000 0.67050  0.78590  0.88140  Biso   1.000  H
  H224     1.0000 0.17050  0.28590  0.88140  Biso   1.000  H
  H225     1.0000 0.64930  0.30700  0.37680  Biso   1.000  H
  H226     1.0000 0.14930  0.80700  0.37680  Biso   1.000  H
  H227     1.0000 0.35070  0.30700  0.12320  Biso   1.000  H
  H228     1.0000 0.85070  0.80700  0.12320  Biso   1.000  H
  H229     1.0000 0.35070  0.69300  0.62320  Biso   1.000  H
  H230     1.0000 0.85070  0.19300  0.62320  Biso   1.000  H
  H231     1.0000 0.64930  0.69300  0.87680  Biso   1.000  H
  H232     1.0000 0.14930  0.19300  0.87680  Biso   1.000  H
  C289     1.0000 0.64950  0.26020  0.42970  Biso   1.000  C
  C290     1.0000 0.14950  0.76020  0.42970  Biso   1.000  C
  C291     1.0000 0.35050  0.26020  0.07030  Biso   1.000  C
  C292     1.0000 0.85050  0.76020  0.07030  Biso   1.000  C
  C293     1.0000 0.35050  0.73980  0.57030  Biso   1.000  C
  C294     1.0000 0.85050  0.23980  0.57030  Biso   1.000  C
  C295     1.0000 0.64950  0.73980  0.92970  Biso   1.000  C
  C296     1.0000 0.14950  0.23980  0.92970  Biso   1.000  C
  H233     1.0000 0.67320  0.22520  0.44700  Biso   1.000  H
  H234     1.0000 0.17320  0.72520  0.44700  Biso   1.000  H
  H235     1.0000 0.32680  0.22520  0.05300  Biso   1.000  H
  H236     1.0000 0.82680  0.72520  0.05300  Biso   1.000  H
  H237     1.0000 0.32680  0.77480  0.55300  Biso   1.000  H
  H238     1.0000 0.82680  0.27480  0.55300  Biso   1.000  H
  H239     1.0000 0.67320  0.77480  0.94700  Biso   1.000  H
  H240     1.0000 0.17320  0.27480  0.94700  Biso   1.000  H
  H241     1.0000 0.64690  0.31490  0.44030  Biso   1.000  H
  H242     1.0000 0.14690  0.81490  0.44030  Biso   1.000  H
  H243     1.0000 0.35310  0.31490  0.05970  Biso   1.000  H
  H244     1.0000 0.85310  0.81490  0.05970  Biso   1.000  H
  H245     1.0000 0.35310  0.68510  0.55970  Biso   1.000  H
  H246     1.0000 0.85310  0.18510  0.55970  Biso   1.000  H
  H247     1.0000 0.64690  0.68510  0.94030  Biso   1.000  H
  H248     1.0000 0.14690  0.18510  0.94030  Biso   1.000  H
  C297     1.0000 0.59550  0.22130  0.41870  Biso   1.000  C
  C298     1.0000 0.09550  0.72130  0.41870  Biso   1.000  C
  C299     1.0000 0.40450  0.22130  0.08130  Biso   1.000  C
  C300     1.0000 0.90450  0.72130  0.08130  Biso   1.000  C
  C301     1.0000 0.40450  0.77870  0.58130  Biso   1.000  C
  C302     1.0000 0.90450  0.27870  0.58130  Biso   1.000  C
  C303     1.0000 0.59550  0.77870  0.91870  Biso   1.000  C
  C304     1.0000 0.09550  0.27870  0.91870  Biso   1.000  C
  H249     1.0000 0.59930  0.16270  0.41290  Biso   1.000  H
  H250     1.0000 0.09930  0.66270  0.41290  Biso   1.000  H
  H251     1.0000 0.40070  0.16270  0.08710  Biso   1.000  H
  H252     1.0000 0.90070  0.66270  0.08710  Biso   1.000  H
  H253     1.0000 0.40070  0.83730  0.58710  Biso   1.000  H
  H254     1.0000 0.90070  0.33730  0.58710  Biso   1.000  H
  H255     1.0000 0.59930  0.83730  0.91290  Biso   1.000  H
  H256     1.0000 0.09930  0.33730  0.91290  Biso   1.000  H
  H257     1.0000 0.57530  0.24920  0.39750  Biso   1.000  H
  H258     1.0000 0.07530  0.74920  0.39750  Biso   1.000  H
  H259     1.0000 0.42470  0.24920  0.10250  Biso   1.000  H
  H260     1.0000 0.92470  0.74920  0.10250  Biso   1.000  H
  H261     1.0000 0.42470  0.75080  0.60250  Biso   1.000  H
  H262     1.0000 0.92470  0.25080  0.60250  Biso   1.000  H
  H263     1.0000 0.57530  0.75080  0.89750  Biso   1.000  H
  H264     1.0000 0.07530  0.25080  0.89750  Biso   1.000  H
  C305     1.0000 0.56510  0.22890  0.45030  Biso   1.000  C
  C306     1.0000 0.06510  0.72890  0.45030  Biso   1.000  C
  C307     1.0000 0.43490  0.22890  0.04970  Biso   1.000  C
  C308     1.0000 0.93490  0.72890  0.04970  Biso   1.000  C
  C309     1.0000 0.43490  0.77110  0.54970  Biso   1.000  C
  C310     1.0000 0.93490  0.27110  0.54970  Biso   1.000  C
  C311     1.0000 0.56510  0.77110  0.95030  Biso   1.000  C
  C312     1.0000 0.06510  0.27110  0.95030  Biso   1.000  C
  H265     1.0000 0.58790  0.20900  0.47250  Biso   1.000  H
  H266     1.0000 0.08790  0.70900  0.47250  Biso   1.000  H
  H267     1.0000 0.41210  0.20900  0.02750  Biso   1.000  H
  H268     1.0000 0.91210  0.70900  0.02750  Biso   1.000  H
  H269     1.0000 0.41210  0.79100  0.52750  Biso   1.000  H
  H270     1.0000 0.91210  0.29100  0.52750  Biso   1.000  H
  H271     1.0000 0.58790  0.79100  0.97250  Biso   1.000  H
  H272     1.0000 0.08790  0.29100  0.97250  Biso   1.000  H
  H273     1.0000 0.55650  0.28720  0.45370  Biso   1.000  H
  H274     1.0000 0.05650  0.78720  0.45370  Biso   1.000  H
  H275     1.0000 0.44350  0.28720  0.04630  Biso   1.000  H
  H276     1.0000 0.94350  0.78720  0.04630  Biso   1.000  H
  H277     1.0000 0.44350  0.71280  0.54630  Biso   1.000  H
  H278     1.0000 0.94350  0.21280  0.54630  Biso   1.000  H
  H279     1.0000 0.55650  0.71280  0.95370  Biso   1.000  H
  H280     1.0000 0.05650  0.21280  0.95370  Biso   1.000  H
  C313     1.0000 0.51550  0.17960  0.44230  Biso   1.000  C
  C314     1.0000 0.01550  0.67960  0.44230  Biso   1.000  C
  C315     1.0000 0.48450  0.17960  0.05770  Biso   1.000  C
  C316     1.0000 0.98450  0.67960  0.05770  Biso   1.000  C
  C317     1.0000 0.48450  0.82040  0.55770  Biso   1.000  C
  C318     1.0000 0.98450  0.32040  0.55770  Biso   1.000  C
  C319     1.0000 0.51550  0.82040  0.94230  Biso   1.000  C
  C320     1.0000 0.01550  0.32040  0.94230  Biso   1.000  C
  H281     1.0000 0.52470  0.12060  0.44280  Biso   1.000  H
  H282     1.0000 0.02470  0.62060  0.44280  Biso   1.000  H
  H283     1.0000 0.47530  0.12060  0.05720  Biso   1.000  H
  H284     1.0000 0.97530  0.62060  0.05720  Biso   1.000  H
  H285     1.0000 0.47530  0.87940  0.55720  Biso   1.000  H
  H286     1.0000 0.97530  0.37940  0.55720  Biso   1.000  H
  H287     1.0000 0.52470  0.87940  0.94280  Biso   1.000  H
  H288     1.0000 0.02470  0.37940  0.94280  Biso   1.000  H
  H289     1.0000 0.49600  0.19290  0.41810  Biso   1.000  H
  H290     1.0000 0.99600  0.69290  0.41810  Biso   1.000  H
  H291     1.0000 0.50400  0.19290  0.08190  Biso   1.000  H
  H292     1.0000 0.00400  0.69290  0.08190  Biso   1.000  H
  H293     1.0000 0.50400  0.80710  0.58190  Biso   1.000  H
  H294     1.0000 0.00400  0.30710  0.58190  Biso   1.000  H
  H295     1.0000 0.49600  0.80710  0.91810  Biso   1.000  H
  H296     1.0000 0.99600  0.30710  0.91810  Biso   1.000  H
  C321     1.0000 0.45650  0.26560  0.47390  Biso   1.000  C
  C322     1.0000 0.95650  0.76560  0.47390  Biso   1.000  C
  C323     1.0000 0.54350  0.26560  0.02610  Biso   1.000  C
  C324     1.0000 0.04350  0.76560  0.02610  Biso   1.000  C
  C325     1.0000 0.54350  0.73440  0.52610  Biso   1.000  C
  C326     1.0000 0.04350  0.23440  0.52610  Biso   1.000  C
  C327     1.0000 0.45650  0.73440  0.97390  Biso   1.000  C
  C328     1.0000 0.95650  0.23440  0.97390  Biso   1.000  C
  H297     1.0000 0.46000  0.31690  0.46300  Biso   1.000  H
  H298     1.0000 0.96000  0.81690  0.46300  Biso   1.000  H
  H299     1.0000 0.54000  0.31690  0.03700  Biso   1.000  H
  H300     1.0000 0.04000  0.81690  0.03700  Biso   1.000  H
  H301     1.0000 0.54000  0.68310  0.53700  Biso   1.000  H
  H302     1.0000 0.04000  0.18310  0.53700  Biso   1.000  H
  H303     1.0000 0.46000  0.68310  0.96300  Biso   1.000  H
  H304     1.0000 0.96000  0.18310  0.96300  Biso   1.000  H
  N33      1.0000 0.48080  0.19510  0.46774  Biso   1.000  N
  N34      1.0000 0.98080  0.69510  0.46774  Biso   1.000  N
  N35      1.0000 0.51920  0.19510  0.03226  Biso   1.000  N
  N36      1.0000 0.01920  0.69510  0.03226  Biso   1.000  N
  N37      1.0000 0.51920  0.80490  0.53226  Biso   1.000  N
  N38      1.0000 0.01920  0.30490  0.53226  Biso   1.000  N
  N39      1.0000 0.48080  0.80490  0.96774  Biso   1.000  N
  N40      1.0000 0.98080  0.30490  0.96774  Biso   1.000  N
  N41      1.0000 0.46740  0.13250  0.48809  Biso   1.000  N
  N42      1.0000 0.96740  0.63250  0.48809  Biso   1.000  N
  N43      1.0000 0.53260  0.13250  0.01191  Biso   1.000  N
  N44      1.0000 0.03260  0.63250  0.01191  Biso   1.000  N
  N45      1.0000 0.53260  0.86750  0.51191  Biso   1.000  N
  N46      1.0000 0.03260  0.36750  0.51191  Biso   1.000  N
  N47      1.0000 0.46740  0.86750  0.98809  Biso   1.000  N
  N48      1.0000 0.96740  0.36750  0.98809  Biso   1.000  N
  C329     1.0000 0.43470  0.16590  0.50700  Biso   1.000  C
  C330     1.0000 0.93470  0.66590  0.50700  Biso   1.000  C
  C331     1.0000 0.56530  0.16590  0.99300  Biso   1.000  C
  C332     1.0000 0.06530  0.66590  0.99300  Biso   1.000  C
  C333     1.0000 0.56530  0.83410  0.49300  Biso   1.000  C
  C334     1.0000 0.06530  0.33410  0.49300  Biso   1.000  C
  C335     1.0000 0.43470  0.83410  0.00700  Biso   1.000  C
  C336     1.0000 0.93470  0.33410  0.00700  Biso   1.000  C
  H305     1.0000 0.41950  0.13700  0.52380  Biso   1.000  H
  H306     1.0000 0.91950  0.63700  0.52380  Biso   1.000  H
  H307     1.0000 0.58050  0.13700  0.97620  Biso   1.000  H
  H308     1.0000 0.08050  0.63700  0.97620  Biso   1.000  H
  H309     1.0000 0.58050  0.86300  0.47620  Biso   1.000  H
  H310     1.0000 0.08050  0.36300  0.47620  Biso   1.000  H
  H311     1.0000 0.41950  0.86300  0.02380  Biso   1.000  H
  H312     1.0000 0.91950  0.36300  0.02380  Biso   1.000  H
  C337     1.0000 0.42580  0.25090  0.49850  Biso   1.000  C
  C338     1.0000 0.92580  0.75090  0.49850  Biso   1.000  C
  C339     1.0000 0.57420  0.25090  0.00150  Biso   1.000  C
  C340     1.0000 0.07420  0.75090  0.00150  Biso   1.000  C
  C341     1.0000 0.57420  0.74910  0.50150  Biso   1.000  C
  C342     1.0000 0.07420  0.24910  0.50150  Biso   1.000  C
  C343     1.0000 0.42580  0.74910  0.99850  Biso   1.000  C
  C344     1.0000 0.92580  0.24910  0.99850  Biso   1.000  C
  C345     1.0000 0.39120  0.30800  0.51170  Biso   1.000  C
  C346     1.0000 0.89120  0.80800  0.51170  Biso   1.000  C
  C347     1.0000 0.60880  0.30800  0.98830  Biso   1.000  C
  C348     1.0000 0.10880  0.80800  0.98830  Biso   1.000  C
  C349     1.0000 0.60880  0.69200  0.48830  Biso   1.000  C
  C350     1.0000 0.10880  0.19200  0.48830  Biso   1.000  C
  C351     1.0000 0.39120  0.69200  0.01170  Biso   1.000  C
  C352     1.0000 0.89120  0.19200  0.01170  Biso   1.000  C
  O81      1.0000 0.34860  0.21550  0.54421  Biso   1.000  O
  O82      1.0000 0.84860  0.71550  0.54421  Biso   1.000  O
  O83      1.0000 0.65140  0.21550  0.95579  Biso   1.000  O
  O84      1.0000 0.15140  0.71550  0.95579  Biso   1.000  O
  O85      1.0000 0.65140  0.78450  0.45579  Biso   1.000  O
  O86      1.0000 0.15140  0.28450  0.45579  Biso   1.000  O
  O87      1.0000 0.34860  0.78450  0.04421  Biso   1.000  O
  O88      1.0000 0.84860  0.28450  0.04421  Biso   1.000  O
  N49      1.0000 0.35530  0.28840  0.53236  Biso   1.000  N
  N50      1.0000 0.85530  0.78840  0.53236  Biso   1.000  N
  N51      1.0000 0.64470  0.28840  0.96764  Biso   1.000  N
  N52      1.0000 0.14470  0.78840  0.96764  Biso   1.000  N
  N53      1.0000 0.64470  0.71160  0.46764  Biso   1.000  N
  N54      1.0000 0.14470  0.21160  0.46764  Biso   1.000  N
  N55      1.0000 0.35530  0.71160  0.03236  Biso   1.000  N
  N56      1.0000 0.85530  0.21160  0.03236  Biso   1.000  N
  C353     1.0000 0.27220  0.34350  0.54510  Biso   1.000  C
  C354     1.0000 0.77220  0.84350  0.54510  Biso   1.000  C
  C355     1.0000 0.72780  0.34350  0.95490  Biso   1.000  C
  C356     1.0000 0.22780  0.84350  0.95490  Biso   1.000  C
  C357     1.0000 0.72780  0.65650  0.45490  Biso   1.000  C
  C358     1.0000 0.22780  0.15650  0.45490  Biso   1.000  C
  C359     1.0000 0.27220  0.65650  0.04510  Biso   1.000  C
  C360     1.0000 0.77220  0.15650  0.04510  Biso   1.000  C
  H313     1.0000 0.25230  0.33100  0.52130  Biso   1.000  H
  H314     1.0000 0.75230  0.83100  0.52130  Biso   1.000  H
  H315     1.0000 0.74770  0.33100  0.97870  Biso   1.000  H
  H316     1.0000 0.24770  0.83100  0.97870  Biso   1.000  H
  H317     1.0000 0.74770  0.66900  0.47870  Biso   1.000  H
  H318     1.0000 0.24770  0.16900  0.47870  Biso   1.000  H
  H319     1.0000 0.25230  0.66900  0.02130  Biso   1.000  H
  H320     1.0000 0.75230  0.16900  0.02130  Biso   1.000  H
  H321     1.0000 0.25610  0.39040  0.55470  Biso   1.000  H
  H322     1.0000 0.75610  0.89040  0.55470  Biso   1.000  H
  H323     1.0000 0.74390  0.39040  0.94530  Biso   1.000  H
  H324     1.0000 0.24390  0.89040  0.94530  Biso   1.000  H
  H325     1.0000 0.74390  0.60960  0.44530  Biso   1.000  H
  H326     1.0000 0.24390  0.10960  0.44530  Biso   1.000  H
  H327     1.0000 0.25610  0.60960  0.05470  Biso   1.000  H
  H328     1.0000 0.75610  0.10960  0.05470  Biso   1.000  H
  H329     1.0000 0.27180  0.29570  0.56040  Biso   1.000  H
  H330     1.0000 0.77180  0.79570  0.56040  Biso   1.000  H
  H331     1.0000 0.72820  0.29570  0.93960  Biso   1.000  H
  H332     1.0000 0.22820  0.79570  0.93960  Biso   1.000  H
  H333     1.0000 0.72820  0.70430  0.43960  Biso   1.000  H
  H334     1.0000 0.22820  0.20430  0.43960  Biso   1.000  H
  H335     1.0000 0.27180  0.70430  0.06040  Biso   1.000  H
  H336     1.0000 0.77180  0.20430  0.06040  Biso   1.000  H
  C361     1.0000 0.36320  0.38540  0.58130  Biso   1.000  C
  C362     1.0000 0.86320  0.88540  0.58130  Biso   1.000  C
  C363     1.0000 0.63680  0.38540  0.91870  Biso   1.000  C
  C364     1.0000 0.13680  0.88540  0.91870  Biso   1.000  C
  C365     1.0000 0.63680  0.61460  0.41870  Biso   1.000  C
  C366     1.0000 0.13680  0.11460  0.41870  Biso   1.000  C
  C367     1.0000 0.36320  0.61460  0.08130  Biso   1.000  C
  C368     1.0000 0.86320  0.11460  0.08130  Biso   1.000  C
  H337     1.0000 0.35560  0.34590  0.59870  Biso   1.000  H
  H338     1.0000 0.85560  0.84590  0.59870  Biso   1.000  H
  H339     1.0000 0.64440  0.34590  0.90130  Biso   1.000  H
  H340     1.0000 0.14440  0.84590  0.90130  Biso   1.000  H
  H341     1.0000 0.64440  0.65410  0.40130  Biso   1.000  H
  H342     1.0000 0.14440  0.15410  0.40130  Biso   1.000  H
  H343     1.0000 0.35560  0.65410  0.09870  Biso   1.000  H
  H344     1.0000 0.85560  0.15410  0.09870  Biso   1.000  H
  H345     1.0000 0.35460  0.44080  0.58820  Biso   1.000  H
  H346     1.0000 0.85460  0.94080  0.58820  Biso   1.000  H
  H347     1.0000 0.64540  0.44080  0.91180  Biso   1.000  H
  H348     1.0000 0.14540  0.94080  0.91180  Biso   1.000  H
  H349     1.0000 0.64540  0.55920  0.41180  Biso   1.000  H
  H350     1.0000 0.14540  0.05920  0.41180  Biso   1.000  H
  H351     1.0000 0.35460  0.55920  0.08820  Biso   1.000  H
  H352     1.0000 0.85460  0.05920  0.08820  Biso   1.000  H
  H353     1.0000 0.40070  0.38260  0.58050  Biso   1.000  H
  H354     1.0000 0.90070  0.88260  0.58050  Biso   1.000  H
  H355     1.0000 0.59930  0.38260  0.91950  Biso   1.000  H
  H356     1.0000 0.09930  0.88260  0.91950  Biso   1.000  H
  H357     1.0000 0.59930  0.61740  0.41950  Biso   1.000  H
  H358     1.0000 0.09930  0.11740  0.41950  Biso   1.000  H
  H359     1.0000 0.40070  0.61740  0.08050  Biso   1.000  H
  H360     1.0000 0.90070  0.11740  0.08050  Biso   1.000  H
  C369     1.0000 0.32860  0.36410  0.54350  Biso   1.000  C
  C370     1.0000 0.82860  0.86410  0.54350  Biso   1.000  C
  C371     1.0000 0.67140  0.36410  0.95650  Biso   1.000  C
  C372     1.0000 0.17140  0.86410  0.95650  Biso   1.000  C
  C373     1.0000 0.67140  0.63590  0.45650  Biso   1.000  C
  C374     1.0000 0.17140  0.13590  0.45650  Biso   1.000  C
  C375     1.0000 0.32860  0.63590  0.04350  Biso   1.000  C
  C376     1.0000 0.82860  0.13590  0.04350  Biso   1.000  C
  C377     1.0000 0.34970  0.51480  0.52610  Biso   1.000  C
  C378     1.0000 0.84970  0.01480  0.52610  Biso   1.000  C
  C379     1.0000 0.65030  0.51480  0.97390  Biso   1.000  C
  C380     1.0000 0.15030  0.01480  0.97390  Biso   1.000  C
  C381     1.0000 0.65030  0.48520  0.47390  Biso   1.000  C
  C382     1.0000 0.15030  0.98520  0.47390  Biso   1.000  C
  C383     1.0000 0.34970  0.48520  0.02610  Biso   1.000  C
  C384     1.0000 0.84970  0.98520  0.02610  Biso   1.000  C
  H361     1.0000 0.37740  0.51730  0.54760  Biso   1.000  H
  H362     1.0000 0.87740  0.01730  0.54760  Biso   1.000  H
  H363     1.0000 0.62260  0.51730  0.95240  Biso   1.000  H
  H364     1.0000 0.12260  0.01730  0.95240  Biso   1.000  H
  H365     1.0000 0.62260  0.48270  0.45240  Biso   1.000  H
  H366     1.0000 0.12260  0.98270  0.45240  Biso   1.000  H
  H367     1.0000 0.37740  0.48270  0.04760  Biso   1.000  H
  H368     1.0000 0.87740  0.98270  0.04760  Biso   1.000  H
  H369     1.0000 0.31730  0.53980  0.53060  Biso   1.000  H
  H370     1.0000 0.81730  0.03980  0.53060  Biso   1.000  H
  H371     1.0000 0.68270  0.53980  0.96940  Biso   1.000  H
  H372     1.0000 0.18270  0.03980  0.96940  Biso   1.000  H
  H373     1.0000 0.68270  0.46020  0.46940  Biso   1.000  H
  H374     1.0000 0.18270  0.96020  0.46940  Biso   1.000  H
  H375     1.0000 0.31730  0.46020  0.03060  Biso   1.000  H
  H376     1.0000 0.81730  0.96020  0.03060  Biso   1.000  H
  H377     1.0000 0.36130  0.54470  0.50700  Biso   1.000  H
  H378     1.0000 0.86130  0.04470  0.50700  Biso   1.000  H
  H379     1.0000 0.63870  0.54470  0.99300  Biso   1.000  H
  H380     1.0000 0.13870  0.04470  0.99300  Biso   1.000  H
  H381     1.0000 0.63870  0.45530  0.49300  Biso   1.000  H
  H382     1.0000 0.13870  0.95530  0.49300  Biso   1.000  H
  H383     1.0000 0.36130  0.45530  0.00700  Biso   1.000  H
  H384     1.0000 0.86130  0.95530  0.00700  Biso   1.000  H
  C385     1.0000 0.29410  0.42570  0.48180  Biso   1.000  C
  C386     1.0000 0.79410  0.92570  0.48180  Biso   1.000  C
  C387     1.0000 0.70590  0.42570  0.01820  Biso   1.000  C
  C388     1.0000 0.20590  0.92570  0.01820  Biso   1.000  C
  C389     1.0000 0.70590  0.57430  0.51820  Biso   1.000  C
  C390     1.0000 0.20590  0.07430  0.51820  Biso   1.000  C
  C391     1.0000 0.29410  0.57430  0.98180  Biso   1.000  C
  C392     1.0000 0.79410  0.07430  0.98180  Biso   1.000  C
  H385     1.0000 0.30220  0.46490  0.46440  Biso   1.000  H
  H386     1.0000 0.80220  0.96490  0.46440  Biso   1.000  H
  H387     1.0000 0.69780  0.46490  0.03560  Biso   1.000  H
  H388     1.0000 0.19780  0.96490  0.03560  Biso   1.000  H
  H389     1.0000 0.69780  0.53510  0.53560  Biso   1.000  H
  H390     1.0000 0.19780  0.03510  0.53560  Biso   1.000  H
  H391     1.0000 0.30220  0.53510  0.96440  Biso   1.000  H
  H392     1.0000 0.80220  0.03510  0.96440  Biso   1.000  H
  H393     1.0000 0.26070  0.44090  0.48820  Biso   1.000  H
  H394     1.0000 0.76070  0.94090  0.48820  Biso   1.000  H
  H395     1.0000 0.73930  0.44090  0.01180  Biso   1.000  H
  H396     1.0000 0.23930  0.94090  0.01180  Biso   1.000  H
  H397     1.0000 0.73930  0.55910  0.51180  Biso   1.000  H
  H398     1.0000 0.23930  0.05910  0.51180  Biso   1.000  H
  H399     1.0000 0.26070  0.55910  0.98820  Biso   1.000  H
  H400     1.0000 0.76070  0.05910  0.98820  Biso   1.000  H
  H401     1.0000 0.29100  0.37050  0.47150  Biso   1.000  H
  H402     1.0000 0.79100  0.87050  0.47150  Biso   1.000  H
  H403     1.0000 0.70900  0.37050  0.02850  Biso   1.000  H
  H404     1.0000 0.20900  0.87050  0.02850  Biso   1.000  H
  H405     1.0000 0.70900  0.62950  0.52850  Biso   1.000  H
  H406     1.0000 0.20900  0.12950  0.52850  Biso   1.000  H
  H407     1.0000 0.29100  0.62950  0.97150  Biso   1.000  H
  H408     1.0000 0.79100  0.12950  0.97150  Biso   1.000  H
  C393     1.0000 0.33920  0.42690  0.51530  Biso   1.000  C
  C394     1.0000 0.83920  0.92690  0.51530  Biso   1.000  C
  C395     1.0000 0.66080  0.42690  0.98470  Biso   1.000  C
  C396     1.0000 0.16080  0.92690  0.98470  Biso   1.000  C
  C397     1.0000 0.66080  0.57310  0.48470  Biso   1.000  C
  C398     1.0000 0.16080  0.07310  0.48470  Biso   1.000  C
  C399     1.0000 0.33920  0.57310  0.01530  Biso   1.000  C
  C400     1.0000 0.83920  0.07310  0.01530  Biso   1.000  C
  N57      1.0000 0.38740  0.38900  0.50475  Biso   1.000  N
  N58      1.0000 0.88740  0.88900  0.50475  Biso   1.000  N
  N59      1.0000 0.61260  0.38900  0.99525  Biso   1.000  N
  N60      1.0000 0.11260  0.88900  0.99525  Biso   1.000  N
  N61      1.0000 0.61260  0.61100  0.49525  Biso   1.000  N
  N62      1.0000 0.11260  0.11100  0.49525  Biso   1.000  N
  N63      1.0000 0.38740  0.61100  0.00475  Biso   1.000  N
  N64      1.0000 0.88740  0.11100  0.00475  Biso   1.000  N
  O89      1.0000 0.41500  0.42870  0.48504  Biso   1.000  O
  O90      1.0000 0.91500  0.92870  0.48504  Biso   1.000  O
  O91      1.0000 0.58500  0.42870  0.01496  Biso   1.000  O
  O92      1.0000 0.08500  0.92870  0.01496  Biso   1.000  O
  O93      1.0000 0.58500  0.57130  0.51496  Biso   1.000  O
  O94      1.0000 0.08500  0.07130  0.51496  Biso   1.000  O
  O95      1.0000 0.41500  0.57130  0.98504  Biso   1.000  O
  O96      1.0000 0.91500  0.07130  0.98504  Biso   1.000  O
