data_image0
_cell_length_a       23.1885
_cell_length_b       23.1885
_cell_length_c       23.1885
_cell_angle_alpha    90
_cell_angle_beta     90
_cell_angle_gamma    90

_symmetry_space_group_name_H-M    "P 1"
_symmetry_int_tables_number       1

loop_
  _symmetry_equiv_pos_as_xyz
  'x, y, z'

loop_
  _atom_site_label
  _atom_site_occupancy
  _atom_site_fract_x
  _atom_site_fract_y
  _atom_site_fract_z
  _atom_site_thermal_displace_type
  _atom_site_B_iso_or_equiv
  _atom_site_type_symbol
  W1       1.0000 0.42367  0.10845  0.07673  Biso   1.000  W
  W2       1.0000 0.57633  0.89155  0.07673  Biso   1.000  W
  W3       1.0000 0.57633  0.10845  0.92327  Biso   1.000  W
  W4       1.0000 0.42367  0.89155  0.92327  Biso   1.000  W
  W5       1.0000 0.07673  0.42367  0.10845  Biso   1.000  W
  W6       1.0000 0.07673  0.57633  0.89155  Biso   1.000  W
  W7       1.0000 0.92327  0.57633  0.10845  Biso   1.000  W
  W8       1.0000 0.92327  0.42367  0.89155  Biso   1.000  W
  W9       1.0000 0.10845  0.07673  0.42367  Biso   1.000  W
  W10      1.0000 0.89155  0.07673  0.57633  Biso   1.000  W
  W11      1.0000 0.10845  0.92327  0.57633  Biso   1.000  W
  W12      1.0000 0.89155  0.92327  0.42367  Biso   1.000  W
  W13      1.0000 0.92367  0.60845  0.57673  Biso   1.000  W
  W14      1.0000 0.07633  0.39155  0.57673  Biso   1.000  W
  W15      1.0000 0.07633  0.60845  0.42327  Biso   1.000  W
  W16      1.0000 0.92367  0.39155  0.42327  Biso   1.000  W
  W17      1.0000 0.57673  0.92367  0.60845  Biso   1.000  W
  W18      1.0000 0.57673  0.07633  0.39155  Biso   1.000  W
  W19      1.0000 0.42327  0.07633  0.60845  Biso   1.000  W
  W20      1.0000 0.42327  0.92367  0.39155  Biso   1.000  W
  W21      1.0000 0.60845  0.57673  0.92367  Biso   1.000  W
  W22      1.0000 0.39155  0.57673  0.07633  Biso   1.000  W
  W23      1.0000 0.60845  0.42327  0.07633  Biso   1.000  W
  W24      1.0000 0.39155  0.42327  0.92367  Biso   1.000  W
  W25      1.0000 0.57633  0.89155  0.92327  Biso   1.000  W
  W26      1.0000 0.42367  0.10845  0.92327  Biso   1.000  W
  W27      1.0000 0.42367  0.89155  0.07673  Biso   1.000  W
  W28      1.0000 0.57633  0.10845  0.07673  Biso   1.000  W
  W29      1.0000 0.92327  0.57633  0.89155  Biso   1.000  W
  W30      1.0000 0.92327  0.42367  0.10845  Biso   1.000  W
  W31      1.0000 0.07673  0.42367  0.89155  Biso   1.000  W
  W32      1.0000 0.07673  0.57633  0.10845  Biso   1.000  W
  W33      1.0000 0.89155  0.92327  0.57633  Biso   1.000  W
  W34      1.0000 0.10845  0.92327  0.42367  Biso   1.000  W
  W35      1.0000 0.89155  0.07673  0.42367  Biso   1.000  W
  W36      1.0000 0.10845  0.07673  0.57633  Biso   1.000  W
  W37      1.0000 0.07633  0.39155  0.42327  Biso   1.000  W
  W38      1.0000 0.92367  0.60845  0.42327  Biso   1.000  W
  W39      1.0000 0.92367  0.39155  0.57673  Biso   1.000  W
  W40      1.0000 0.07633  0.60845  0.57673  Biso   1.000  W
  W41      1.0000 0.42327  0.07633  0.39155  Biso   1.000  W
  W42      1.0000 0.42327  0.92367  0.60845  Biso   1.000  W
  W43      1.0000 0.57673  0.92367  0.39155  Biso   1.000  W
  W44      1.0000 0.57673  0.07633  0.60845  Biso   1.000  W
  W45      1.0000 0.39155  0.42327  0.07633  Biso   1.000  W
  W46      1.0000 0.60845  0.42327  0.92367  Biso   1.000  W
  W47      1.0000 0.39155  0.57673  0.92367  Biso   1.000  W
  W48      1.0000 0.60845  0.57673  0.07633  Biso   1.000  W
  W49      1.0000 0.34700  0.00000  0.00000  Biso   1.000  W
  W50      1.0000 0.65300  0.00000  0.00000  Biso   1.000  W
  W51      1.0000 0.00000  0.34700  0.00000  Biso   1.000  W
  W52      1.0000 0.00000  0.65300  0.00000  Biso   1.000  W
  W53      1.0000 0.00000  0.00000  0.34700  Biso   1.000  W
  W54      1.0000 0.00000  0.00000  0.65300  Biso   1.000  W
  W55      1.0000 0.84700  0.50000  0.50000  Biso   1.000  W
  W56      1.0000 0.15300  0.50000  0.50000  Biso   1.000  W
  W57      1.0000 0.50000  0.84700  0.50000  Biso   1.000  W
  W58      1.0000 0.50000  0.15300  0.50000  Biso   1.000  W
  W59      1.0000 0.50000  0.50000  0.84700  Biso   1.000  W
  W60      1.0000 0.50000  0.50000  0.15300  Biso   1.000  W
  W61      1.0000 0.50000  0.00000  0.15383  Biso   1.000  W
  W62      1.0000 0.50000  0.00000  0.84617  Biso   1.000  W
  W63      1.0000 0.15383  0.50000  0.00000  Biso   1.000  W
  W64      1.0000 0.84617  0.50000  0.00000  Biso   1.000  W
  W65      1.0000 0.00000  0.15383  0.50000  Biso   1.000  W
  W66      1.0000 0.00000  0.84617  0.50000  Biso   1.000  W
  W67      1.0000 0.00000  0.50000  0.65383  Biso   1.000  W
  W68      1.0000 0.00000  0.50000  0.34617  Biso   1.000  W
  W69      1.0000 0.65383  0.00000  0.50000  Biso   1.000  W
  W70      1.0000 0.34617  0.00000  0.50000  Biso   1.000  W
  W71      1.0000 0.50000  0.65383  0.00000  Biso   1.000  W
  W72      1.0000 0.50000  0.34617  0.00000  Biso   1.000  W
  P1       1.0000 0.50000  0.00000  0.00000  Biso   1.000  P
  P2       1.0000 0.00000  0.50000  0.00000  Biso   1.000  P
  P3       1.0000 0.00000  0.00000  0.50000  Biso   1.000  P
  P4       1.0000 0.00000  0.50000  0.50000  Biso   1.000  P
  P5       1.0000 0.50000  0.00000  0.50000  Biso   1.000  P
  P6       1.0000 0.50000  0.50000  0.00000  Biso   1.000  P
  O1       1.0000 0.50000  0.04120  0.05360  Biso   1.000  O
  O2       1.0000 0.50000  0.95880  0.05360  Biso   1.000  O
  O3       1.0000 0.50000  0.04120  0.94640  Biso   1.000  O
  O4       1.0000 0.50000  0.95880  0.94640  Biso   1.000  O
  O5       1.0000 0.05360  0.50000  0.04120  Biso   1.000  O
  O6       1.0000 0.05360  0.50000  0.95880  Biso   1.000  O
  O7       1.0000 0.94640  0.50000  0.04120  Biso   1.000  O
  O8       1.0000 0.94640  0.50000  0.95880  Biso   1.000  O
  O9       1.0000 0.04120  0.05360  0.50000  Biso   1.000  O
  O10      1.0000 0.95880  0.05360  0.50000  Biso   1.000  O
  O11      1.0000 0.04120  0.94640  0.50000  Biso   1.000  O
  O12      1.0000 0.95880  0.94640  0.50000  Biso   1.000  O
  O13      1.0000 0.00000  0.54120  0.55360  Biso   1.000  O
  O14      1.0000 0.00000  0.45880  0.55360  Biso   1.000  O
  O15      1.0000 0.00000  0.54120  0.44640  Biso   1.000  O
  O16      1.0000 0.00000  0.45880  0.44640  Biso   1.000  O
  O17      1.0000 0.55360  0.00000  0.54120  Biso   1.000  O
  O18      1.0000 0.55360  0.00000  0.45880  Biso   1.000  O
  O19      1.0000 0.44640  0.00000  0.54120  Biso   1.000  O
  O20      1.0000 0.44640  0.00000  0.45880  Biso   1.000  O
  O21      1.0000 0.54120  0.55360  0.00000  Biso   1.000  O
  O22      1.0000 0.45880  0.55360  0.00000  Biso   1.000  O
  O23      1.0000 0.54120  0.44640  0.00000  Biso   1.000  O
  O24      1.0000 0.45880  0.44640  0.00000  Biso   1.000  O
  O25      1.0000 0.50000  0.00000  0.22630  Biso   1.000  O
  O26      1.0000 0.50000  0.00000  0.77370  Biso   1.000  O
  O27      1.0000 0.22630  0.50000  0.00000  Biso   1.000  O
  O28      1.0000 0.77370  0.50000  0.00000  Biso   1.000  O
  O29      1.0000 0.00000  0.22630  0.50000  Biso   1.000  O
  O30      1.0000 0.00000  0.77370  0.50000  Biso   1.000  O
  O31      1.0000 0.00000  0.50000  0.72630  Biso   1.000  O
  O32      1.0000 0.00000  0.50000  0.27370  Biso   1.000  O
  O33      1.0000 0.72630  0.00000  0.50000  Biso   1.000  O
  O34      1.0000 0.27370  0.00000  0.50000  Biso   1.000  O
  O35      1.0000 0.50000  0.72630  0.00000  Biso   1.000  O
  O36      1.0000 0.50000  0.27370  0.00000  Biso   1.000  O
  O37      1.0000 0.44360  0.05630  0.13680  Biso   1.000  O
  O38      1.0000 0.55640  0.94370  0.13680  Biso   1.000  O
  O39      1.0000 0.55640  0.05630  0.86320  Biso   1.000  O
  O40      1.0000 0.44360  0.94370  0.86320  Biso   1.000  O
  O41      1.0000 0.13680  0.44360  0.05630  Biso   1.000  O
  O42      1.0000 0.13680  0.55640  0.94370  Biso   1.000  O
  O43      1.0000 0.86320  0.55640  0.05630  Biso   1.000  O
  O44      1.0000 0.86320  0.44360  0.94370  Biso   1.000  O
  O45      1.0000 0.05630  0.13680  0.44360  Biso   1.000  O
  O46      1.0000 0.94370  0.13680  0.55640  Biso   1.000  O
  O47      1.0000 0.05630  0.86320  0.55640  Biso   1.000  O
  O48      1.0000 0.94370  0.86320  0.44360  Biso   1.000  O
  O49      1.0000 0.94360  0.55630  0.63680  Biso   1.000  O
  O50      1.0000 0.05640  0.44370  0.63680  Biso   1.000  O
  O51      1.0000 0.05640  0.55630  0.36320  Biso   1.000  O
  O52      1.0000 0.94360  0.44370  0.36320  Biso   1.000  O
  O53      1.0000 0.63680  0.94360  0.55630  Biso   1.000  O
  O54      1.0000 0.63680  0.05640  0.44370  Biso   1.000  O
  O55      1.0000 0.36320  0.05640  0.55630  Biso   1.000  O
  O56      1.0000 0.36320  0.94360  0.44370  Biso   1.000  O
  O57      1.0000 0.55630  0.63680  0.94360  Biso   1.000  O
  O58      1.0000 0.44370  0.63680  0.05640  Biso   1.000  O
  O59      1.0000 0.55630  0.36320  0.05640  Biso   1.000  O
  O60      1.0000 0.44370  0.36320  0.94360  Biso   1.000  O
  O61      1.0000 0.55640  0.94370  0.86320  Biso   1.000  O
  O62      1.0000 0.44360  0.05630  0.86320  Biso   1.000  O
  O63      1.0000 0.44360  0.94370  0.13680  Biso   1.000  O
  O64      1.0000 0.55640  0.05630  0.13680  Biso   1.000  O
  O65      1.0000 0.86320  0.55640  0.94370  Biso   1.000  O
  O66      1.0000 0.86320  0.44360  0.05630  Biso   1.000  O
  O67      1.0000 0.13680  0.44360  0.94370  Biso   1.000  O
  O68      1.0000 0.13680  0.55640  0.05630  Biso   1.000  O
  O69      1.0000 0.94370  0.86320  0.55640  Biso   1.000  O
  O70      1.0000 0.05630  0.86320  0.44360  Biso   1.000  O
  O71      1.0000 0.94370  0.13680  0.44360  Biso   1.000  O
  O72      1.0000 0.05630  0.13680  0.55640  Biso   1.000  O
  O73      1.0000 0.05640  0.44370  0.36320  Biso   1.000  O
  O74      1.0000 0.94360  0.55630  0.36320  Biso   1.000  O
  O75      1.0000 0.94360  0.44370  0.63680  Biso   1.000  O
  O76      1.0000 0.05640  0.55630  0.63680  Biso   1.000  O
  O77      1.0000 0.36320  0.05640  0.44370  Biso   1.000  O
  O78      1.0000 0.36320  0.94360  0.55630  Biso   1.000  O
  O79      1.0000 0.63680  0.94360  0.44370  Biso   1.000  O
  O80      1.0000 0.63680  0.05640  0.55630  Biso   1.000  O
  O81      1.0000 0.44370  0.36320  0.05640  Biso   1.000  O
  O82      1.0000 0.55630  0.36320  0.94360  Biso   1.000  O
  O83      1.0000 0.44370  0.63680  0.94360  Biso   1.000  O
  O84      1.0000 0.55630  0.63680  0.05640  Biso   1.000  O
  O85      1.0000 0.50000  0.13680  0.08190  Biso   1.000  O
  O86      1.0000 0.50000  0.86320  0.08190  Biso   1.000  O
  O87      1.0000 0.50000  0.13680  0.91810  Biso   1.000  O
  O88      1.0000 0.50000  0.86320  0.91810  Biso   1.000  O
  O89      1.0000 0.08190  0.50000  0.13680  Biso   1.000  O
  O90      1.0000 0.08190  0.50000  0.86320  Biso   1.000  O
  O91      1.0000 0.91810  0.50000  0.13680  Biso   1.000  O
  O92      1.0000 0.91810  0.50000  0.86320  Biso   1.000  O
  O93      1.0000 0.13680  0.08190  0.50000  Biso   1.000  O
  O94      1.0000 0.86320  0.08190  0.50000  Biso   1.000  O
  O95      1.0000 0.13680  0.91810  0.50000  Biso   1.000  O
  O96      1.0000 0.86320  0.91810  0.50000  Biso   1.000  O
  O97      1.0000 0.00000  0.63680  0.58190  Biso   1.000  O
  O98      1.0000 0.00000  0.36320  0.58190  Biso   1.000  O
  O99      1.0000 0.00000  0.63680  0.41810  Biso   1.000  O
  O100     1.0000 0.00000  0.36320  0.41810  Biso   1.000  O
  O101     1.0000 0.58190  0.00000  0.63680  Biso   1.000  O
  O102     1.0000 0.58190  0.00000  0.36320  Biso   1.000  O
  O103     1.0000 0.41810  0.00000  0.63680  Biso   1.000  O
  O104     1.0000 0.41810  0.00000  0.36320  Biso   1.000  O
  O105     1.0000 0.63680  0.58190  0.00000  Biso   1.000  O
  O106     1.0000 0.36320  0.58190  0.00000  Biso   1.000  O
  O107     1.0000 0.63680  0.41810  0.00000  Biso   1.000  O
  O108     1.0000 0.36320  0.41810  0.00000  Biso   1.000  O
  O109     1.0000 0.41970  0.13450  0.00000  Biso   1.000  O
  O110     1.0000 0.58030  0.86550  0.00000  Biso   1.000  O
  O111     1.0000 0.58030  0.13450  0.00000  Biso   1.000  O
  O112     1.0000 0.41970  0.86550  0.00000  Biso   1.000  O
  O113     1.0000 0.00000  0.41970  0.13450  Biso   1.000  O
  O114     1.0000 0.00000  0.58030  0.86550  Biso   1.000  O
  O115     1.0000 0.00000  0.58030  0.13450  Biso   1.000  O
  O116     1.0000 0.00000  0.41970  0.86550  Biso   1.000  O
  O117     1.0000 0.13450  0.00000  0.41970  Biso   1.000  O
  O118     1.0000 0.86550  0.00000  0.58030  Biso   1.000  O
  O119     1.0000 0.13450  0.00000  0.58030  Biso   1.000  O
  O120     1.0000 0.86550  0.00000  0.41970  Biso   1.000  O
  O121     1.0000 0.91970  0.63450  0.50000  Biso   1.000  O
  O122     1.0000 0.08030  0.36550  0.50000  Biso   1.000  O
  O123     1.0000 0.08030  0.63450  0.50000  Biso   1.000  O
  O124     1.0000 0.91970  0.36550  0.50000  Biso   1.000  O
  O125     1.0000 0.50000  0.91970  0.63450  Biso   1.000  O
  O126     1.0000 0.50000  0.08030  0.36550  Biso   1.000  O
  O127     1.0000 0.50000  0.08030  0.63450  Biso   1.000  O
  O128     1.0000 0.50000  0.91970  0.36550  Biso   1.000  O
  O129     1.0000 0.63450  0.50000  0.91970  Biso   1.000  O
  O130     1.0000 0.36550  0.50000  0.08030  Biso   1.000  O
  O131     1.0000 0.63450  0.50000  0.08030  Biso   1.000  O
  O132     1.0000 0.36550  0.50000  0.91970  Biso   1.000  O
  O133     1.0000 0.36490  0.05710  0.05690  Biso   1.000  O
  O134     1.0000 0.63510  0.94290  0.05690  Biso   1.000  O
  O135     1.0000 0.63510  0.05710  0.94310  Biso   1.000  O
  O136     1.0000 0.36490  0.94290  0.94310  Biso   1.000  O
  O137     1.0000 0.05690  0.36490  0.05710  Biso   1.000  O
  O138     1.0000 0.05690  0.63510  0.94290  Biso   1.000  O
  O139     1.0000 0.94310  0.63510  0.05710  Biso   1.000  O
  O140     1.0000 0.94310  0.36490  0.94290  Biso   1.000  O
  O141     1.0000 0.05710  0.05690  0.36490  Biso   1.000  O
  O142     1.0000 0.94290  0.05690  0.63510  Biso   1.000  O
  O143     1.0000 0.05710  0.94310  0.63510  Biso   1.000  O
  O144     1.0000 0.94290  0.94310  0.36490  Biso   1.000  O
  O145     1.0000 0.86490  0.55710  0.55690  Biso   1.000  O
  O146     1.0000 0.13510  0.44290  0.55690  Biso   1.000  O
  O147     1.0000 0.13510  0.55710  0.44310  Biso   1.000  O
  O148     1.0000 0.86490  0.44290  0.44310  Biso   1.000  O
  O149     1.0000 0.55690  0.86490  0.55710  Biso   1.000  O
  O150     1.0000 0.55690  0.13510  0.44290  Biso   1.000  O
  O151     1.0000 0.44310  0.13510  0.55710  Biso   1.000  O
  O152     1.0000 0.44310  0.86490  0.44290  Biso   1.000  O
  O153     1.0000 0.55710  0.55690  0.86490  Biso   1.000  O
  O154     1.0000 0.44290  0.55690  0.13510  Biso   1.000  O
  O155     1.0000 0.55710  0.44310  0.13510  Biso   1.000  O
  O156     1.0000 0.44290  0.44310  0.86490  Biso   1.000  O
  O157     1.0000 0.63510  0.94290  0.94310  Biso   1.000  O
  O158     1.0000 0.36490  0.05710  0.94310  Biso   1.000  O
  O159     1.0000 0.36490  0.94290  0.05690  Biso   1.000  O
  O160     1.0000 0.63510  0.05710  0.05690  Biso   1.000  O
  O161     1.0000 0.94310  0.63510  0.94290  Biso   1.000  O
  O162     1.0000 0.94310  0.36490  0.05710  Biso   1.000  O
  O163     1.0000 0.05690  0.36490  0.94290  Biso   1.000  O
  O164     1.0000 0.05690  0.63510  0.05710  Biso   1.000  O
  O165     1.0000 0.94290  0.94310  0.63510  Biso   1.000  O
  O166     1.0000 0.05710  0.94310  0.36490  Biso   1.000  O
  O167     1.0000 0.94290  0.05690  0.36490  Biso   1.000  O
  O168     1.0000 0.05710  0.05690  0.63510  Biso   1.000  O
  O169     1.0000 0.13510  0.44290  0.44310  Biso   1.000  O
  O170     1.0000 0.86490  0.55710  0.44310  Biso   1.000  O
  O171     1.0000 0.86490  0.44290  0.55690  Biso   1.000  O
  O172     1.0000 0.13510  0.55710  0.55690  Biso   1.000  O
  O173     1.0000 0.44310  0.13510  0.44290  Biso   1.000  O
  O174     1.0000 0.44310  0.86490  0.55710  Biso   1.000  O
  O175     1.0000 0.55690  0.86490  0.44290  Biso   1.000  O
  O176     1.0000 0.55690  0.13510  0.55710  Biso   1.000  O
  O177     1.0000 0.44290  0.44310  0.13510  Biso   1.000  O
  O178     1.0000 0.55710  0.44310  0.86490  Biso   1.000  O
  O179     1.0000 0.44290  0.55690  0.86490  Biso   1.000  O
  O180     1.0000 0.55710  0.55690  0.13510  Biso   1.000  O
  O181     1.0000 0.38840  0.16020  0.11110  Biso   1.000  O
  O182     1.0000 0.61160  0.83980  0.11110  Biso   1.000  O
  O183     1.0000 0.61160  0.16020  0.88890  Biso   1.000  O
  O184     1.0000 0.38840  0.83980  0.88890  Biso   1.000  O
  O185     1.0000 0.11110  0.38840  0.16020  Biso   1.000  O
  O186     1.0000 0.11110  0.61160  0.83980  Biso   1.000  O
  O187     1.0000 0.88890  0.61160  0.16020  Biso   1.000  O
  O188     1.0000 0.88890  0.38840  0.83980  Biso   1.000  O
  O189     1.0000 0.16020  0.11110  0.38840  Biso   1.000  O
  O190     1.0000 0.83980  0.11110  0.61160  Biso   1.000  O
  O191     1.0000 0.16020  0.88890  0.61160  Biso   1.000  O
  O192     1.0000 0.83980  0.88890  0.38840  Biso   1.000  O
  O193     1.0000 0.88840  0.66020  0.61110  Biso   1.000  O
  O194     1.0000 0.11160  0.33980  0.61110  Biso   1.000  O
  O195     1.0000 0.11160  0.66020  0.38890  Biso   1.000  O
  O196     1.0000 0.88840  0.33980  0.38890  Biso   1.000  O
  O197     1.0000 0.61110  0.88840  0.66020  Biso   1.000  O
  O198     1.0000 0.61110  0.11160  0.33980  Biso   1.000  O
  O199     1.0000 0.38890  0.11160  0.66020  Biso   1.000  O
  O200     1.0000 0.38890  0.88840  0.33980  Biso   1.000  O
  O201     1.0000 0.66020  0.61110  0.88840  Biso   1.000  O
  O202     1.0000 0.33980  0.61110  0.11160  Biso   1.000  O
  O203     1.0000 0.66020  0.38890  0.11160  Biso   1.000  O
  O204     1.0000 0.33980  0.38890  0.88840  Biso   1.000  O
  O205     1.0000 0.61160  0.83980  0.88890  Biso   1.000  O
  O206     1.0000 0.38840  0.16020  0.88890  Biso   1.000  O
  O207     1.0000 0.38840  0.83980  0.11110  Biso   1.000  O
  O208     1.0000 0.61160  0.16020  0.11110  Biso   1.000  O
  O209     1.0000 0.88890  0.61160  0.83980  Biso   1.000  O
  O210     1.0000 0.88890  0.38840  0.16020  Biso   1.000  O
  O211     1.0000 0.11110  0.38840  0.83980  Biso   1.000  O
  O212     1.0000 0.11110  0.61160  0.16020  Biso   1.000  O
  O213     1.0000 0.83980  0.88890  0.61160  Biso   1.000  O
  O214     1.0000 0.16020  0.88890  0.38840  Biso   1.000  O
  O215     1.0000 0.83980  0.11110  0.38840  Biso   1.000  O
  O216     1.0000 0.16020  0.11110  0.61160  Biso   1.000  O
  O217     1.0000 0.11160  0.33980  0.38890  Biso   1.000  O
  O218     1.0000 0.88840  0.66020  0.38890  Biso   1.000  O
  O219     1.0000 0.88840  0.33980  0.61110  Biso   1.000  O
  O220     1.0000 0.11160  0.66020  0.61110  Biso   1.000  O
  O221     1.0000 0.38890  0.11160  0.33980  Biso   1.000  O
  O222     1.0000 0.38890  0.88840  0.66020  Biso   1.000  O
  O223     1.0000 0.61110  0.88840  0.33980  Biso   1.000  O
  O224     1.0000 0.61110  0.11160  0.66020  Biso   1.000  O
  O225     1.0000 0.33980  0.38890  0.11160  Biso   1.000  O
  O226     1.0000 0.66020  0.38890  0.88840  Biso   1.000  O
  O227     1.0000 0.33980  0.61110  0.88840  Biso   1.000  O
  O228     1.0000 0.66020  0.61110  0.11160  Biso   1.000  O
  O229     1.0000 0.27610  0.00000  0.00000  Biso   1.000  O
  O230     1.0000 0.72390  0.00000  0.00000  Biso   1.000  O
  O231     1.0000 0.00000  0.27610  0.00000  Biso   1.000  O
  O232     1.0000 0.00000  0.72390  0.00000  Biso   1.000  O
  O233     1.0000 0.00000  0.00000  0.27610  Biso   1.000  O
  O234     1.0000 0.00000  0.00000  0.72390  Biso   1.000  O
  O235     1.0000 0.77610  0.50000  0.50000  Biso   1.000  O
  O236     1.0000 0.22390  0.50000  0.50000  Biso   1.000  O
  O237     1.0000 0.50000  0.77610  0.50000  Biso   1.000  O
  O238     1.0000 0.50000  0.22390  0.50000  Biso   1.000  O
  O239     1.0000 0.50000  0.50000  0.77610  Biso   1.000  O
  O240     1.0000 0.50000  0.50000  0.22390  Biso   1.000  O
  Cu1      1.0000 0.25000  0.25000  0.25000  Biso   1.000  Cu
  Cu2      1.0000 0.75000  0.75000  0.25000  Biso   1.000  Cu
  Cu3      1.0000 0.75000  0.25000  0.75000  Biso   1.000  Cu
  Cu4      1.0000 0.25000  0.75000  0.75000  Biso   1.000  Cu
  Cu5      1.0000 0.75000  0.75000  0.75000  Biso   1.000  Cu
  Cu6      1.0000 0.25000  0.25000  0.75000  Biso   1.000  Cu
  Cu7      1.0000 0.25000  0.75000  0.25000  Biso   1.000  Cu
  Cu8      1.0000 0.75000  0.25000  0.25000  Biso   1.000  Cu
  O241     1.0000 0.32400  0.22320  0.29190  Biso   1.000  O
  O242     1.0000 0.67600  0.77680  0.29190  Biso   1.000  O
  O243     1.0000 0.67600  0.22320  0.70810  Biso   1.000  O
  O244     1.0000 0.32400  0.77680  0.70810  Biso   1.000  O
  O245     1.0000 0.29190  0.32400  0.22320  Biso   1.000  O
  O246     1.0000 0.29190  0.67600  0.77680  Biso   1.000  O
  O247     1.0000 0.70810  0.67600  0.22320  Biso   1.000  O
  O248     1.0000 0.70810  0.32400  0.77680  Biso   1.000  O
  O249     1.0000 0.22320  0.29190  0.32400  Biso   1.000  O
  O250     1.0000 0.77680  0.29190  0.67600  Biso   1.000  O
  O251     1.0000 0.22320  0.70810  0.67600  Biso   1.000  O
  O252     1.0000 0.77680  0.70810  0.32400  Biso   1.000  O
  O253     1.0000 0.82400  0.72320  0.79190  Biso   1.000  O
  O254     1.0000 0.17600  0.27680  0.79190  Biso   1.000  O
  O255     1.0000 0.17600  0.72320  0.20810  Biso   1.000  O
  O256     1.0000 0.82400  0.27680  0.20810  Biso   1.000  O
  O257     1.0000 0.79190  0.82400  0.72320  Biso   1.000  O
  O258     1.0000 0.79190  0.17600  0.27680  Biso   1.000  O
  O259     1.0000 0.20810  0.17600  0.72320  Biso   1.000  O
  O260     1.0000 0.20810  0.82400  0.27680  Biso   1.000  O
  O261     1.0000 0.72320  0.79190  0.82400  Biso   1.000  O
  O262     1.0000 0.27680  0.79190  0.17600  Biso   1.000  O
  O263     1.0000 0.72320  0.20810  0.17600  Biso   1.000  O
  O264     1.0000 0.27680  0.20810  0.82400  Biso   1.000  O
  O265     1.0000 0.67600  0.77680  0.70810  Biso   1.000  O
  O266     1.0000 0.32400  0.22320  0.70810  Biso   1.000  O
  O267     1.0000 0.32400  0.77680  0.29190  Biso   1.000  O
  O268     1.0000 0.67600  0.22320  0.29190  Biso   1.000  O
  O269     1.0000 0.70810  0.67600  0.77680  Biso   1.000  O
  O270     1.0000 0.70810  0.32400  0.22320  Biso   1.000  O
  O271     1.0000 0.29190  0.32400  0.77680  Biso   1.000  O
  O272     1.0000 0.29190  0.67600  0.22320  Biso   1.000  O
  O273     1.0000 0.77680  0.70810  0.67600  Biso   1.000  O
  O274     1.0000 0.22320  0.70810  0.32400  Biso   1.000  O
  O275     1.0000 0.77680  0.29190  0.32400  Biso   1.000  O
  O276     1.0000 0.22320  0.29190  0.67600  Biso   1.000  O
  O277     1.0000 0.17600  0.27680  0.20810  Biso   1.000  O
  O278     1.0000 0.82400  0.72320  0.20810  Biso   1.000  O
  O279     1.0000 0.82400  0.27680  0.79190  Biso   1.000  O
  O280     1.0000 0.17600  0.72320  0.79190  Biso   1.000  O
  O281     1.0000 0.20810  0.17600  0.27680  Biso   1.000  O
  O282     1.0000 0.20810  0.82400  0.72320  Biso   1.000  O
  O283     1.0000 0.79190  0.82400  0.27680  Biso   1.000  O
  O284     1.0000 0.79190  0.17600  0.72320  Biso   1.000  O
  O285     1.0000 0.27680  0.20810  0.17600  Biso   1.000  O
  O286     1.0000 0.72320  0.20810  0.82400  Biso   1.000  O
  O287     1.0000 0.27680  0.79190  0.82400  Biso   1.000  O
  O288     1.0000 0.72320  0.79190  0.17600  Biso   1.000  O
  N1       1.0000 0.32400  0.22100  0.34920  Biso   1.000  N
  N2       1.0000 0.67600  0.77900  0.34920  Biso   1.000  N
  N3       1.0000 0.67600  0.22100  0.65080  Biso   1.000  N
  N4       1.0000 0.32400  0.77900  0.65080  Biso   1.000  N
  N5       1.0000 0.34920  0.32400  0.22100  Biso   1.000  N
  N6       1.0000 0.34920  0.67600  0.77900  Biso   1.000  N
  N7       1.0000 0.65080  0.67600  0.22100  Biso   1.000  N
  N8       1.0000 0.65080  0.32400  0.77900  Biso   1.000  N
  N9       1.0000 0.22100  0.34920  0.32400  Biso   1.000  N
  N10      1.0000 0.77900  0.34920  0.67600  Biso   1.000  N
  N11      1.0000 0.22100  0.65080  0.67600  Biso   1.000  N
  N12      1.0000 0.77900  0.65080  0.32400  Biso   1.000  N
  N13      1.0000 0.82400  0.72100  0.84920  Biso   1.000  N
  N14      1.0000 0.17600  0.27900  0.84920  Biso   1.000  N
  N15      1.0000 0.17600  0.72100  0.15080  Biso   1.000  N
  N16      1.0000 0.82400  0.27900  0.15080  Biso   1.000  N
  N17      1.0000 0.84920  0.82400  0.72100  Biso   1.000  N
  N18      1.0000 0.84920  0.17600  0.27900  Biso   1.000  N
  N19      1.0000 0.15080  0.17600  0.72100  Biso   1.000  N
  N20      1.0000 0.15080  0.82400  0.27900  Biso   1.000  N
  N21      1.0000 0.72100  0.84920  0.82400  Biso   1.000  N
  N22      1.0000 0.27900  0.84920  0.17600  Biso   1.000  N
  N23      1.0000 0.72100  0.15080  0.17600  Biso   1.000  N
  N24      1.0000 0.27900  0.15080  0.82400  Biso   1.000  N
  N25      1.0000 0.67600  0.77900  0.65080  Biso   1.000  N
  N26      1.0000 0.32400  0.22100  0.65080  Biso   1.000  N
  N27      1.0000 0.32400  0.77900  0.34920  Biso   1.000  N
  N28      1.0000 0.67600  0.22100  0.34920  Biso   1.000  N
  N29      1.0000 0.65080  0.67600  0.77900  Biso   1.000  N
  N30      1.0000 0.65080  0.32400  0.22100  Biso   1.000  N
  N31      1.0000 0.34920  0.32400  0.77900  Biso   1.000  N
  N32      1.0000 0.34920  0.67600  0.22100  Biso   1.000  N
  N33      1.0000 0.77900  0.65080  0.67600  Biso   1.000  N
  N34      1.0000 0.22100  0.65080  0.32400  Biso   1.000  N
  N35      1.0000 0.77900  0.34920  0.32400  Biso   1.000  N
  N36      1.0000 0.22100  0.34920  0.67600  Biso   1.000  N
  N37      1.0000 0.17600  0.27900  0.15080  Biso   1.000  N
  N38      1.0000 0.82400  0.72100  0.15080  Biso   1.000  N
  N39      1.0000 0.82400  0.27900  0.84920  Biso   1.000  N
  N40      1.0000 0.17600  0.72100  0.84920  Biso   1.000  N
  N41      1.0000 0.15080  0.17600  0.27900  Biso   1.000  N
  N42      1.0000 0.15080  0.82400  0.72100  Biso   1.000  N
  N43      1.0000 0.84920  0.82400  0.27900  Biso   1.000  N
  N44      1.0000 0.84920  0.17600  0.72100  Biso   1.000  N
  N45      1.0000 0.27900  0.15080  0.17600  Biso   1.000  N
  N46      1.0000 0.72100  0.15080  0.82400  Biso   1.000  N
  N47      1.0000 0.27900  0.84920  0.82400  Biso   1.000  N
  N48      1.0000 0.72100  0.84920  0.17600  Biso   1.000  N
  C1       1.0000 0.36200  0.25280  0.37810  Biso   1.000  C
  C2       1.0000 0.63800  0.74720  0.37810  Biso   1.000  C
  C3       1.0000 0.63800  0.25280  0.62190  Biso   1.000  C
  C4       1.0000 0.36200  0.74720  0.62190  Biso   1.000  C
  C5       1.0000 0.37810  0.36200  0.25280  Biso   1.000  C
  C6       1.0000 0.37810  0.63800  0.74720  Biso   1.000  C
  C7       1.0000 0.62190  0.63800  0.25280  Biso   1.000  C
  C8       1.0000 0.62190  0.36200  0.74720  Biso   1.000  C
  C9       1.0000 0.25280  0.37810  0.36200  Biso   1.000  C
  C10      1.0000 0.74720  0.37810  0.63800  Biso   1.000  C
  C11      1.0000 0.25280  0.62190  0.63800  Biso   1.000  C
  C12      1.0000 0.74720  0.62190  0.36200  Biso   1.000  C
  C13      1.0000 0.86200  0.75280  0.87810  Biso   1.000  C
  C14      1.0000 0.13800  0.24720  0.87810  Biso   1.000  C
  C15      1.0000 0.13800  0.75280  0.12190  Biso   1.000  C
  C16      1.0000 0.86200  0.24720  0.12190  Biso   1.000  C
  C17      1.0000 0.87810  0.86200  0.75280  Biso   1.000  C
  C18      1.0000 0.87810  0.13800  0.24720  Biso   1.000  C
  C19      1.0000 0.12190  0.13800  0.75280  Biso   1.000  C
  C20      1.0000 0.12190  0.86200  0.24720  Biso   1.000  C
  C21      1.0000 0.75280  0.87810  0.86200  Biso   1.000  C
  C22      1.0000 0.24720  0.87810  0.13800  Biso   1.000  C
  C23      1.0000 0.75280  0.12190  0.13800  Biso   1.000  C
  C24      1.0000 0.24720  0.12190  0.86200  Biso   1.000  C
  C25      1.0000 0.63800  0.74720  0.62190  Biso   1.000  C
  C26      1.0000 0.36200  0.25280  0.62190  Biso   1.000  C
  C27      1.0000 0.36200  0.74720  0.37810  Biso   1.000  C
  C28      1.0000 0.63800  0.25280  0.37810  Biso   1.000  C
  C29      1.0000 0.62190  0.63800  0.74720  Biso   1.000  C
  C30      1.0000 0.62190  0.36200  0.25280  Biso   1.000  C
  C31      1.0000 0.37810  0.36200  0.74720  Biso   1.000  C
  C32      1.0000 0.37810  0.63800  0.25280  Biso   1.000  C
  C33      1.0000 0.74720  0.62190  0.63800  Biso   1.000  C
  C34      1.0000 0.25280  0.62190  0.36200  Biso   1.000  C
  C35      1.0000 0.74720  0.37810  0.36200  Biso   1.000  C
  C36      1.0000 0.25280  0.37810  0.63800  Biso   1.000  C
  C37      1.0000 0.13800  0.24720  0.12190  Biso   1.000  C
  C38      1.0000 0.86200  0.75280  0.12190  Biso   1.000  C
  C39      1.0000 0.86200  0.24720  0.87810  Biso   1.000  C
  C40      1.0000 0.13800  0.75280  0.87810  Biso   1.000  C
  C41      1.0000 0.12190  0.13800  0.24720  Biso   1.000  C
  C42      1.0000 0.12190  0.86200  0.75280  Biso   1.000  C
  C43      1.0000 0.87810  0.86200  0.24720  Biso   1.000  C
  C44      1.0000 0.87810  0.13800  0.75280  Biso   1.000  C
  C45      1.0000 0.24720  0.12190  0.13800  Biso   1.000  C
  C46      1.0000 0.75280  0.12190  0.86200  Biso   1.000  C
  C47      1.0000 0.24720  0.87810  0.86200  Biso   1.000  C
  C48      1.0000 0.75280  0.87810  0.13800  Biso   1.000  C
  H1       1.0000 0.38760  0.27610  0.35780  Biso   1.000  H
  H2       1.0000 0.61240  0.72390  0.35780  Biso   1.000  H
  H3       1.0000 0.61240  0.27610  0.64220  Biso   1.000  H
  H4       1.0000 0.38760  0.72390  0.64220  Biso   1.000  H
  H5       1.0000 0.35780  0.38760  0.27610  Biso   1.000  H
  H6       1.0000 0.35780  0.61240  0.72390  Biso   1.000  H
  H7       1.0000 0.64220  0.61240  0.27610  Biso   1.000  H
  H8       1.0000 0.64220  0.38760  0.72390  Biso   1.000  H
  H9       1.0000 0.27610  0.35780  0.38760  Biso   1.000  H
  H10      1.0000 0.72390  0.35780  0.61240  Biso   1.000  H
  H11      1.0000 0.27610  0.64220  0.61240  Biso   1.000  H
  H12      1.0000 0.72390  0.64220  0.38760  Biso   1.000  H
  H13      1.0000 0.88760  0.77610  0.85780  Biso   1.000  H
  H14      1.0000 0.11240  0.22390  0.85780  Biso   1.000  H
  H15      1.0000 0.11240  0.77610  0.14220  Biso   1.000  H
  H16      1.0000 0.88760  0.22390  0.14220  Biso   1.000  H
  H17      1.0000 0.85780  0.88760  0.77610  Biso   1.000  H
  H18      1.0000 0.85780  0.11240  0.22390  Biso   1.000  H
  H19      1.0000 0.14220  0.11240  0.77610  Biso   1.000  H
  H20      1.0000 0.14220  0.88760  0.22390  Biso   1.000  H
  H21      1.0000 0.77610  0.85780  0.88760  Biso   1.000  H
  H22      1.0000 0.22390  0.85780  0.11240  Biso   1.000  H
  H23      1.0000 0.77610  0.14220  0.11240  Biso   1.000  H
  H24      1.0000 0.22390  0.14220  0.88760  Biso   1.000  H
  H25      1.0000 0.61240  0.72390  0.64220  Biso   1.000  H
  H26      1.0000 0.38760  0.27610  0.64220  Biso   1.000  H
  H27      1.0000 0.38760  0.72390  0.35780  Biso   1.000  H
  H28      1.0000 0.61240  0.27610  0.35780  Biso   1.000  H
  H29      1.0000 0.64220  0.61240  0.72390  Biso   1.000  H
  H30      1.0000 0.64220  0.38760  0.27610  Biso   1.000  H
  H31      1.0000 0.35780  0.38760  0.72390  Biso   1.000  H
  H32      1.0000 0.35780  0.61240  0.27610  Biso   1.000  H
  H33      1.0000 0.72390  0.64220  0.61240  Biso   1.000  H
  H34      1.0000 0.27610  0.64220  0.38760  Biso   1.000  H
  H35      1.0000 0.72390  0.35780  0.38760  Biso   1.000  H
  H36      1.0000 0.27610  0.35780  0.61240  Biso   1.000  H
  H37      1.0000 0.11240  0.22390  0.14220  Biso   1.000  H
  H38      1.0000 0.88760  0.77610  0.14220  Biso   1.000  H
  H39      1.0000 0.88760  0.22390  0.85780  Biso   1.000  H
  H40      1.0000 0.11240  0.77610  0.85780  Biso   1.000  H
  H41      1.0000 0.14220  0.11240  0.22390  Biso   1.000  H
  H42      1.0000 0.14220  0.88760  0.77610  Biso   1.000  H
  H43      1.0000 0.85780  0.88760  0.22390  Biso   1.000  H
  H44      1.0000 0.85780  0.11240  0.77610  Biso   1.000  H
  H45      1.0000 0.22390  0.14220  0.11240  Biso   1.000  H
  H46      1.0000 0.77610  0.14220  0.88760  Biso   1.000  H
  H47      1.0000 0.22390  0.85780  0.88760  Biso   1.000  H
  H48      1.0000 0.77610  0.85780  0.11240  Biso   1.000  H
  C49      1.0000 0.36410  0.25200  0.43590  Biso   1.000  C
  C50      1.0000 0.63590  0.74800  0.43590  Biso   1.000  C
  C51      1.0000 0.63590  0.25200  0.56410  Biso   1.000  C
  C52      1.0000 0.36410  0.74800  0.56410  Biso   1.000  C
  C53      1.0000 0.43590  0.36410  0.25200  Biso   1.000  C
  C54      1.0000 0.43590  0.63590  0.74800  Biso   1.000  C
  C55      1.0000 0.56410  0.63590  0.25200  Biso   1.000  C
  C56      1.0000 0.56410  0.36410  0.74800  Biso   1.000  C
  C57      1.0000 0.25200  0.43590  0.36410  Biso   1.000  C
  C58      1.0000 0.74800  0.43590  0.63590  Biso   1.000  C
  C59      1.0000 0.25200  0.56410  0.63590  Biso   1.000  C
  C60      1.0000 0.74800  0.56410  0.36410  Biso   1.000  C
  C61      1.0000 0.86410  0.75200  0.93590  Biso   1.000  C
  C62      1.0000 0.13590  0.24800  0.93590  Biso   1.000  C
  C63      1.0000 0.13590  0.75200  0.06410  Biso   1.000  C
  C64      1.0000 0.86410  0.24800  0.06410  Biso   1.000  C
  C65      1.0000 0.93590  0.86410  0.75200  Biso   1.000  C
  C66      1.0000 0.93590  0.13590  0.24800  Biso   1.000  C
  C67      1.0000 0.06410  0.13590  0.75200  Biso   1.000  C
  C68      1.0000 0.06410  0.86410  0.24800  Biso   1.000  C
  C69      1.0000 0.75200  0.93590  0.86410  Biso   1.000  C
  C70      1.0000 0.24800  0.93590  0.13590  Biso   1.000  C
  C71      1.0000 0.75200  0.06410  0.13590  Biso   1.000  C
  C72      1.0000 0.24800  0.06410  0.86410  Biso   1.000  C
  C73      1.0000 0.63590  0.74800  0.56410  Biso   1.000  C
  C74      1.0000 0.36410  0.25200  0.56410  Biso   1.000  C
  C75      1.0000 0.36410  0.74800  0.43590  Biso   1.000  C
  C76      1.0000 0.63590  0.25200  0.43590  Biso   1.000  C
  C77      1.0000 0.56410  0.63590  0.74800  Biso   1.000  C
  C78      1.0000 0.56410  0.36410  0.25200  Biso   1.000  C
  C79      1.0000 0.43590  0.36410  0.74800  Biso   1.000  C
  C80      1.0000 0.43590  0.63590  0.25200  Biso   1.000  C
  C81      1.0000 0.74800  0.56410  0.63590  Biso   1.000  C
  C82      1.0000 0.25200  0.56410  0.36410  Biso   1.000  C
  C83      1.0000 0.74800  0.43590  0.36410  Biso   1.000  C
  C84      1.0000 0.25200  0.43590  0.63590  Biso   1.000  C
  C85      1.0000 0.13590  0.24800  0.06410  Biso   1.000  C
  C86      1.0000 0.86410  0.75200  0.06410  Biso   1.000  C
  C87      1.0000 0.86410  0.24800  0.93590  Biso   1.000  C
  C88      1.0000 0.13590  0.75200  0.93590  Biso   1.000  C
  C89      1.0000 0.06410  0.13590  0.24800  Biso   1.000  C
  C90      1.0000 0.06410  0.86410  0.75200  Biso   1.000  C
  C91      1.0000 0.93590  0.86410  0.24800  Biso   1.000  C
  C92      1.0000 0.93590  0.13590  0.75200  Biso   1.000  C
  C93      1.0000 0.24800  0.06410  0.13590  Biso   1.000  C
  C94      1.0000 0.75200  0.06410  0.86410  Biso   1.000  C
  C95      1.0000 0.24800  0.93590  0.86410  Biso   1.000  C
  C96      1.0000 0.75200  0.93590  0.13590  Biso   1.000  C
  H49      1.0000 0.39070  0.27510  0.45490  Biso   1.000  H
  H50      1.0000 0.60930  0.72490  0.45490  Biso   1.000  H
  H51      1.0000 0.60930  0.27510  0.54510  Biso   1.000  H
  H52      1.0000 0.39070  0.72490  0.54510  Biso   1.000  H
  H53      1.0000 0.45490  0.39070  0.27510  Biso   1.000  H
  H54      1.0000 0.45490  0.60930  0.72490  Biso   1.000  H
  H55      1.0000 0.54510  0.60930  0.27510  Biso   1.000  H
  H56      1.0000 0.54510  0.39070  0.72490  Biso   1.000  H
  H57      1.0000 0.27510  0.45490  0.39070  Biso   1.000  H
  H58      1.0000 0.72490  0.45490  0.60930  Biso   1.000  H
  H59      1.0000 0.27510  0.54510  0.60930  Biso   1.000  H
  H60      1.0000 0.72490  0.54510  0.39070  Biso   1.000  H
  H61      1.0000 0.89070  0.77510  0.95490  Biso   1.000  H
  H62      1.0000 0.10930  0.22490  0.95490  Biso   1.000  H
  H63      1.0000 0.10930  0.77510  0.04510  Biso   1.000  H
  H64      1.0000 0.89070  0.22490  0.04510  Biso   1.000  H
  H65      1.0000 0.95490  0.89070  0.77510  Biso   1.000  H
  H66      1.0000 0.95490  0.10930  0.22490  Biso   1.000  H
  H67      1.0000 0.04510  0.10930  0.77510  Biso   1.000  H
  H68      1.0000 0.04510  0.89070  0.22490  Biso   1.000  H
  H69      1.0000 0.77510  0.95490  0.89070  Biso   1.000  H
  H70      1.0000 0.22490  0.95490  0.10930  Biso   1.000  H
  H71      1.0000 0.77510  0.04510  0.10930  Biso   1.000  H
  H72      1.0000 0.22490  0.04510  0.89070  Biso   1.000  H
  H73      1.0000 0.60930  0.72490  0.54510  Biso   1.000  H
  H74      1.0000 0.39070  0.27510  0.54510  Biso   1.000  H
  H75      1.0000 0.39070  0.72490  0.45490  Biso   1.000  H
  H76      1.0000 0.60930  0.27510  0.45490  Biso   1.000  H
  H77      1.0000 0.54510  0.60930  0.72490  Biso   1.000  H
  H78      1.0000 0.54510  0.39070  0.27510  Biso   1.000  H
  H79      1.0000 0.45490  0.39070  0.72490  Biso   1.000  H
  H80      1.0000 0.45490  0.60930  0.27510  Biso   1.000  H
  H81      1.0000 0.72490  0.54510  0.60930  Biso   1.000  H
  H82      1.0000 0.27510  0.54510  0.39070  Biso   1.000  H
  H83      1.0000 0.72490  0.45490  0.39070  Biso   1.000  H
  H84      1.0000 0.27510  0.45490  0.60930  Biso   1.000  H
  H85      1.0000 0.10930  0.22490  0.04510  Biso   1.000  H
  H86      1.0000 0.89070  0.77510  0.04510  Biso   1.000  H
  H87      1.0000 0.89070  0.22490  0.95490  Biso   1.000  H
  H88      1.0000 0.10930  0.77510  0.95490  Biso   1.000  H
  H89      1.0000 0.04510  0.10930  0.22490  Biso   1.000  H
  H90      1.0000 0.04510  0.89070  0.77510  Biso   1.000  H
  H91      1.0000 0.95490  0.89070  0.22490  Biso   1.000  H
  H92      1.0000 0.95490  0.10930  0.77510  Biso   1.000  H
  H93      1.0000 0.22490  0.04510  0.10930  Biso   1.000  H
  H94      1.0000 0.77510  0.04510  0.89070  Biso   1.000  H
  H95      1.0000 0.22490  0.95490  0.89070  Biso   1.000  H
  H96      1.0000 0.77510  0.95490  0.10930  Biso   1.000  H
  C97      1.0000 0.32670  0.21660  0.46840  Biso   1.000  C
  C98      1.0000 0.67330  0.78340  0.46840  Biso   1.000  C
  C99      1.0000 0.67330  0.21660  0.53160  Biso   1.000  C
  C100     1.0000 0.32670  0.78340  0.53160  Biso   1.000  C
  C101     1.0000 0.46840  0.32670  0.21660  Biso   1.000  C
  C102     1.0000 0.46840  0.67330  0.78340  Biso   1.000  C
  C103     1.0000 0.53160  0.67330  0.21660  Biso   1.000  C
  C104     1.0000 0.53160  0.32670  0.78340  Biso   1.000  C
  C105     1.0000 0.21660  0.46840  0.32670  Biso   1.000  C
  C106     1.0000 0.78340  0.46840  0.67330  Biso   1.000  C
  C107     1.0000 0.21660  0.53160  0.67330  Biso   1.000  C
  C108     1.0000 0.78340  0.53160  0.32670  Biso   1.000  C
  C109     1.0000 0.82670  0.71660  0.96840  Biso   1.000  C
  C110     1.0000 0.17330  0.28340  0.96840  Biso   1.000  C
  C111     1.0000 0.17330  0.71660  0.03160  Biso   1.000  C
  C112     1.0000 0.82670  0.28340  0.03160  Biso   1.000  C
  C113     1.0000 0.96840  0.82670  0.71660  Biso   1.000  C
  C114     1.0000 0.96840  0.17330  0.28340  Biso   1.000  C
  C115     1.0000 0.03160  0.17330  0.71660  Biso   1.000  C
  C116     1.0000 0.03160  0.82670  0.28340  Biso   1.000  C
  C117     1.0000 0.71660  0.96840  0.82670  Biso   1.000  C
  C118     1.0000 0.28340  0.96840  0.17330  Biso   1.000  C
  C119     1.0000 0.71660  0.03160  0.17330  Biso   1.000  C
  C120     1.0000 0.28340  0.03160  0.82670  Biso   1.000  C
  C121     1.0000 0.67330  0.78340  0.53160  Biso   1.000  C
  C122     1.0000 0.32670  0.21660  0.53160  Biso   1.000  C
  C123     1.0000 0.32670  0.78340  0.46840  Biso   1.000  C
  C124     1.0000 0.67330  0.21660  0.46840  Biso   1.000  C
  C125     1.0000 0.53160  0.67330  0.78340  Biso   1.000  C
  C126     1.0000 0.53160  0.32670  0.21660  Biso   1.000  C
  C127     1.0000 0.46840  0.32670  0.78340  Biso   1.000  C
  C128     1.0000 0.46840  0.67330  0.21660  Biso   1.000  C
  C129     1.0000 0.78340  0.53160  0.67330  Biso   1.000  C
  C130     1.0000 0.21660  0.53160  0.32670  Biso   1.000  C
  C131     1.0000 0.78340  0.46840  0.32670  Biso   1.000  C
  C132     1.0000 0.21660  0.46840  0.67330  Biso   1.000  C
  C133     1.0000 0.17330  0.28340  0.03160  Biso   1.000  C
  C134     1.0000 0.82670  0.71660  0.03160  Biso   1.000  C
  C135     1.0000 0.82670  0.28340  0.96840  Biso   1.000  C
  C136     1.0000 0.17330  0.71660  0.96840  Biso   1.000  C
  C137     1.0000 0.03160  0.17330  0.28340  Biso   1.000  C
  C138     1.0000 0.03160  0.82670  0.71660  Biso   1.000  C
  C139     1.0000 0.96840  0.82670  0.28340  Biso   1.000  C
  C140     1.0000 0.96840  0.17330  0.71660  Biso   1.000  C
  C141     1.0000 0.28340  0.03160  0.17330  Biso   1.000  C
  C142     1.0000 0.71660  0.03160  0.82670  Biso   1.000  C
  C143     1.0000 0.28340  0.96840  0.82670  Biso   1.000  C
  C144     1.0000 0.71660  0.96840  0.17330  Biso   1.000  C
  C145     1.0000 0.28980  0.18280  0.43690  Biso   1.000  C
  C146     1.0000 0.71020  0.81720  0.43690  Biso   1.000  C
  C147     1.0000 0.71020  0.18280  0.56310  Biso   1.000  C
  C148     1.0000 0.28980  0.81720  0.56310  Biso   1.000  C
  C149     1.0000 0.43690  0.28980  0.18280  Biso   1.000  C
  C150     1.0000 0.43690  0.71020  0.81720  Biso   1.000  C
  C151     1.0000 0.56310  0.71020  0.18280  Biso   1.000  C
  C152     1.0000 0.56310  0.28980  0.81720  Biso   1.000  C
  C153     1.0000 0.18280  0.43690  0.28980  Biso   1.000  C
  C154     1.0000 0.81720  0.43690  0.71020  Biso   1.000  C
  C155     1.0000 0.18280  0.56310  0.71020  Biso   1.000  C
  C156     1.0000 0.81720  0.56310  0.28980  Biso   1.000  C
  C157     1.0000 0.78980  0.68280  0.93690  Biso   1.000  C
  C158     1.0000 0.21020  0.31720  0.93690  Biso   1.000  C
  C159     1.0000 0.21020  0.68280  0.06310  Biso   1.000  C
  C160     1.0000 0.78980  0.31720  0.06310  Biso   1.000  C
  C161     1.0000 0.93690  0.78980  0.68280  Biso   1.000  C
  C162     1.0000 0.93690  0.21020  0.31720  Biso   1.000  C
  C163     1.0000 0.06310  0.21020  0.68280  Biso   1.000  C
  C164     1.0000 0.06310  0.78980  0.31720  Biso   1.000  C
  C165     1.0000 0.68280  0.93690  0.78980  Biso   1.000  C
  C166     1.0000 0.31720  0.93690  0.21020  Biso   1.000  C
  C167     1.0000 0.68280  0.06310  0.21020  Biso   1.000  C
  C168     1.0000 0.31720  0.06310  0.78980  Biso   1.000  C
  C169     1.0000 0.71020  0.81720  0.56310  Biso   1.000  C
  C170     1.0000 0.28980  0.18280  0.56310  Biso   1.000  C
  C171     1.0000 0.28980  0.81720  0.43690  Biso   1.000  C
  C172     1.0000 0.71020  0.18280  0.43690  Biso   1.000  C
  C173     1.0000 0.56310  0.71020  0.81720  Biso   1.000  C
  C174     1.0000 0.56310  0.28980  0.18280  Biso   1.000  C
  C175     1.0000 0.43690  0.28980  0.81720  Biso   1.000  C
  C176     1.0000 0.43690  0.71020  0.18280  Biso   1.000  C
  C177     1.0000 0.81720  0.56310  0.71020  Biso   1.000  C
  C178     1.0000 0.18280  0.56310  0.28980  Biso   1.000  C
  C179     1.0000 0.81720  0.43690  0.28980  Biso   1.000  C
  C180     1.0000 0.18280  0.43690  0.71020  Biso   1.000  C
  C181     1.0000 0.21020  0.31720  0.06310  Biso   1.000  C
  C182     1.0000 0.78980  0.68280  0.06310  Biso   1.000  C
  C183     1.0000 0.78980  0.31720  0.93690  Biso   1.000  C
  C184     1.0000 0.21020  0.68280  0.93690  Biso   1.000  C
  C185     1.0000 0.06310  0.21020  0.31720  Biso   1.000  C
  C186     1.0000 0.06310  0.78980  0.68280  Biso   1.000  C
  C187     1.0000 0.93690  0.78980  0.31720  Biso   1.000  C
  C188     1.0000 0.93690  0.21020  0.68280  Biso   1.000  C
  C189     1.0000 0.31720  0.06310  0.21020  Biso   1.000  C
  C190     1.0000 0.68280  0.06310  0.78980  Biso   1.000  C
  C191     1.0000 0.31720  0.93690  0.78980  Biso   1.000  C
  C192     1.0000 0.68280  0.93690  0.21020  Biso   1.000  C
  H97      1.0000 0.26490  0.15820  0.45640  Biso   1.000  H
  H98      1.0000 0.73510  0.84180  0.45640  Biso   1.000  H
  H99      1.0000 0.73510  0.15820  0.54360  Biso   1.000  H
  H100     1.0000 0.26490  0.84180  0.54360  Biso   1.000  H
  H101     1.0000 0.45640  0.26490  0.15820  Biso   1.000  H
  H102     1.0000 0.45640  0.73510  0.84180  Biso   1.000  H
  H103     1.0000 0.54360  0.73510  0.15820  Biso   1.000  H
  H104     1.0000 0.54360  0.26490  0.84180  Biso   1.000  H
  H105     1.0000 0.15820  0.45640  0.26490  Biso   1.000  H
  H106     1.0000 0.84180  0.45640  0.73510  Biso   1.000  H
  H107     1.0000 0.15820  0.54360  0.73510  Biso   1.000  H
  H108     1.0000 0.84180  0.54360  0.26490  Biso   1.000  H
  H109     1.0000 0.76490  0.65820  0.95640  Biso   1.000  H
  H110     1.0000 0.23510  0.34180  0.95640  Biso   1.000  H
  H111     1.0000 0.23510  0.65820  0.04360  Biso   1.000  H
  H112     1.0000 0.76490  0.34180  0.04360  Biso   1.000  H
  H113     1.0000 0.95640  0.76490  0.65820  Biso   1.000  H
  H114     1.0000 0.95640  0.23510  0.34180  Biso   1.000  H
  H115     1.0000 0.04360  0.23510  0.65820  Biso   1.000  H
  H116     1.0000 0.04360  0.76490  0.34180  Biso   1.000  H
  H117     1.0000 0.65820  0.95640  0.76490  Biso   1.000  H
  H118     1.0000 0.34180  0.95640  0.23510  Biso   1.000  H
  H119     1.0000 0.65820  0.04360  0.23510  Biso   1.000  H
  H120     1.0000 0.34180  0.04360  0.76490  Biso   1.000  H
  H121     1.0000 0.73510  0.84180  0.54360  Biso   1.000  H
  H122     1.0000 0.26490  0.15820  0.54360  Biso   1.000  H
  H123     1.0000 0.26490  0.84180  0.45640  Biso   1.000  H
  H124     1.0000 0.73510  0.15820  0.45640  Biso   1.000  H
  H125     1.0000 0.54360  0.73510  0.84180  Biso   1.000  H
  H126     1.0000 0.54360  0.26490  0.15820  Biso   1.000  H
  H127     1.0000 0.45640  0.26490  0.84180  Biso   1.000  H
  H128     1.0000 0.45640  0.73510  0.15820  Biso   1.000  H
  H129     1.0000 0.84180  0.54360  0.73510  Biso   1.000  H
  H130     1.0000 0.15820  0.54360  0.26490  Biso   1.000  H
  H131     1.0000 0.84180  0.45640  0.26490  Biso   1.000  H
  H132     1.0000 0.15820  0.45640  0.73510  Biso   1.000  H
  H133     1.0000 0.23510  0.34180  0.04360  Biso   1.000  H
  H134     1.0000 0.76490  0.65820  0.04360  Biso   1.000  H
  H135     1.0000 0.76490  0.34180  0.95640  Biso   1.000  H
  H136     1.0000 0.23510  0.65820  0.95640  Biso   1.000  H
  H137     1.0000 0.04360  0.23510  0.34180  Biso   1.000  H
  H138     1.0000 0.04360  0.76490  0.65820  Biso   1.000  H
  H139     1.0000 0.95640  0.76490  0.34180  Biso   1.000  H
  H140     1.0000 0.95640  0.23510  0.65820  Biso   1.000  H
  H141     1.0000 0.34180  0.04360  0.23510  Biso   1.000  H
  H142     1.0000 0.65820  0.04360  0.76490  Biso   1.000  H
  H143     1.0000 0.34180  0.95640  0.76490  Biso   1.000  H
  H144     1.0000 0.65820  0.95640  0.23510  Biso   1.000  H
  C193     1.0000 0.28810  0.18390  0.37600  Biso   1.000  C
  C194     1.0000 0.71190  0.81610  0.37600  Biso   1.000  C
  C195     1.0000 0.71190  0.18390  0.62400  Biso   1.000  C
  C196     1.0000 0.28810  0.81610  0.62400  Biso   1.000  C
  C197     1.0000 0.37600  0.28810  0.18390  Biso   1.000  C
  C198     1.0000 0.37600  0.71190  0.81610  Biso   1.000  C
  C199     1.0000 0.62400  0.71190  0.18390  Biso   1.000  C
  C200     1.0000 0.62400  0.28810  0.81610  Biso   1.000  C
  C201     1.0000 0.18390  0.37600  0.28810  Biso   1.000  C
  C202     1.0000 0.81610  0.37600  0.71190  Biso   1.000  C
  C203     1.0000 0.18390  0.62400  0.71190  Biso   1.000  C
  C204     1.0000 0.81610  0.62400  0.28810  Biso   1.000  C
  C205     1.0000 0.78810  0.68390  0.87600  Biso   1.000  C
  C206     1.0000 0.21190  0.31610  0.87600  Biso   1.000  C
  C207     1.0000 0.21190  0.68390  0.12400  Biso   1.000  C
  C208     1.0000 0.78810  0.31610  0.12400  Biso   1.000  C
  C209     1.0000 0.87600  0.78810  0.68390  Biso   1.000  C
  C210     1.0000 0.87600  0.21190  0.31610  Biso   1.000  C
  C211     1.0000 0.12400  0.21190  0.68390  Biso   1.000  C
  C212     1.0000 0.12400  0.78810  0.31610  Biso   1.000  C
  C213     1.0000 0.68390  0.87600  0.78810  Biso   1.000  C
  C214     1.0000 0.31610  0.87600  0.21190  Biso   1.000  C
  C215     1.0000 0.68390  0.12400  0.21190  Biso   1.000  C
  C216     1.0000 0.31610  0.12400  0.78810  Biso   1.000  C
  C217     1.0000 0.71190  0.81610  0.62400  Biso   1.000  C
  C218     1.0000 0.28810  0.18390  0.62400  Biso   1.000  C
  C219     1.0000 0.28810  0.81610  0.37600  Biso   1.000  C
  C220     1.0000 0.71190  0.18390  0.37600  Biso   1.000  C
  C221     1.0000 0.62400  0.71190  0.81610  Biso   1.000  C
  C222     1.0000 0.62400  0.28810  0.18390  Biso   1.000  C
  C223     1.0000 0.37600  0.28810  0.81610  Biso   1.000  C
  C224     1.0000 0.37600  0.71190  0.18390  Biso   1.000  C
  C225     1.0000 0.81610  0.62400  0.71190  Biso   1.000  C
  C226     1.0000 0.18390  0.62400  0.28810  Biso   1.000  C
  C227     1.0000 0.81610  0.37600  0.28810  Biso   1.000  C
  C228     1.0000 0.18390  0.37600  0.71190  Biso   1.000  C
  C229     1.0000 0.21190  0.31610  0.12400  Biso   1.000  C
  C230     1.0000 0.78810  0.68390  0.12400  Biso   1.000  C
  C231     1.0000 0.78810  0.31610  0.87600  Biso   1.000  C
  C232     1.0000 0.21190  0.68390  0.87600  Biso   1.000  C
  C233     1.0000 0.12400  0.21190  0.31610  Biso   1.000  C
  C234     1.0000 0.12400  0.78810  0.68390  Biso   1.000  C
  C235     1.0000 0.87600  0.78810  0.31610  Biso   1.000  C
  C236     1.0000 0.87600  0.21190  0.68390  Biso   1.000  C
  C237     1.0000 0.31610  0.12400  0.21190  Biso   1.000  C
  C238     1.0000 0.68390  0.12400  0.78810  Biso   1.000  C
  C239     1.0000 0.31610  0.87600  0.78810  Biso   1.000  C
  C240     1.0000 0.68390  0.87600  0.21190  Biso   1.000  C
  H145     1.0000 0.26330  0.16010  0.35540  Biso   1.000  H
  H146     1.0000 0.73670  0.83990  0.35540  Biso   1.000  H
  H147     1.0000 0.73670  0.16010  0.64460  Biso   1.000  H
  H148     1.0000 0.26330  0.83990  0.64460  Biso   1.000  H
  H149     1.0000 0.35540  0.26330  0.16010  Biso   1.000  H
  H150     1.0000 0.35540  0.73670  0.83990  Biso   1.000  H
  H151     1.0000 0.64460  0.73670  0.16010  Biso   1.000  H
  H152     1.0000 0.64460  0.26330  0.83990  Biso   1.000  H
  H153     1.0000 0.16010  0.35540  0.26330  Biso   1.000  H
  H154     1.0000 0.83990  0.35540  0.73670  Biso   1.000  H
  H155     1.0000 0.16010  0.64460  0.73670  Biso   1.000  H
  H156     1.0000 0.83990  0.64460  0.26330  Biso   1.000  H
  H157     1.0000 0.76330  0.66010  0.85540  Biso   1.000  H
  H158     1.0000 0.23670  0.33990  0.85540  Biso   1.000  H
  H159     1.0000 0.23670  0.66010  0.14460  Biso   1.000  H
  H160     1.0000 0.76330  0.33990  0.14460  Biso   1.000  H
  H161     1.0000 0.85540  0.76330  0.66010  Biso   1.000  H
  H162     1.0000 0.85540  0.23670  0.33990  Biso   1.000  H
  H163     1.0000 0.14460  0.23670  0.66010  Biso   1.000  H
  H164     1.0000 0.14460  0.76330  0.33990  Biso   1.000  H
  H165     1.0000 0.66010  0.85540  0.76330  Biso   1.000  H
  H166     1.0000 0.33990  0.85540  0.23670  Biso   1.000  H
  H167     1.0000 0.66010  0.14460  0.23670  Biso   1.000  H
  H168     1.0000 0.33990  0.14460  0.76330  Biso   1.000  H
  H169     1.0000 0.73670  0.83990  0.64460  Biso   1.000  H
  H170     1.0000 0.26330  0.16010  0.64460  Biso   1.000  H
  H171     1.0000 0.26330  0.83990  0.35540  Biso   1.000  H
  H172     1.0000 0.73670  0.16010  0.35540  Biso   1.000  H
  H173     1.0000 0.64460  0.73670  0.83990  Biso   1.000  H
  H174     1.0000 0.64460  0.26330  0.16010  Biso   1.000  H
  H175     1.0000 0.35540  0.26330  0.83990  Biso   1.000  H
  H176     1.0000 0.35540  0.73670  0.16010  Biso   1.000  H
  H177     1.0000 0.83990  0.64460  0.73670  Biso   1.000  H
  H178     1.0000 0.16010  0.64460  0.26330  Biso   1.000  H
  H179     1.0000 0.83990  0.35540  0.26330  Biso   1.000  H
  H180     1.0000 0.16010  0.35540  0.73670  Biso   1.000  H
  H181     1.0000 0.23670  0.33990  0.14460  Biso   1.000  H
  H182     1.0000 0.76330  0.66010  0.14460  Biso   1.000  H
  H183     1.0000 0.76330  0.33990  0.85540  Biso   1.000  H
  H184     1.0000 0.23670  0.66010  0.85540  Biso   1.000  H
  H185     1.0000 0.14460  0.23670  0.33990  Biso   1.000  H
  H186     1.0000 0.14460  0.76330  0.66010  Biso   1.000  H
  H187     1.0000 0.85540  0.76330  0.33990  Biso   1.000  H
  H188     1.0000 0.85540  0.23670  0.66010  Biso   1.000  H
  H189     1.0000 0.33990  0.14460  0.23670  Biso   1.000  H
  H190     1.0000 0.66010  0.14460  0.76330  Biso   1.000  H
  H191     1.0000 0.33990  0.85540  0.76330  Biso   1.000  H
  H192     1.0000 0.66010  0.85540  0.23670  Biso   1.000  H
  N49      1.0000 0.50000  0.23210  0.32550  Biso   1.000  N
  N50      1.0000 0.50000  0.76790  0.32550  Biso   1.000  N
  N51      1.0000 0.50000  0.23210  0.67450  Biso   1.000  N
  N52      1.0000 0.50000  0.76790  0.67450  Biso   1.000  N
  N53      1.0000 0.32550  0.50000  0.23210  Biso   1.000  N
  N54      1.0000 0.32550  0.50000  0.76790  Biso   1.000  N
  N55      1.0000 0.67450  0.50000  0.23210  Biso   1.000  N
  N56      1.0000 0.67450  0.50000  0.76790  Biso   1.000  N
  N57      1.0000 0.23210  0.32550  0.50000  Biso   1.000  N
  N58      1.0000 0.76790  0.32550  0.50000  Biso   1.000  N
  N59      1.0000 0.23210  0.67450  0.50000  Biso   1.000  N
  N60      1.0000 0.76790  0.67450  0.50000  Biso   1.000  N
  N61      1.0000 0.00000  0.73210  0.82550  Biso   1.000  N
  N62      1.0000 0.00000  0.26790  0.82550  Biso   1.000  N
  N63      1.0000 0.00000  0.73210  0.17450  Biso   1.000  N
  N64      1.0000 0.00000  0.26790  0.17450  Biso   1.000  N
  N65      1.0000 0.82550  0.00000  0.73210  Biso   1.000  N
  N66      1.0000 0.82550  0.00000  0.26790  Biso   1.000  N
  N67      1.0000 0.17450  0.00000  0.73210  Biso   1.000  N
  N68      1.0000 0.17450  0.00000  0.26790  Biso   1.000  N
  N69      1.0000 0.73210  0.82550  0.00000  Biso   1.000  N
  N70      1.0000 0.26790  0.82550  0.00000  Biso   1.000  N
  N71      1.0000 0.73210  0.17450  0.00000  Biso   1.000  N
  N72      1.0000 0.26790  0.17450  0.00000  Biso   1.000  N
  C241     1.0000 0.50000  0.15430  0.24720  Biso   1.000  C
  C242     1.0000 0.50000  0.84570  0.24720  Biso   1.000  C
  C243     1.0000 0.50000  0.15430  0.75280  Biso   1.000  C
  C244     1.0000 0.50000  0.84570  0.75280  Biso   1.000  C
  C245     1.0000 0.24720  0.50000  0.15430  Biso   1.000  C
  C246     1.0000 0.24720  0.50000  0.84570  Biso   1.000  C
  C247     1.0000 0.75280  0.50000  0.15430  Biso   1.000  C
  C248     1.0000 0.75280  0.50000  0.84570  Biso   1.000  C
  C249     1.0000 0.15430  0.24720  0.50000  Biso   1.000  C
  C250     1.0000 0.84570  0.24720  0.50000  Biso   1.000  C
  C251     1.0000 0.15430  0.75280  0.50000  Biso   1.000  C
  C252     1.0000 0.84570  0.75280  0.50000  Biso   1.000  C
  C253     1.0000 0.00000  0.65430  0.74720  Biso   1.000  C
  C254     1.0000 0.00000  0.34570  0.74720  Biso   1.000  C
  C255     1.0000 0.00000  0.65430  0.25280  Biso   1.000  C
  C256     1.0000 0.00000  0.34570  0.25280  Biso   1.000  C
  C257     1.0000 0.74720  0.00000  0.65430  Biso   1.000  C
  C258     1.0000 0.74720  0.00000  0.34570  Biso   1.000  C
  C259     1.0000 0.25280  0.00000  0.65430  Biso   1.000  C
  C260     1.0000 0.25280  0.00000  0.34570  Biso   1.000  C
  C261     1.0000 0.65430  0.74720  0.00000  Biso   1.000  C
  C262     1.0000 0.34570  0.74720  0.00000  Biso   1.000  C
  C263     1.0000 0.65430  0.25280  0.00000  Biso   1.000  C
  C264     1.0000 0.34570  0.25280  0.00000  Biso   1.000  C
  H193     1.0000 0.53380  0.13060  0.25030  Biso   1.000  H
  H194     1.0000 0.46620  0.86940  0.25030  Biso   1.000  H
  H195     1.0000 0.46620  0.13060  0.74970  Biso   1.000  H
  H196     1.0000 0.53380  0.86940  0.74970  Biso   1.000  H
  H197     1.0000 0.25030  0.53380  0.13060  Biso   1.000  H
  H198     1.0000 0.25030  0.46620  0.86940  Biso   1.000  H
  H199     1.0000 0.74970  0.46620  0.13060  Biso   1.000  H
  H200     1.0000 0.74970  0.53380  0.86940  Biso   1.000  H
  H201     1.0000 0.13060  0.25030  0.53380  Biso   1.000  H
  H202     1.0000 0.86940  0.25030  0.46620  Biso   1.000  H
  H203     1.0000 0.13060  0.74970  0.46620  Biso   1.000  H
  H204     1.0000 0.86940  0.74970  0.53380  Biso   1.000  H
  H205     1.0000 0.03380  0.63060  0.75030  Biso   1.000  H
  H206     1.0000 0.96620  0.36940  0.75030  Biso   1.000  H
  H207     1.0000 0.96620  0.63060  0.24970  Biso   1.000  H
  H208     1.0000 0.03380  0.36940  0.24970  Biso   1.000  H
  H209     1.0000 0.75030  0.03380  0.63060  Biso   1.000  H
  H210     1.0000 0.75030  0.96620  0.36940  Biso   1.000  H
  H211     1.0000 0.24970  0.96620  0.63060  Biso   1.000  H
  H212     1.0000 0.24970  0.03380  0.36940  Biso   1.000  H
  H213     1.0000 0.63060  0.75030  0.03380  Biso   1.000  H
  H214     1.0000 0.36940  0.75030  0.96620  Biso   1.000  H
  H215     1.0000 0.63060  0.24970  0.96620  Biso   1.000  H
  H216     1.0000 0.36940  0.24970  0.03380  Biso   1.000  H
  H217     1.0000 0.46620  0.86940  0.74970  Biso   1.000  H
  H218     1.0000 0.53380  0.13060  0.74970  Biso   1.000  H
  H219     1.0000 0.53380  0.86940  0.25030  Biso   1.000  H
  H220     1.0000 0.46620  0.13060  0.25030  Biso   1.000  H
  H221     1.0000 0.74970  0.46620  0.86940  Biso   1.000  H
  H222     1.0000 0.74970  0.53380  0.13060  Biso   1.000  H
  H223     1.0000 0.25030  0.53380  0.86940  Biso   1.000  H
  H224     1.0000 0.25030  0.46620  0.13060  Biso   1.000  H
  H225     1.0000 0.86940  0.74970  0.46620  Biso   1.000  H
  H226     1.0000 0.13060  0.74970  0.53380  Biso   1.000  H
  H227     1.0000 0.86940  0.25030  0.53380  Biso   1.000  H
  H228     1.0000 0.13060  0.25030  0.46620  Biso   1.000  H
  H229     1.0000 0.96620  0.36940  0.24970  Biso   1.000  H
  H230     1.0000 0.03380  0.63060  0.24970  Biso   1.000  H
  H231     1.0000 0.03380  0.36940  0.75030  Biso   1.000  H
  H232     1.0000 0.96620  0.63060  0.75030  Biso   1.000  H
  H233     1.0000 0.24970  0.96620  0.36940  Biso   1.000  H
  H234     1.0000 0.24970  0.03380  0.63060  Biso   1.000  H
  H235     1.0000 0.75030  0.03380  0.36940  Biso   1.000  H
  H236     1.0000 0.75030  0.96620  0.63060  Biso   1.000  H
  H237     1.0000 0.36940  0.24970  0.96620  Biso   1.000  H
  H238     1.0000 0.63060  0.24970  0.03380  Biso   1.000  H
  H239     1.0000 0.36940  0.75030  0.03380  Biso   1.000  H
  H240     1.0000 0.63060  0.75030  0.96620  Biso   1.000  H
  H241     1.0000 0.50000  0.17370  0.21070  Biso   1.000  H
  H242     1.0000 0.50000  0.82630  0.21070  Biso   1.000  H
  H243     1.0000 0.50000  0.17370  0.78930  Biso   1.000  H
  H244     1.0000 0.50000  0.82630  0.78930  Biso   1.000  H
  H245     1.0000 0.21070  0.50000  0.17370  Biso   1.000  H
  H246     1.0000 0.21070  0.50000  0.82630  Biso   1.000  H
  H247     1.0000 0.78930  0.50000  0.17370  Biso   1.000  H
  H248     1.0000 0.78930  0.50000  0.82630  Biso   1.000  H
  H249     1.0000 0.17370  0.21070  0.50000  Biso   1.000  H
  H250     1.0000 0.82630  0.21070  0.50000  Biso   1.000  H
  H251     1.0000 0.17370  0.78930  0.50000  Biso   1.000  H
  H252     1.0000 0.82630  0.78930  0.50000  Biso   1.000  H
  H253     1.0000 0.00000  0.67370  0.71070  Biso   1.000  H
  H254     1.0000 0.00000  0.32630  0.71070  Biso   1.000  H
  H255     1.0000 0.00000  0.67370  0.28930  Biso   1.000  H
  H256     1.0000 0.00000  0.32630  0.28930  Biso   1.000  H
  H257     1.0000 0.71070  0.00000  0.67370  Biso   1.000  H
  H258     1.0000 0.71070  0.00000  0.32630  Biso   1.000  H
  H259     1.0000 0.28930  0.00000  0.67370  Biso   1.000  H
  H260     1.0000 0.28930  0.00000  0.32630  Biso   1.000  H
  H261     1.0000 0.67370  0.71070  0.00000  Biso   1.000  H
  H262     1.0000 0.32630  0.71070  0.00000  Biso   1.000  H
  H263     1.0000 0.67370  0.28930  0.00000  Biso   1.000  H
  H264     1.0000 0.32630  0.28930  0.00000  Biso   1.000  H
  C265     1.0000 0.50000  0.19850  0.28970  Biso   1.000  C
  C266     1.0000 0.50000  0.80150  0.28970  Biso   1.000  C
  C267     1.0000 0.50000  0.19850  0.71030  Biso   1.000  C
  C268     1.0000 0.50000  0.80150  0.71030  Biso   1.000  C
  C269     1.0000 0.28970  0.50000  0.19850  Biso   1.000  C
  C270     1.0000 0.28970  0.50000  0.80150  Biso   1.000  C
  C271     1.0000 0.71030  0.50000  0.19850  Biso   1.000  C
  C272     1.0000 0.71030  0.50000  0.80150  Biso   1.000  C
  C273     1.0000 0.19850  0.28970  0.50000  Biso   1.000  C
  C274     1.0000 0.80150  0.28970  0.50000  Biso   1.000  C
  C275     1.0000 0.19850  0.71030  0.50000  Biso   1.000  C
  C276     1.0000 0.80150  0.71030  0.50000  Biso   1.000  C
  C277     1.0000 0.00000  0.69850  0.78970  Biso   1.000  C
  C278     1.0000 0.00000  0.30150  0.78970  Biso   1.000  C
  C279     1.0000 0.00000  0.69850  0.21030  Biso   1.000  C
  C280     1.0000 0.00000  0.30150  0.21030  Biso   1.000  C
  C281     1.0000 0.78970  0.00000  0.69850  Biso   1.000  C
  C282     1.0000 0.78970  0.00000  0.30150  Biso   1.000  C
  C283     1.0000 0.21030  0.00000  0.69850  Biso   1.000  C
  C284     1.0000 0.21030  0.00000  0.30150  Biso   1.000  C
  C285     1.0000 0.69850  0.78970  0.00000  Biso   1.000  C
  C286     1.0000 0.30150  0.78970  0.00000  Biso   1.000  C
  C287     1.0000 0.69850  0.21030  0.00000  Biso   1.000  C
  C288     1.0000 0.30150  0.21030  0.00000  Biso   1.000  C
  O289     1.0000 0.39810  0.39810  0.39810  Biso   1.000  O
  O290     1.0000 0.60190  0.60190  0.39810  Biso   1.000  O
  O291     1.0000 0.60190  0.39810  0.60190  Biso   1.000  O
  O292     1.0000 0.39810  0.60190  0.60190  Biso   1.000  O
  O293     1.0000 0.89810  0.89810  0.89810  Biso   1.000  O
  O294     1.0000 0.10190  0.10190  0.89810  Biso   1.000  O
  O295     1.0000 0.10190  0.89810  0.10190  Biso   1.000  O
  O296     1.0000 0.89810  0.10190  0.10190  Biso   1.000  O
  O297     1.0000 0.60190  0.60190  0.60190  Biso   1.000  O
  O298     1.0000 0.39810  0.39810  0.60190  Biso   1.000  O
  O299     1.0000 0.39810  0.60190  0.39810  Biso   1.000  O
  O300     1.0000 0.60190  0.39810  0.39810  Biso   1.000  O
  O301     1.0000 0.10190  0.10190  0.10190  Biso   1.000  O
  O302     1.0000 0.89810  0.89810  0.10190  Biso   1.000  O
  O303     1.0000 0.89810  0.10190  0.89810  Biso   1.000  O
  O304     1.0000 0.10190  0.89810  0.89810  Biso   1.000  O
  O305     1.0000 0.50000  0.33390  0.39690  Biso   1.000  O
  O306     1.0000 0.50000  0.66610  0.39690  Biso   1.000  O
  O307     1.0000 0.50000  0.33390  0.60310  Biso   1.000  O
  O308     1.0000 0.50000  0.66610  0.60310  Biso   1.000  O
  O309     1.0000 0.39690  0.50000  0.33390  Biso   1.000  O
  O310     1.0000 0.39690  0.50000  0.66610  Biso   1.000  O
  O311     1.0000 0.60310  0.50000  0.33390  Biso   1.000  O
  O312     1.0000 0.60310  0.50000  0.66610  Biso   1.000  O
  O313     1.0000 0.33390  0.39690  0.50000  Biso   1.000  O
  O314     1.0000 0.66610  0.39690  0.50000  Biso   1.000  O
  O315     1.0000 0.33390  0.60310  0.50000  Biso   1.000  O
  O316     1.0000 0.66610  0.60310  0.50000  Biso   1.000  O
  O317     1.0000 0.00000  0.83390  0.89690  Biso   1.000  O
  O318     1.0000 0.00000  0.16610  0.89690  Biso   1.000  O
  O319     1.0000 0.00000  0.83390  0.10310  Biso   1.000  O
  O320     1.0000 0.00000  0.16610  0.10310  Biso   1.000  O
  O321     1.0000 0.89690  0.00000  0.83390  Biso   1.000  O
  O322     1.0000 0.89690  0.00000  0.16610  Biso   1.000  O
  O323     1.0000 0.10310  0.00000  0.83390  Biso   1.000  O
  O324     1.0000 0.10310  0.00000  0.16610  Biso   1.000  O
  O325     1.0000 0.83390  0.89690  0.00000  Biso   1.000  O
  O326     1.0000 0.16610  0.89690  0.00000  Biso   1.000  O
  O327     1.0000 0.83390  0.10310  0.00000  Biso   1.000  O
  O328     1.0000 0.16610  0.10310  0.00000  Biso   1.000  O
  O329     1.0000 0.50000  0.50000  0.50000  Biso   1.000  O
  O330     1.0000 0.00000  0.00000  0.00000  Biso   1.000  O
  O331     1.0000 0.45010  0.03330  0.00000  Biso   1.000  O
  O332     1.0000 0.54990  0.96670  0.00000  Biso   1.000  O
  O333     1.0000 0.54990  0.03330  0.00000  Biso   1.000  O
  O334     1.0000 0.45010  0.96670  0.00000  Biso   1.000  O
  O335     1.0000 0.00000  0.45010  0.03330  Biso   1.000  O
  O336     1.0000 0.00000  0.54990  0.96670  Biso   1.000  O
  O337     1.0000 0.00000  0.54990  0.03330  Biso   1.000  O
  O338     1.0000 0.00000  0.45010  0.96670  Biso   1.000  O
  O339     1.0000 0.03330  0.00000  0.45010  Biso   1.000  O
  O340     1.0000 0.96670  0.00000  0.54990  Biso   1.000  O
  O341     1.0000 0.03330  0.00000  0.54990  Biso   1.000  O
  O342     1.0000 0.96670  0.00000  0.45010  Biso   1.000  O
  O343     1.0000 0.95010  0.53330  0.50000  Biso   1.000  O
  O344     1.0000 0.04990  0.46670  0.50000  Biso   1.000  O
  O345     1.0000 0.04990  0.53330  0.50000  Biso   1.000  O
  O346     1.0000 0.95010  0.46670  0.50000  Biso   1.000  O
  O347     1.0000 0.50000  0.95010  0.53330  Biso   1.000  O
  O348     1.0000 0.50000  0.04990  0.46670  Biso   1.000  O
  O349     1.0000 0.50000  0.04990  0.53330  Biso   1.000  O
  O350     1.0000 0.50000  0.95010  0.46670  Biso   1.000  O
  O351     1.0000 0.53330  0.50000  0.95010  Biso   1.000  O
  O352     1.0000 0.46670  0.50000  0.04990  Biso   1.000  O
  O353     1.0000 0.53330  0.50000  0.04990  Biso   1.000  O
  O354     1.0000 0.46670  0.50000  0.95010  Biso   1.000  O
  O355     1.0000 0.46300  0.35100  0.50000  Biso   1.000  O
  O356     1.0000 0.53700  0.64900  0.50000  Biso   1.000  O
  O357     1.0000 0.53700  0.35100  0.50000  Biso   1.000  O
  O358     1.0000 0.46300  0.64900  0.50000  Biso   1.000  O
  O359     1.0000 0.50000  0.46300  0.35100  Biso   1.000  O
  O360     1.0000 0.50000  0.53700  0.64900  Biso   1.000  O
  O361     1.0000 0.50000  0.53700  0.35100  Biso   1.000  O
  O362     1.0000 0.50000  0.46300  0.64900  Biso   1.000  O
  O363     1.0000 0.35100  0.50000  0.46300  Biso   1.000  O
  O364     1.0000 0.64900  0.50000  0.53700  Biso   1.000  O
  O365     1.0000 0.35100  0.50000  0.53700  Biso   1.000  O
  O366     1.0000 0.64900  0.50000  0.46300  Biso   1.000  O
  O367     1.0000 0.96300  0.85100  0.00000  Biso   1.000  O
  O368     1.0000 0.03700  0.14900  0.00000  Biso   1.000  O
  O369     1.0000 0.03700  0.85100  0.00000  Biso   1.000  O
  O370     1.0000 0.96300  0.14900  0.00000  Biso   1.000  O
  O371     1.0000 0.00000  0.96300  0.85100  Biso   1.000  O
  O372     1.0000 0.00000  0.03700  0.14900  Biso   1.000  O
  O373     1.0000 0.00000  0.03700  0.85100  Biso   1.000  O
  O374     1.0000 0.00000  0.96300  0.14900  Biso   1.000  O
  O375     1.0000 0.85100  0.00000  0.96300  Biso   1.000  O
  O376     1.0000 0.14900  0.00000  0.03700  Biso   1.000  O
  O377     1.0000 0.85100  0.00000  0.03700  Biso   1.000  O
  O378     1.0000 0.14900  0.00000  0.96300  Biso   1.000  O
