data_image0
_cell_length_a       28.025
_cell_length_b       14.759
_cell_length_c       28.855
_cell_angle_alpha    90
_cell_angle_beta     104.58
_cell_angle_gamma    90

_symmetry_space_group_name_H-M    "P 1"
_symmetry_int_tables_number       1

loop_
  _symmetry_equiv_pos_as_xyz
  'x, y, z'

loop_
  _atom_site_label
  _atom_site_occupancy
  _atom_site_fract_x
  _atom_site_fract_y
  _atom_site_fract_z
  _atom_site_thermal_displace_type
  _atom_site_B_iso_or_equiv
  _atom_site_type_symbol
  Cu1      1.0000 0.02264  0.36754  0.60484  Biso   1.000  Cu
  Cu2      1.0000 0.97736  0.36754  0.89516  Biso   1.000  Cu
  Cu3      1.0000 0.52264  0.86754  0.60484  Biso   1.000  Cu
  Cu4      1.0000 0.47736  0.86754  0.89516  Biso   1.000  Cu
  Cu5      1.0000 0.97736  0.63246  0.39516  Biso   1.000  Cu
  Cu6      1.0000 0.02264  0.63246  0.10484  Biso   1.000  Cu
  Cu7      1.0000 0.47736  0.13246  0.39516  Biso   1.000  Cu
  Cu8      1.0000 0.52264  0.13246  0.10484  Biso   1.000  Cu
  Cu9      1.0000 0.31070  0.41192  0.88199  Biso   1.000  Cu
  Cu10     1.0000 0.68930  0.41192  0.61801  Biso   1.000  Cu
  Cu11     1.0000 0.81070  0.91192  0.88199  Biso   1.000  Cu
  Cu12     1.0000 0.18930  0.91192  0.61801  Biso   1.000  Cu
  Cu13     1.0000 0.68930  0.58808  0.11801  Biso   1.000  Cu
  Cu14     1.0000 0.31070  0.58808  0.38199  Biso   1.000  Cu
  Cu15     1.0000 0.18930  0.08808  0.11801  Biso   1.000  Cu
  Cu16     1.0000 0.81070  0.08808  0.38199  Biso   1.000  Cu
  Cu17     1.0000 0.36108  0.61628  0.10464  Biso   1.000  Cu
  Cu18     1.0000 0.63892  0.61628  0.39536  Biso   1.000  Cu
  Cu19     1.0000 0.86108  0.11628  0.10464  Biso   1.000  Cu
  Cu20     1.0000 0.13892  0.11628  0.39536  Biso   1.000  Cu
  Cu21     1.0000 0.63892  0.38372  0.89536  Biso   1.000  Cu
  Cu22     1.0000 0.36108  0.38372  0.60464  Biso   1.000  Cu
  Cu23     1.0000 0.13892  0.88372  0.89536  Biso   1.000  Cu
  Cu24     1.0000 0.86108  0.88372  0.60464  Biso   1.000  Cu
  Cl1      1.0000 0.93047  0.39257  0.66135  Biso   1.000  Cl
  Cl2      1.0000 0.06953  0.39257  0.83865  Biso   1.000  Cl
  Cl3      1.0000 0.43047  0.89257  0.66135  Biso   1.000  Cl
  Cl4      1.0000 0.56953  0.89257  0.83865  Biso   1.000  Cl
  Cl5      1.0000 0.06953  0.60743  0.33865  Biso   1.000  Cl
  Cl6      1.0000 0.93047  0.60743  0.16135  Biso   1.000  Cl
  Cl7      1.0000 0.56953  0.10743  0.33865  Biso   1.000  Cl
  Cl8      1.0000 0.43047  0.10743  0.16135  Biso   1.000  Cl
  Cl9      1.0000 0.38994  0.38398  0.80674  Biso   1.000  Cl
  Cl10     1.0000 0.61006  0.38398  0.69326  Biso   1.000  Cl
  Cl11     1.0000 0.88994  0.88398  0.80674  Biso   1.000  Cl
  Cl12     1.0000 0.11006  0.88398  0.69326  Biso   1.000  Cl
  Cl13     1.0000 0.61006  0.61602  0.19326  Biso   1.000  Cl
  Cl14     1.0000 0.38994  0.61602  0.30674  Biso   1.000  Cl
  Cl15     1.0000 0.11006  0.11602  0.19326  Biso   1.000  Cl
  Cl16     1.0000 0.88994  0.11602  0.30674  Biso   1.000  Cl
  Cl17     1.0000 0.26228  0.58735  0.15128  Biso   1.000  Cl
  Cl18     1.0000 0.73772  0.58735  0.34872  Biso   1.000  Cl
  Cl19     1.0000 0.76228  0.08735  0.15128  Biso   1.000  Cl
  Cl20     1.0000 0.23772  0.08735  0.34872  Biso   1.000  Cl
  Cl21     1.0000 0.73772  0.41265  0.84872  Biso   1.000  Cl
  Cl22     1.0000 0.26228  0.41265  0.65128  Biso   1.000  Cl
  Cl23     1.0000 0.23772  0.91265  0.84872  Biso   1.000  Cl
  Cl24     1.0000 0.76228  0.91265  0.65128  Biso   1.000  Cl
  O1       1.0000 0.97873  0.35660  0.66342  Biso   1.000  O
  O2       1.0000 0.02127  0.35660  0.83658  Biso   1.000  O
  O3       1.0000 0.47873  0.85660  0.66342  Biso   1.000  O
  O4       1.0000 0.52127  0.85660  0.83658  Biso   1.000  O
  O5       1.0000 0.02127  0.64340  0.33658  Biso   1.000  O
  O6       1.0000 0.97873  0.64340  0.16342  Biso   1.000  O
  O7       1.0000 0.52127  0.14340  0.33658  Biso   1.000  O
  O8       1.0000 0.47873  0.14340  0.16342  Biso   1.000  O
  O9       1.0000 0.89548  0.35580  0.62089  Biso   1.000  O
  O10      1.0000 0.10452  0.35580  0.87911  Biso   1.000  O
  O11      1.0000 0.39548  0.85580  0.62089  Biso   1.000  O
  O12      1.0000 0.60452  0.85580  0.87911  Biso   1.000  O
  O13      1.0000 0.10452  0.64420  0.37911  Biso   1.000  O
  O14      1.0000 0.89548  0.64420  0.12089  Biso   1.000  O
  O15      1.0000 0.60452  0.14420  0.37911  Biso   1.000  O
  O16      1.0000 0.39548  0.14420  0.12089  Biso   1.000  O
  O17      1.0000 0.93226  0.48890  0.65680  Biso   1.000  O
  O18      1.0000 0.06774  0.48890  0.84320  Biso   1.000  O
  O19      1.0000 0.43226  0.98890  0.65680  Biso   1.000  O
  O20      1.0000 0.56774  0.98890  0.84320  Biso   1.000  O
  O21      1.0000 0.06774  0.51110  0.34320  Biso   1.000  O
  O22      1.0000 0.93226  0.51110  0.15680  Biso   1.000  O
  O23      1.0000 0.56774  0.01110  0.34320  Biso   1.000  O
  O24      1.0000 0.43226  0.01110  0.15680  Biso   1.000  O
  O25      1.0000 0.91694  0.37000  0.70358  Biso   1.000  O
  O26      1.0000 0.08306  0.37000  0.79642  Biso   1.000  O
  O27      1.0000 0.41694  0.87000  0.70358  Biso   1.000  O
  O28      1.0000 0.58306  0.87000  0.79642  Biso   1.000  O
  O29      1.0000 0.08306  0.63000  0.29642  Biso   1.000  O
  O30      1.0000 0.91694  0.63000  0.20358  Biso   1.000  O
  O31      1.0000 0.58306  0.13000  0.29642  Biso   1.000  O
  O32      1.0000 0.41694  0.13000  0.20358  Biso   1.000  O
  O33      1.0000 0.97020  0.43830  0.56001  Biso   1.000  O
  O34      1.0000 0.02980  0.43830  0.93999  Biso   1.000  O
  O35      1.0000 0.47020  0.93830  0.56001  Biso   1.000  O
  O36      1.0000 0.52980  0.93830  0.93999  Biso   1.000  O
  O37      1.0000 0.02980  0.56170  0.43999  Biso   1.000  O
  O38      1.0000 0.97020  0.56170  0.06001  Biso   1.000  O
  O39      1.0000 0.52980  0.06170  0.43999  Biso   1.000  O
  O40      1.0000 0.47020  0.06170  0.06001  Biso   1.000  O
  O41      1.0000 0.93246  0.59110  0.47334  Biso   1.000  O
  O42      1.0000 0.06754  0.59110  0.02666  Biso   1.000  O
  O43      1.0000 0.43246  0.09110  0.47334  Biso   1.000  O
  O44      1.0000 0.56754  0.09110  0.02666  Biso   1.000  O
  O45      1.0000 0.06754  0.40890  0.52666  Biso   1.000  O
  O46      1.0000 0.93246  0.40890  0.97334  Biso   1.000  O
  O47      1.0000 0.56754  0.90890  0.52666  Biso   1.000  O
  O48      1.0000 0.43246  0.90890  0.97334  Biso   1.000  O
  O49      1.0000 0.30967  0.54950  0.05734  Biso   1.000  O
  O50      1.0000 0.69033  0.54950  0.44266  Biso   1.000  O
  O51      1.0000 0.80967  0.04950  0.05734  Biso   1.000  O
  O52      1.0000 0.19033  0.04950  0.44266  Biso   1.000  O
  O53      1.0000 0.69033  0.45050  0.94266  Biso   1.000  O
  O54      1.0000 0.30967  0.45050  0.55734  Biso   1.000  O
  O55      1.0000 0.19033  0.95050  0.94266  Biso   1.000  O
  O56      1.0000 0.80967  0.95050  0.55734  Biso   1.000  O
  O57      1.0000 0.40418  0.60610  0.02449  Biso   1.000  O
  O58      1.0000 0.59582  0.60610  0.47551  Biso   1.000  O
  O59      1.0000 0.90418  0.10610  0.02449  Biso   1.000  O
  O60      1.0000 0.09582  0.10610  0.47551  Biso   1.000  O
  O61      1.0000 0.59582  0.39390  0.97551  Biso   1.000  O
  O62      1.0000 0.40418  0.39390  0.52449  Biso   1.000  O
  O63      1.0000 0.09582  0.89390  0.97551  Biso   1.000  O
  O64      1.0000 0.90418  0.89390  0.52449  Biso   1.000  O
  O65      1.0000 0.36227  0.49130  0.92264  Biso   1.000  O
  O66      1.0000 0.63773  0.49130  0.57736  Biso   1.000  O
  O67      1.0000 0.86227  0.99130  0.92264  Biso   1.000  O
  O68      1.0000 0.13773  0.99130  0.57736  Biso   1.000  O
  O69      1.0000 0.63773  0.50870  0.07736  Biso   1.000  O
  O70      1.0000 0.36227  0.50870  0.42264  Biso   1.000  O
  O71      1.0000 0.13773  0.00870  0.07736  Biso   1.000  O
  O72      1.0000 0.86227  0.00870  0.42264  Biso   1.000  O
  O73      1.0000 0.27004  0.43130  0.95736  Biso   1.000  O
  O74      1.0000 0.72996  0.43130  0.54264  Biso   1.000  O
  O75      1.0000 0.77004  0.93130  0.95736  Biso   1.000  O
  O76      1.0000 0.22996  0.93130  0.54264  Biso   1.000  O
  O77      1.0000 0.72996  0.56870  0.04264  Biso   1.000  O
  O78      1.0000 0.27004  0.56870  0.45736  Biso   1.000  O
  O79      1.0000 0.22996  0.06870  0.04264  Biso   1.000  O
  O80      1.0000 0.77004  0.06870  0.45736  Biso   1.000  O
  O81      1.0000 0.35097  0.43430  0.82057  Biso   1.000  O
  O82      1.0000 0.64903  0.43430  0.67943  Biso   1.000  O
  O83      1.0000 0.85097  0.93430  0.82057  Biso   1.000  O
  O84      1.0000 0.14903  0.93430  0.67943  Biso   1.000  O
  O85      1.0000 0.64903  0.56570  0.17943  Biso   1.000  O
  O86      1.0000 0.35097  0.56570  0.32057  Biso   1.000  O
  O87      1.0000 0.14903  0.06570  0.17943  Biso   1.000  O
  O88      1.0000 0.85097  0.06570  0.32057  Biso   1.000  O
  O89      1.0000 0.42481  0.35170  0.84886  Biso   1.000  O
  O90      1.0000 0.57519  0.35170  0.65114  Biso   1.000  O
  O91      1.0000 0.92481  0.85170  0.84886  Biso   1.000  O
  O92      1.0000 0.07519  0.85170  0.65114  Biso   1.000  O
  O93      1.0000 0.57519  0.64830  0.15114  Biso   1.000  O
  O94      1.0000 0.42481  0.64830  0.34886  Biso   1.000  O
  O95      1.0000 0.07519  0.14830  0.15114  Biso   1.000  O
  O96      1.0000 0.92481  0.14830  0.34886  Biso   1.000  O
  O97      1.0000 0.41400  0.44300  0.77946  Biso   1.000  O
  O98      1.0000 0.58600  0.44300  0.72054  Biso   1.000  O
  O99      1.0000 0.91400  0.94300  0.77946  Biso   1.000  O
  O100     1.0000 0.08600  0.94300  0.72054  Biso   1.000  O
  O101     1.0000 0.58600  0.55700  0.22054  Biso   1.000  O
  O102     1.0000 0.41400  0.55700  0.27946  Biso   1.000  O
  O103     1.0000 0.08600  0.05700  0.22054  Biso   1.000  O
  O104     1.0000 0.91400  0.05700  0.27946  Biso   1.000  O
  O105     1.0000 0.36816  0.30800  0.77764  Biso   1.000  O
  O106     1.0000 0.63184  0.30800  0.72236  Biso   1.000  O
  O107     1.0000 0.86816  0.80800  0.77764  Biso   1.000  O
  O108     1.0000 0.13184  0.80800  0.72236  Biso   1.000  O
  O109     1.0000 0.63184  0.69200  0.22236  Biso   1.000  O
  O110     1.0000 0.36816  0.69200  0.27764  Biso   1.000  O
  O111     1.0000 0.13184  0.19200  0.22236  Biso   1.000  O
  O112     1.0000 0.86816  0.19200  0.27764  Biso   1.000  O
  O113     1.0000 0.31190  0.62160  0.15848  Biso   1.000  O
  O114     1.0000 0.68810  0.62160  0.34152  Biso   1.000  O
  O115     1.0000 0.81190  0.12160  0.15848  Biso   1.000  O
  O116     1.0000 0.18810  0.12160  0.34152  Biso   1.000  O
  O117     1.0000 0.68810  0.37840  0.84152  Biso   1.000  O
  O118     1.0000 0.31190  0.37840  0.65848  Biso   1.000  O
  O119     1.0000 0.18810  0.87840  0.84152  Biso   1.000  O
  O120     1.0000 0.81190  0.87840  0.65848  Biso   1.000  O
  O121     1.0000 0.26150  0.49280  0.14141  Biso   1.000  O
  O122     1.0000 0.73850  0.49280  0.35859  Biso   1.000  O
  O123     1.0000 0.76150  0.99280  0.14141  Biso   1.000  O
  O124     1.0000 0.23850  0.99280  0.35859  Biso   1.000  O
  O125     1.0000 0.73850  0.50720  0.85859  Biso   1.000  O
  O126     1.0000 0.26150  0.50720  0.64141  Biso   1.000  O
  O127     1.0000 0.23850  0.00720  0.85859  Biso   1.000  O
  O128     1.0000 0.76150  0.00720  0.64141  Biso   1.000  O
  O129     1.0000 0.24661  0.60230  0.19441  Biso   1.000  O
  O130     1.0000 0.75339  0.60230  0.30559  Biso   1.000  O
  O131     1.0000 0.74661  0.10230  0.19441  Biso   1.000  O
  O132     1.0000 0.25339  0.10230  0.30559  Biso   1.000  O
  O133     1.0000 0.75339  0.39770  0.80559  Biso   1.000  O
  O134     1.0000 0.24661  0.39770  0.69441  Biso   1.000  O
  O135     1.0000 0.25339  0.89770  0.80559  Biso   1.000  O
  O136     1.0000 0.74661  0.89770  0.69441  Biso   1.000  O
  O137     1.0000 0.22987  0.63440  0.11228  Biso   1.000  O
  O138     1.0000 0.77013  0.63440  0.38772  Biso   1.000  O
  O139     1.0000 0.72987  0.13440  0.11228  Biso   1.000  O
  O140     1.0000 0.27013  0.13440  0.38772  Biso   1.000  O
  O141     1.0000 0.77013  0.36560  0.88772  Biso   1.000  O
  O142     1.0000 0.22987  0.36560  0.61228  Biso   1.000  O
  O143     1.0000 0.27013  0.86560  0.88772  Biso   1.000  O
  O144     1.0000 0.72987  0.86560  0.61228  Biso   1.000  O
  N1       1.0000 0.00056  0.24410  0.58303  Biso   1.000  N
  N2       1.0000 0.99944  0.24410  0.91697  Biso   1.000  N
  N3       1.0000 0.50056  0.74410  0.58303  Biso   1.000  N
  N4       1.0000 0.49944  0.74410  0.91697  Biso   1.000  N
  N5       1.0000 0.99944  0.75590  0.41697  Biso   1.000  N
  N6       1.0000 0.00056  0.75590  0.08303  Biso   1.000  N
  N7       1.0000 0.49944  0.25590  0.41697  Biso   1.000  N
  N8       1.0000 0.50056  0.25590  0.08303  Biso   1.000  N
  N9       1.0000 0.08621  0.30200  0.63899  Biso   1.000  N
  N10      1.0000 0.91379  0.30200  0.86101  Biso   1.000  N
  N11      1.0000 0.58621  0.80200  0.63899  Biso   1.000  N
  N12      1.0000 0.41379  0.80200  0.86101  Biso   1.000  N
  N13      1.0000 0.91379  0.69800  0.36101  Biso   1.000  N
  N14      1.0000 0.08621  0.69800  0.13899  Biso   1.000  N
  N15      1.0000 0.41379  0.19800  0.36101  Biso   1.000  N
  N16      1.0000 0.58621  0.19800  0.13899  Biso   1.000  N
  N17      1.0000 0.06022  0.47500  0.63329  Biso   1.000  N
  N18      1.0000 0.93978  0.47500  0.86671  Biso   1.000  N
  N19      1.0000 0.56022  0.97500  0.63329  Biso   1.000  N
  N20      1.0000 0.43978  0.97500  0.86671  Biso   1.000  N
  N21      1.0000 0.93978  0.52500  0.36671  Biso   1.000  N
  N22      1.0000 0.06022  0.52500  0.13329  Biso   1.000  N
  N23      1.0000 0.43978  0.02500  0.36671  Biso   1.000  N
  N24      1.0000 0.56022  0.02500  0.13329  Biso   1.000  N
  N25      1.0000 0.34046  0.29580  0.90901  Biso   1.000  N
  N26      1.0000 0.65954  0.29580  0.59099  Biso   1.000  N
  N27      1.0000 0.84046  0.79580  0.90901  Biso   1.000  N
  N28      1.0000 0.15954  0.79580  0.59099  Biso   1.000  N
  N29      1.0000 0.65954  0.70420  0.09099  Biso   1.000  N
  N30      1.0000 0.34046  0.70420  0.40901  Biso   1.000  N
  N31      1.0000 0.15954  0.20420  0.09099  Biso   1.000  N
  N32      1.0000 0.84046  0.20420  0.40901  Biso   1.000  N
  N33      1.0000 0.25171  0.33320  0.85177  Biso   1.000  N
  N34      1.0000 0.74829  0.33320  0.64823  Biso   1.000  N
  N35      1.0000 0.75171  0.83320  0.85177  Biso   1.000  N
  N36      1.0000 0.24829  0.83320  0.64823  Biso   1.000  N
  N37      1.0000 0.74829  0.66680  0.14823  Biso   1.000  N
  N38      1.0000 0.25171  0.66680  0.35177  Biso   1.000  N
  N39      1.0000 0.24829  0.16680  0.14823  Biso   1.000  N
  N40      1.0000 0.75171  0.16680  0.35177  Biso   1.000  N
  N41      1.0000 0.26569  0.51210  0.85377  Biso   1.000  N
  N42      1.0000 0.73431  0.51210  0.64623  Biso   1.000  N
  N43      1.0000 0.76569  0.01210  0.85377  Biso   1.000  N
  N44      1.0000 0.23431  0.01210  0.64623  Biso   1.000  N
  N45      1.0000 0.73431  0.48790  0.14623  Biso   1.000  N
  N46      1.0000 0.26569  0.48790  0.35377  Biso   1.000  N
  N47      1.0000 0.23431  0.98790  0.14623  Biso   1.000  N
  N48      1.0000 0.76569  0.98790  0.35377  Biso   1.000  N
  N49      1.0000 0.34263  0.73980  0.08127  Biso   1.000  N
  N50      1.0000 0.65737  0.73980  0.41873  Biso   1.000  N
  N51      1.0000 0.84263  0.23980  0.08127  Biso   1.000  N
  N52      1.0000 0.15737  0.23980  0.41873  Biso   1.000  N
  N53      1.0000 0.65737  0.26020  0.91873  Biso   1.000  N
  N54      1.0000 0.34263  0.26020  0.58127  Biso   1.000  N
  N55      1.0000 0.15737  0.76020  0.91873  Biso   1.000  N
  N56      1.0000 0.84263  0.76020  0.58127  Biso   1.000  N
  N57      1.0000 0.42376  0.67810  0.14132  Biso   1.000  N
  N58      1.0000 0.57624  0.67810  0.35868  Biso   1.000  N
  N59      1.0000 0.92376  0.17810  0.14132  Biso   1.000  N
  N60      1.0000 0.07624  0.17810  0.35868  Biso   1.000  N
  N61      1.0000 0.57624  0.32190  0.85868  Biso   1.000  N
  N62      1.0000 0.42376  0.32190  0.64132  Biso   1.000  N
  N63      1.0000 0.07624  0.82190  0.85868  Biso   1.000  N
  N64      1.0000 0.92376  0.82190  0.64132  Biso   1.000  N
  N65      1.0000 0.39550  0.50640  0.13411  Biso   1.000  N
  N66      1.0000 0.60450  0.50640  0.36589  Biso   1.000  N
  N67      1.0000 0.89550  0.00640  0.13411  Biso   1.000  N
  N68      1.0000 0.10450  0.00640  0.36589  Biso   1.000  N
  N69      1.0000 0.60450  0.49360  0.86589  Biso   1.000  N
  N70      1.0000 0.39550  0.49360  0.63411  Biso   1.000  N
  N71      1.0000 0.10450  0.99360  0.86589  Biso   1.000  N
  N72      1.0000 0.89550  0.99360  0.63411  Biso   1.000  N
  C1       1.0000 0.13370  0.14270  0.72490  Biso   1.000  C
  C2       1.0000 0.86630  0.14270  0.77510  Biso   1.000  C
  C3       1.0000 0.63370  0.64270  0.72490  Biso   1.000  C
  C4       1.0000 0.36630  0.64270  0.77510  Biso   1.000  C
  C5       1.0000 0.86630  0.85730  0.27510  Biso   1.000  C
  C6       1.0000 0.13370  0.85730  0.22490  Biso   1.000  C
  C7       1.0000 0.36630  0.35730  0.27510  Biso   1.000  C
  C8       1.0000 0.63370  0.35730  0.22490  Biso   1.000  C
  H1       1.0000 0.10760  0.10640  0.70900  Biso   1.000  H
  H2       1.0000 0.89240  0.10640  0.79100  Biso   1.000  H
  H3       1.0000 0.60760  0.60640  0.70900  Biso   1.000  H
  H4       1.0000 0.39240  0.60640  0.79100  Biso   1.000  H
  H5       1.0000 0.89240  0.89360  0.29100  Biso   1.000  H
  H6       1.0000 0.10760  0.89360  0.20900  Biso   1.000  H
  H7       1.0000 0.39240  0.39360  0.29100  Biso   1.000  H
  H8       1.0000 0.60760  0.39360  0.20900  Biso   1.000  H
  C9       1.0000 0.17610  0.10280  0.75360  Biso   1.000  C
  C10      1.0000 0.82390  0.10280  0.74640  Biso   1.000  C
  C11      1.0000 0.67610  0.60280  0.75360  Biso   1.000  C
  C12      1.0000 0.32390  0.60280  0.74640  Biso   1.000  C
  C13      1.0000 0.82390  0.89720  0.24640  Biso   1.000  C
  C14      1.0000 0.17610  0.89720  0.25360  Biso   1.000  C
  C15      1.0000 0.32390  0.39720  0.24640  Biso   1.000  C
  C16      1.0000 0.67610  0.39720  0.25360  Biso   1.000  C
  H9       1.0000 0.17810  0.04000  0.75650  Biso   1.000  H
  H10      1.0000 0.82190  0.04000  0.74350  Biso   1.000  H
  H11      1.0000 0.67810  0.54000  0.75650  Biso   1.000  H
  H12      1.0000 0.32190  0.54000  0.74350  Biso   1.000  H
  H13      1.0000 0.82190  0.96000  0.24350  Biso   1.000  H
  H14      1.0000 0.17810  0.96000  0.25650  Biso   1.000  H
  H15      1.0000 0.32190  0.46000  0.24350  Biso   1.000  H
  H16      1.0000 0.67810  0.46000  0.25650  Biso   1.000  H
  C17      1.0000 0.21480  0.15550  0.77760  Biso   1.000  C
  C18      1.0000 0.78520  0.15550  0.72240  Biso   1.000  C
  C19      1.0000 0.71480  0.65550  0.77760  Biso   1.000  C
  C20      1.0000 0.28520  0.65550  0.72240  Biso   1.000  C
  C21      1.0000 0.78520  0.84450  0.22240  Biso   1.000  C
  C22      1.0000 0.21480  0.84450  0.27760  Biso   1.000  C
  C23      1.0000 0.28520  0.34450  0.22240  Biso   1.000  C
  C24      1.0000 0.71480  0.34450  0.27760  Biso   1.000  C
  H17      1.0000 0.24320  0.12820  0.79600  Biso   1.000  H
  H18      1.0000 0.75680  0.12820  0.70400  Biso   1.000  H
  H19      1.0000 0.74320  0.62820  0.79600  Biso   1.000  H
  H20      1.0000 0.25680  0.62820  0.70400  Biso   1.000  H
  H21      1.0000 0.75680  0.87180  0.20400  Biso   1.000  H
  H22      1.0000 0.24320  0.87180  0.29600  Biso   1.000  H
  H23      1.0000 0.25680  0.37180  0.20400  Biso   1.000  H
  H24      1.0000 0.74320  0.37180  0.29600  Biso   1.000  H
  C25      1.0000 0.21180  0.24970  0.77440  Biso   1.000  C
  C26      1.0000 0.78820  0.24970  0.72560  Biso   1.000  C
  C27      1.0000 0.71180  0.74970  0.77440  Biso   1.000  C
  C28      1.0000 0.28820  0.74970  0.72560  Biso   1.000  C
  C29      1.0000 0.78820  0.75030  0.22560  Biso   1.000  C
  C30      1.0000 0.21180  0.75030  0.27440  Biso   1.000  C
  C31      1.0000 0.28820  0.25030  0.22560  Biso   1.000  C
  C32      1.0000 0.71180  0.25030  0.27440  Biso   1.000  C
  C33      1.0000 0.16950  0.28870  0.74520  Biso   1.000  C
  C34      1.0000 0.83050  0.28870  0.75480  Biso   1.000  C
  C35      1.0000 0.66950  0.78870  0.74520  Biso   1.000  C
  C36      1.0000 0.33050  0.78870  0.75480  Biso   1.000  C
  C37      1.0000 0.83050  0.71130  0.25480  Biso   1.000  C
  C38      1.0000 0.16950  0.71130  0.24520  Biso   1.000  C
  C39      1.0000 0.33050  0.21130  0.25480  Biso   1.000  C
  C40      1.0000 0.66950  0.21130  0.24520  Biso   1.000  C
  H25      1.0000 0.16750  0.35140  0.74260  Biso   1.000  H
  H26      1.0000 0.83250  0.35140  0.75740  Biso   1.000  H
  H27      1.0000 0.66750  0.85140  0.74260  Biso   1.000  H
  H28      1.0000 0.33250  0.85140  0.75740  Biso   1.000  H
  H29      1.0000 0.83250  0.64860  0.25740  Biso   1.000  H
  H30      1.0000 0.16750  0.64860  0.24260  Biso   1.000  H
  H31      1.0000 0.33250  0.14860  0.25740  Biso   1.000  H
  H32      1.0000 0.66750  0.14860  0.24260  Biso   1.000  H
  C41      1.0000 0.13020  0.23650  0.71980  Biso   1.000  C
  C42      1.0000 0.86980  0.23650  0.78020  Biso   1.000  C
  C43      1.0000 0.63020  0.73650  0.71980  Biso   1.000  C
  C44      1.0000 0.36980  0.73650  0.78020  Biso   1.000  C
  C45      1.0000 0.86980  0.76350  0.28020  Biso   1.000  C
  C46      1.0000 0.13020  0.76350  0.21980  Biso   1.000  C
  C47      1.0000 0.36980  0.26350  0.28020  Biso   1.000  C
  C48      1.0000 0.63020  0.26350  0.21980  Biso   1.000  C
  C49      1.0000 0.08460  0.27940  0.68920  Biso   1.000  C
  C50      1.0000 0.91540  0.27940  0.81080  Biso   1.000  C
  C51      1.0000 0.58460  0.77940  0.68920  Biso   1.000  C
  C52      1.0000 0.41540  0.77940  0.81080  Biso   1.000  C
  C53      1.0000 0.91540  0.72060  0.31080  Biso   1.000  C
  C54      1.0000 0.08460  0.72060  0.18920  Biso   1.000  C
  C55      1.0000 0.41540  0.22060  0.31080  Biso   1.000  C
  C56      1.0000 0.58460  0.22060  0.18920  Biso   1.000  C
  H33      1.0000 0.05710  0.23880  0.68780  Biso   1.000  H
  H34      1.0000 0.94290  0.23880  0.81220  Biso   1.000  H
  H35      1.0000 0.55710  0.73880  0.68780  Biso   1.000  H
  H36      1.0000 0.44290  0.73880  0.81220  Biso   1.000  H
  H37      1.0000 0.94290  0.76120  0.31220  Biso   1.000  H
  H38      1.0000 0.05710  0.76120  0.18780  Biso   1.000  H
  H39      1.0000 0.44290  0.26120  0.31220  Biso   1.000  H
  H40      1.0000 0.55710  0.26120  0.18780  Biso   1.000  H
  H41      1.0000 0.07810  0.33470  0.70470  Biso   1.000  H
  H42      1.0000 0.92190  0.33470  0.79530  Biso   1.000  H
  H43      1.0000 0.57810  0.83470  0.70470  Biso   1.000  H
  H44      1.0000 0.42190  0.83470  0.79530  Biso   1.000  H
  H45      1.0000 0.92190  0.66530  0.29530  Biso   1.000  H
  H46      1.0000 0.07810  0.66530  0.20470  Biso   1.000  H
  H47      1.0000 0.42190  0.16530  0.29530  Biso   1.000  H
  H48      1.0000 0.57810  0.16530  0.20470  Biso   1.000  H
  C57      1.0000 0.12520  0.36750  0.63700  Biso   1.000  C
  C58      1.0000 0.87480  0.36750  0.86300  Biso   1.000  C
  C59      1.0000 0.62520  0.86750  0.63700  Biso   1.000  C
  C60      1.0000 0.37480  0.86750  0.86300  Biso   1.000  C
  C61      1.0000 0.87480  0.63250  0.36300  Biso   1.000  C
  C62      1.0000 0.12520  0.63250  0.13700  Biso   1.000  C
  C63      1.0000 0.37480  0.13250  0.36300  Biso   1.000  C
  C64      1.0000 0.62520  0.13250  0.13700  Biso   1.000  C
  H49      1.0000 0.13090  0.36780  0.60520  Biso   1.000  H
  H50      1.0000 0.86910  0.36780  0.89480  Biso   1.000  H
  H51      1.0000 0.63090  0.86780  0.60520  Biso   1.000  H
  H52      1.0000 0.36910  0.86780  0.89480  Biso   1.000  H
  H53      1.0000 0.86910  0.63220  0.39480  Biso   1.000  H
  H54      1.0000 0.13090  0.63220  0.10520  Biso   1.000  H
  H55      1.0000 0.36910  0.13220  0.39480  Biso   1.000  H
  H56      1.0000 0.63090  0.13220  0.10520  Biso   1.000  H
  H57      1.0000 0.15570  0.35050  0.65980  Biso   1.000  H
  H58      1.0000 0.84430  0.35050  0.84020  Biso   1.000  H
  H59      1.0000 0.65570  0.85050  0.65980  Biso   1.000  H
  H60      1.0000 0.34430  0.85050  0.84020  Biso   1.000  H
  H61      1.0000 0.84430  0.64950  0.34020  Biso   1.000  H
  H62      1.0000 0.15570  0.64950  0.15980  Biso   1.000  H
  H63      1.0000 0.34430  0.14950  0.34020  Biso   1.000  H
  H64      1.0000 0.65570  0.14950  0.15980  Biso   1.000  H
  C65      1.0000 0.08810  0.21850  0.61010  Biso   1.000  C
  C66      1.0000 0.91190  0.21850  0.88990  Biso   1.000  C
  C67      1.0000 0.58810  0.71850  0.61010  Biso   1.000  C
  C68      1.0000 0.41190  0.71850  0.88990  Biso   1.000  C
  C69      1.0000 0.91190  0.78150  0.38990  Biso   1.000  C
  C70      1.0000 0.08810  0.78150  0.11010  Biso   1.000  C
  C71      1.0000 0.41190  0.28150  0.38990  Biso   1.000  C
  C72      1.0000 0.58810  0.28150  0.11010  Biso   1.000  C
  H65      1.0000 0.10780  0.17250  0.63010  Biso   1.000  H
  H66      1.0000 0.89220  0.17250  0.86990  Biso   1.000  H
  H67      1.0000 0.60780  0.67250  0.63010  Biso   1.000  H
  H68      1.0000 0.39220  0.67250  0.86990  Biso   1.000  H
  H69      1.0000 0.89220  0.82750  0.36990  Biso   1.000  H
  H70      1.0000 0.10780  0.82750  0.13010  Biso   1.000  H
  H71      1.0000 0.39220  0.32750  0.36990  Biso   1.000  H
  H72      1.0000 0.60780  0.32750  0.13010  Biso   1.000  H
  H73      1.0000 0.10340  0.23240  0.58430  Biso   1.000  H
  H74      1.0000 0.89660  0.23240  0.91570  Biso   1.000  H
  H75      1.0000 0.60340  0.73240  0.58430  Biso   1.000  H
  H76      1.0000 0.39660  0.73240  0.91570  Biso   1.000  H
  H77      1.0000 0.89660  0.76760  0.41570  Biso   1.000  H
  H78      1.0000 0.10340  0.76760  0.08430  Biso   1.000  H
  H79      1.0000 0.39660  0.26760  0.41570  Biso   1.000  H
  H80      1.0000 0.60340  0.26760  0.08430  Biso   1.000  H
  C73      1.0000 0.03670  0.18330  0.58970  Biso   1.000  C
  C74      1.0000 0.96330  0.18330  0.91030  Biso   1.000  C
  C75      1.0000 0.53670  0.68330  0.58970  Biso   1.000  C
  C76      1.0000 0.46330  0.68330  0.91030  Biso   1.000  C
  C77      1.0000 0.96330  0.81670  0.41030  Biso   1.000  C
  C78      1.0000 0.03670  0.81670  0.08970  Biso   1.000  C
  C79      1.0000 0.46330  0.31670  0.41030  Biso   1.000  C
  C80      1.0000 0.53670  0.31670  0.08970  Biso   1.000  C
  C81      1.0000 0.10960  0.46030  0.64890  Biso   1.000  C
  C82      1.0000 0.89040  0.46030  0.85110  Biso   1.000  C
  C83      1.0000 0.60960  0.96030  0.64890  Biso   1.000  C
  C84      1.0000 0.39040  0.96030  0.85110  Biso   1.000  C
  C85      1.0000 0.89040  0.53970  0.35110  Biso   1.000  C
  C86      1.0000 0.10960  0.53970  0.14890  Biso   1.000  C
  C87      1.0000 0.39040  0.03970  0.35110  Biso   1.000  C
  C88      1.0000 0.60960  0.03970  0.14890  Biso   1.000  C
  C89      1.0000 0.14120  0.52620  0.67270  Biso   1.000  C
  C90      1.0000 0.85880  0.52620  0.82730  Biso   1.000  C
  C91      1.0000 0.64120  0.02620  0.67270  Biso   1.000  C
  C92      1.0000 0.35880  0.02620  0.82730  Biso   1.000  C
  C93      1.0000 0.85880  0.47380  0.32730  Biso   1.000  C
  C94      1.0000 0.14120  0.47380  0.17270  Biso   1.000  C
  C95      1.0000 0.35880  0.97380  0.32730  Biso   1.000  C
  C96      1.0000 0.64120  0.97380  0.17270  Biso   1.000  C
  H81      1.0000 0.17470  0.51420  0.68390  Biso   1.000  H
  H82      1.0000 0.82530  0.51420  0.81610  Biso   1.000  H
  H83      1.0000 0.67470  0.01420  0.68390  Biso   1.000  H
  H84      1.0000 0.32530  0.01420  0.81610  Biso   1.000  H
  H85      1.0000 0.82530  0.48580  0.31610  Biso   1.000  H
  H86      1.0000 0.17470  0.48580  0.18390  Biso   1.000  H
  H87      1.0000 0.32530  0.98580  0.31610  Biso   1.000  H
  H88      1.0000 0.67470  0.98580  0.18390  Biso   1.000  H
  C97      1.0000 0.12280  0.60930  0.67980  Biso   1.000  C
  C98      1.0000 0.87720  0.60930  0.82020  Biso   1.000  C
  C99      1.0000 0.62280  0.10930  0.67980  Biso   1.000  C
  C100     1.0000 0.37720  0.10930  0.82020  Biso   1.000  C
  C101     1.0000 0.87720  0.39070  0.32020  Biso   1.000  C
  C102     1.0000 0.12280  0.39070  0.17980  Biso   1.000  C
  C103     1.0000 0.37720  0.89070  0.32020  Biso   1.000  C
  C104     1.0000 0.62280  0.89070  0.17980  Biso   1.000  C
  H89      1.0000 0.14380  0.65500  0.69500  Biso   1.000  H
  H90      1.0000 0.85620  0.65500  0.80500  Biso   1.000  H
  H91      1.0000 0.64380  0.15500  0.69500  Biso   1.000  H
  H92      1.0000 0.35620  0.15500  0.80500  Biso   1.000  H
  H93      1.0000 0.85620  0.34500  0.30500  Biso   1.000  H
  H94      1.0000 0.14380  0.34500  0.19500  Biso   1.000  H
  H95      1.0000 0.35620  0.84500  0.30500  Biso   1.000  H
  H96      1.0000 0.64380  0.84500  0.19500  Biso   1.000  H
  C105     1.0000 0.07260  0.62540  0.66400  Biso   1.000  C
  C106     1.0000 0.92740  0.62540  0.83600  Biso   1.000  C
  C107     1.0000 0.57260  0.12540  0.66400  Biso   1.000  C
  C108     1.0000 0.42740  0.12540  0.83600  Biso   1.000  C
  C109     1.0000 0.92740  0.37460  0.33600  Biso   1.000  C
  C110     1.0000 0.07260  0.37460  0.16400  Biso   1.000  C
  C111     1.0000 0.42740  0.87460  0.33600  Biso   1.000  C
  C112     1.0000 0.57260  0.87460  0.16400  Biso   1.000  C
  H97      1.0000 0.05940  0.68130  0.66890  Biso   1.000  H
  H98      1.0000 0.94060  0.68130  0.83110  Biso   1.000  H
  H99      1.0000 0.55940  0.18130  0.66890  Biso   1.000  H
  H100     1.0000 0.44060  0.18130  0.83110  Biso   1.000  H
  H101     1.0000 0.94060  0.31870  0.33110  Biso   1.000  H
  H102     1.0000 0.05940  0.31870  0.16890  Biso   1.000  H
  H103     1.0000 0.44060  0.81870  0.33110  Biso   1.000  H
  H104     1.0000 0.55940  0.81870  0.16890  Biso   1.000  H
  C113     1.0000 0.04260  0.55640  0.64080  Biso   1.000  C
  C114     1.0000 0.95740  0.55640  0.85920  Biso   1.000  C
  C115     1.0000 0.54260  0.05640  0.64080  Biso   1.000  C
  C116     1.0000 0.45740  0.05640  0.85920  Biso   1.000  C
  C117     1.0000 0.95740  0.44360  0.35920  Biso   1.000  C
  C118     1.0000 0.04260  0.44360  0.14080  Biso   1.000  C
  C119     1.0000 0.45740  0.94360  0.35920  Biso   1.000  C
  C120     1.0000 0.54260  0.94360  0.14080  Biso   1.000  C
  H105     1.0000 0.00890  0.56690  0.63010  Biso   1.000  H
  H106     1.0000 0.99110  0.56690  0.86990  Biso   1.000  H
  H107     1.0000 0.50890  0.06690  0.63010  Biso   1.000  H
  H108     1.0000 0.49110  0.06690  0.86990  Biso   1.000  H
  H109     1.0000 0.99110  0.43310  0.36990  Biso   1.000  H
  H110     1.0000 0.00890  0.43310  0.13010  Biso   1.000  H
  H111     1.0000 0.49110  0.93310  0.36990  Biso   1.000  H
  H112     1.0000 0.50890  0.93310  0.13010  Biso   1.000  H
  C121     1.0000 0.95360  0.21920  0.56320  Biso   1.000  C
  C122     1.0000 0.04640  0.21920  0.93680  Biso   1.000  C
  C123     1.0000 0.45360  0.71920  0.56320  Biso   1.000  C
  C124     1.0000 0.54640  0.71920  0.93680  Biso   1.000  C
  C125     1.0000 0.04640  0.78080  0.43680  Biso   1.000  C
  C126     1.0000 0.95360  0.78080  0.06320  Biso   1.000  C
  C127     1.0000 0.54640  0.28080  0.43680  Biso   1.000  C
  C128     1.0000 0.45360  0.28080  0.06320  Biso   1.000  C
  H113     1.0000 0.92840  0.26180  0.55910  Biso   1.000  H
  H114     1.0000 0.07160  0.26180  0.94090  Biso   1.000  H
  H115     1.0000 0.42840  0.76180  0.55910  Biso   1.000  H
  H116     1.0000 0.57160  0.76180  0.94090  Biso   1.000  H
  H117     1.0000 0.07160  0.73820  0.44090  Biso   1.000  H
  H118     1.0000 0.92840  0.73820  0.05910  Biso   1.000  H
  H119     1.0000 0.57160  0.23820  0.44090  Biso   1.000  H
  H120     1.0000 0.42840  0.23820  0.05910  Biso   1.000  H
  C129     1.0000 0.94280  0.13080  0.54880  Biso   1.000  C
  C130     1.0000 0.05720  0.13080  0.95120  Biso   1.000  C
  C131     1.0000 0.44280  0.63080  0.54880  Biso   1.000  C
  C132     1.0000 0.55720  0.63080  0.95120  Biso   1.000  C
  C133     1.0000 0.05720  0.86920  0.45120  Biso   1.000  C
  C134     1.0000 0.94280  0.86920  0.04880  Biso   1.000  C
  C135     1.0000 0.55720  0.36920  0.45120  Biso   1.000  C
  C136     1.0000 0.44280  0.36920  0.04880  Biso   1.000  C
  H121     1.0000 0.91030  0.11410  0.53480  Biso   1.000  H
  H122     1.0000 0.08970  0.11410  0.96520  Biso   1.000  H
  H123     1.0000 0.41030  0.61410  0.53480  Biso   1.000  H
  H124     1.0000 0.58970  0.61410  0.96520  Biso   1.000  H
  H125     1.0000 0.08970  0.88590  0.46520  Biso   1.000  H
  H126     1.0000 0.91030  0.88590  0.03480  Biso   1.000  H
  H127     1.0000 0.58970  0.38590  0.46520  Biso   1.000  H
  H128     1.0000 0.41030  0.38590  0.03480  Biso   1.000  H
  C137     1.0000 0.97960  0.06740  0.55500  Biso   1.000  C
  C138     1.0000 0.02040  0.06740  0.94500  Biso   1.000  C
  C139     1.0000 0.47960  0.56740  0.55500  Biso   1.000  C
  C140     1.0000 0.52040  0.56740  0.94500  Biso   1.000  C
  C141     1.0000 0.02040  0.93260  0.44500  Biso   1.000  C
  C142     1.0000 0.97960  0.93260  0.05500  Biso   1.000  C
  C143     1.0000 0.52040  0.43260  0.44500  Biso   1.000  C
  C144     1.0000 0.47960  0.43260  0.05500  Biso   1.000  C
  H129     1.0000 0.97230  0.00820  0.54440  Biso   1.000  H
  H130     1.0000 0.02770  0.00820  0.95560  Biso   1.000  H
  H131     1.0000 0.47230  0.50820  0.54440  Biso   1.000  H
  H132     1.0000 0.52770  0.50820  0.95560  Biso   1.000  H
  H133     1.0000 0.02770  0.99180  0.45560  Biso   1.000  H
  H134     1.0000 0.97230  0.99180  0.04440  Biso   1.000  H
  H135     1.0000 0.52770  0.49180  0.45560  Biso   1.000  H
  H136     1.0000 0.47230  0.49180  0.04440  Biso   1.000  H
  C145     1.0000 0.02820  0.09210  0.57730  Biso   1.000  C
  C146     1.0000 0.97180  0.09210  0.92270  Biso   1.000  C
  C147     1.0000 0.52820  0.59210  0.57730  Biso   1.000  C
  C148     1.0000 0.47180  0.59210  0.92270  Biso   1.000  C
  C149     1.0000 0.97180  0.90790  0.42270  Biso   1.000  C
  C150     1.0000 0.02820  0.90790  0.07730  Biso   1.000  C
  C151     1.0000 0.47180  0.40790  0.42270  Biso   1.000  C
  C152     1.0000 0.52820  0.40790  0.07730  Biso   1.000  C
  H137     1.0000 0.05360  0.04980  0.58350  Biso   1.000  H
  H138     1.0000 0.94640  0.04980  0.91650  Biso   1.000  H
  H139     1.0000 0.55360  0.54980  0.58350  Biso   1.000  H
  H140     1.0000 0.44640  0.54980  0.91650  Biso   1.000  H
  H141     1.0000 0.94640  0.95020  0.41650  Biso   1.000  H
  H142     1.0000 0.05360  0.95020  0.08350  Biso   1.000  H
  H143     1.0000 0.44640  0.45020  0.41650  Biso   1.000  H
  H144     1.0000 0.55360  0.45020  0.08350  Biso   1.000  H
  C153     1.0000 0.96900  0.54130  0.48890  Biso   1.000  C
  C154     1.0000 0.03100  0.54130  0.01110  Biso   1.000  C
  C155     1.0000 0.46900  0.04130  0.48890  Biso   1.000  C
  C156     1.0000 0.53100  0.04130  0.01110  Biso   1.000  C
  C157     1.0000 0.03100  0.45870  0.51110  Biso   1.000  C
  C158     1.0000 0.96900  0.45870  0.98890  Biso   1.000  C
  C159     1.0000 0.53100  0.95870  0.51110  Biso   1.000  C
  C160     1.0000 0.46900  0.95870  0.98890  Biso   1.000  C
  C161     1.0000 0.98560  0.47350  0.52650  Biso   1.000  C
  C162     1.0000 0.01440  0.47350  0.97350  Biso   1.000  C
  C163     1.0000 0.48560  0.97350  0.52650  Biso   1.000  C
  C164     1.0000 0.51440  0.97350  0.97350  Biso   1.000  C
  C165     1.0000 0.01440  0.52650  0.47350  Biso   1.000  C
  C166     1.0000 0.98560  0.52650  0.02650  Biso   1.000  C
  C167     1.0000 0.51440  0.02650  0.47350  Biso   1.000  C
  C168     1.0000 0.48560  0.02650  0.02650  Biso   1.000  C
  C169     1.0000 0.25410  0.30730  0.80160  Biso   1.000  C
  C170     1.0000 0.74590  0.30730  0.69840  Biso   1.000  C
  C171     1.0000 0.75410  0.80730  0.80160  Biso   1.000  C
  C172     1.0000 0.24590  0.80730  0.69840  Biso   1.000  C
  C173     1.0000 0.74590  0.69270  0.19840  Biso   1.000  C
  C174     1.0000 0.25410  0.69270  0.30160  Biso   1.000  C
  C175     1.0000 0.24590  0.19270  0.19840  Biso   1.000  C
  C176     1.0000 0.75410  0.19270  0.30160  Biso   1.000  C
  H145     1.0000 0.25520  0.36240  0.78350  Biso   1.000  H
  H146     1.0000 0.74480  0.36240  0.71650  Biso   1.000  H
  H147     1.0000 0.75520  0.86240  0.78350  Biso   1.000  H
  H148     1.0000 0.24480  0.86240  0.71650  Biso   1.000  H
  H149     1.0000 0.74480  0.63760  0.21650  Biso   1.000  H
  H150     1.0000 0.25520  0.63760  0.28350  Biso   1.000  H
  H151     1.0000 0.24480  0.13760  0.21650  Biso   1.000  H
  H152     1.0000 0.75520  0.13760  0.28350  Biso   1.000  H
  H153     1.0000 0.28460  0.27480  0.80370  Biso   1.000  H
  H154     1.0000 0.71540  0.27480  0.69630  Biso   1.000  H
  H155     1.0000 0.78460  0.77480  0.80370  Biso   1.000  H
  H156     1.0000 0.21540  0.77480  0.69630  Biso   1.000  H
  H157     1.0000 0.71540  0.72520  0.19630  Biso   1.000  H
  H158     1.0000 0.28460  0.72520  0.30370  Biso   1.000  H
  H159     1.0000 0.21540  0.22520  0.19630  Biso   1.000  H
  H160     1.0000 0.78460  0.22520  0.30370  Biso   1.000  H
  C177     1.0000 0.30540  0.48060  0.97580  Biso   1.000  C
  C178     1.0000 0.69460  0.48060  0.52420  Biso   1.000  C
  C179     1.0000 0.80540  0.98060  0.97580  Biso   1.000  C
  C180     1.0000 0.19460  0.98060  0.52420  Biso   1.000  C
  C181     1.0000 0.69460  0.51940  0.02420  Biso   1.000  C
  C182     1.0000 0.30540  0.51940  0.47580  Biso   1.000  C
  C183     1.0000 0.19460  0.01940  0.02420  Biso   1.000  C
  C184     1.0000 0.80540  0.01940  0.47580  Biso   1.000  C
  C185     1.0000 0.34870  0.50920  0.96040  Biso   1.000  C
  C186     1.0000 0.65130  0.50920  0.53960  Biso   1.000  C
  C187     1.0000 0.84870  0.00920  0.96040  Biso   1.000  C
  C188     1.0000 0.15130  0.00920  0.53960  Biso   1.000  C
  C189     1.0000 0.65130  0.49080  0.03960  Biso   1.000  C
  C190     1.0000 0.34870  0.49080  0.46040  Biso   1.000  C
  C191     1.0000 0.15130  0.99080  0.03960  Biso   1.000  C
  C192     1.0000 0.84870  0.99080  0.46040  Biso   1.000  C
  C193     1.0000 0.36760  0.55980  0.00470  Biso   1.000  C
  C194     1.0000 0.63240  0.55980  0.49530  Biso   1.000  C
  C195     1.0000 0.86760  0.05980  0.00470  Biso   1.000  C
  C196     1.0000 0.13240  0.05980  0.49530  Biso   1.000  C
  C197     1.0000 0.63240  0.44020  0.99530  Biso   1.000  C
  C198     1.0000 0.36760  0.44020  0.50470  Biso   1.000  C
  C199     1.0000 0.13240  0.94020  0.99530  Biso   1.000  C
  C200     1.0000 0.86760  0.94020  0.50470  Biso   1.000  C
  C201     1.0000 0.32400  0.53280  0.02020  Biso   1.000  C
  C202     1.0000 0.67600  0.53280  0.47980  Biso   1.000  C
  C203     1.0000 0.82400  0.03280  0.02020  Biso   1.000  C
  C204     1.0000 0.17600  0.03280  0.47980  Biso   1.000  C
  C205     1.0000 0.67600  0.46720  0.97980  Biso   1.000  C
  C206     1.0000 0.32400  0.46720  0.52020  Biso   1.000  C
  C207     1.0000 0.17600  0.96720  0.97980  Biso   1.000  C
  C208     1.0000 0.82400  0.96720  0.52020  Biso   1.000  C
  C209     1.0000 0.25430  0.25390  0.88400  Biso   1.000  C
  C210     1.0000 0.74570  0.25390  0.61600  Biso   1.000  C
  C211     1.0000 0.75430  0.75390  0.88400  Biso   1.000  C
  C212     1.0000 0.24570  0.75390  0.61600  Biso   1.000  C
  C213     1.0000 0.74570  0.74610  0.11600  Biso   1.000  C
  C214     1.0000 0.25430  0.74610  0.38400  Biso   1.000  C
  C215     1.0000 0.24570  0.24610  0.11600  Biso   1.000  C
  C216     1.0000 0.75430  0.24610  0.38400  Biso   1.000  C
  H161     1.0000 0.23690  0.20310  0.86610  Biso   1.000  H
  H162     1.0000 0.76310  0.20310  0.63390  Biso   1.000  H
  H163     1.0000 0.73690  0.70310  0.86610  Biso   1.000  H
  H164     1.0000 0.26310  0.70310  0.63390  Biso   1.000  H
  H165     1.0000 0.76310  0.79690  0.13390  Biso   1.000  H
  H166     1.0000 0.23690  0.79690  0.36610  Biso   1.000  H
  H167     1.0000 0.26310  0.29690  0.13390  Biso   1.000  H
  H168     1.0000 0.73690  0.29690  0.36610  Biso   1.000  H
  H169     1.0000 0.23850  0.26860  0.90940  Biso   1.000  H
  H170     1.0000 0.76150  0.26860  0.59060  Biso   1.000  H
  H171     1.0000 0.73850  0.76860  0.90940  Biso   1.000  H
  H172     1.0000 0.26150  0.76860  0.59060  Biso   1.000  H
  H173     1.0000 0.76150  0.73140  0.09060  Biso   1.000  H
  H174     1.0000 0.23850  0.73140  0.40940  Biso   1.000  H
  H175     1.0000 0.26150  0.23140  0.09060  Biso   1.000  H
  H176     1.0000 0.73850  0.23140  0.40940  Biso   1.000  H
  C217     1.0000 0.30760  0.22860  0.90540  Biso   1.000  C
  C218     1.0000 0.69240  0.22860  0.59460  Biso   1.000  C
  C219     1.0000 0.80760  0.72860  0.90540  Biso   1.000  C
  C220     1.0000 0.19240  0.72860  0.59460  Biso   1.000  C
  C221     1.0000 0.69240  0.77140  0.09460  Biso   1.000  C
  C222     1.0000 0.30760  0.77140  0.40540  Biso   1.000  C
  C223     1.0000 0.19240  0.27140  0.09460  Biso   1.000  C
  C224     1.0000 0.80760  0.27140  0.40540  Biso   1.000  C
  C225     1.0000 0.32180  0.14260  0.92310  Biso   1.000  C
  C226     1.0000 0.67820  0.14260  0.57690  Biso   1.000  C
  C227     1.0000 0.82180  0.64260  0.92310  Biso   1.000  C
  C228     1.0000 0.17820  0.64260  0.57690  Biso   1.000  C
  C229     1.0000 0.67820  0.85740  0.07690  Biso   1.000  C
  C230     1.0000 0.32180  0.85740  0.42310  Biso   1.000  C
  C231     1.0000 0.17820  0.35740  0.07690  Biso   1.000  C
  C232     1.0000 0.82180  0.35740  0.42310  Biso   1.000  C
  H177     1.0000 0.29850  0.09650  0.92000  Biso   1.000  H
  H178     1.0000 0.70150  0.09650  0.58000  Biso   1.000  H
  H179     1.0000 0.79850  0.59650  0.92000  Biso   1.000  H
  H180     1.0000 0.20150  0.59650  0.58000  Biso   1.000  H
  H181     1.0000 0.70150  0.90350  0.08000  Biso   1.000  H
  H182     1.0000 0.29850  0.90350  0.42000  Biso   1.000  H
  H183     1.0000 0.20150  0.40350  0.08000  Biso   1.000  H
  H184     1.0000 0.79850  0.40350  0.42000  Biso   1.000  H
  C233     1.0000 0.37090  0.12620  0.94550  Biso   1.000  C
  C234     1.0000 0.62910  0.12620  0.55450  Biso   1.000  C
  C235     1.0000 0.87090  0.62620  0.94550  Biso   1.000  C
  C236     1.0000 0.12910  0.62620  0.55450  Biso   1.000  C
  C237     1.0000 0.62910  0.87380  0.05450  Biso   1.000  C
  C238     1.0000 0.37090  0.87380  0.44550  Biso   1.000  C
  C239     1.0000 0.12910  0.37380  0.05450  Biso   1.000  C
  C240     1.0000 0.87090  0.37380  0.44550  Biso   1.000  C
  H185     1.0000 0.38100  0.06930  0.95800  Biso   1.000  H
  H186     1.0000 0.61900  0.06930  0.54200  Biso   1.000  H
  H187     1.0000 0.88100  0.56930  0.95800  Biso   1.000  H
  H188     1.0000 0.11900  0.56930  0.54200  Biso   1.000  H
  H189     1.0000 0.61900  0.93070  0.04200  Biso   1.000  H
  H190     1.0000 0.38100  0.93070  0.45800  Biso   1.000  H
  H191     1.0000 0.11900  0.43070  0.04200  Biso   1.000  H
  H192     1.0000 0.88100  0.43070  0.45800  Biso   1.000  H
  C241     1.0000 0.40410  0.19550  0.94860  Biso   1.000  C
  C242     1.0000 0.59590  0.19550  0.55140  Biso   1.000  C
  C243     1.0000 0.90410  0.69550  0.94860  Biso   1.000  C
  C244     1.0000 0.09590  0.69550  0.55140  Biso   1.000  C
  C245     1.0000 0.59590  0.80450  0.05140  Biso   1.000  C
  C246     1.0000 0.40410  0.80450  0.44860  Biso   1.000  C
  C247     1.0000 0.09590  0.30450  0.05140  Biso   1.000  C
  C248     1.0000 0.90410  0.30450  0.44860  Biso   1.000  C
  H193     1.0000 0.43740  0.18590  0.96280  Biso   1.000  H
  H194     1.0000 0.56260  0.18590  0.53720  Biso   1.000  H
  H195     1.0000 0.93740  0.68590  0.96280  Biso   1.000  H
  H196     1.0000 0.06260  0.68590  0.53720  Biso   1.000  H
  H197     1.0000 0.56260  0.81410  0.03720  Biso   1.000  H
  H198     1.0000 0.43740  0.81410  0.46280  Biso   1.000  H
  H199     1.0000 0.06260  0.31410  0.03720  Biso   1.000  H
  H200     1.0000 0.93740  0.31410  0.46280  Biso   1.000  H
  C249     1.0000 0.38780  0.27950  0.93070  Biso   1.000  C
  C250     1.0000 0.61220  0.27950  0.56930  Biso   1.000  C
  C251     1.0000 0.88780  0.77950  0.93070  Biso   1.000  C
  C252     1.0000 0.11220  0.77950  0.56930  Biso   1.000  C
  C253     1.0000 0.61220  0.72050  0.06930  Biso   1.000  C
  C254     1.0000 0.38780  0.72050  0.43070  Biso   1.000  C
  C255     1.0000 0.11220  0.22050  0.06930  Biso   1.000  C
  C256     1.0000 0.88780  0.22050  0.43070  Biso   1.000  C
  H201     1.0000 0.41040  0.32660  0.93370  Biso   1.000  H
  H202     1.0000 0.58960  0.32660  0.56630  Biso   1.000  H
  H203     1.0000 0.91040  0.82660  0.93370  Biso   1.000  H
  H204     1.0000 0.08960  0.82660  0.56630  Biso   1.000  H
  H205     1.0000 0.58960  0.67340  0.06630  Biso   1.000  H
  H206     1.0000 0.41040  0.67340  0.43370  Biso   1.000  H
  H207     1.0000 0.08960  0.17340  0.06630  Biso   1.000  H
  H208     1.0000 0.91040  0.17340  0.43370  Biso   1.000  H
  C257     1.0000 0.20790  0.39100  0.85050  Biso   1.000  C
  C258     1.0000 0.79210  0.39100  0.64950  Biso   1.000  C
  C259     1.0000 0.70790  0.89100  0.85050  Biso   1.000  C
  C260     1.0000 0.29210  0.89100  0.64950  Biso   1.000  C
  C261     1.0000 0.79210  0.60900  0.14950  Biso   1.000  C
  C262     1.0000 0.20790  0.60900  0.35050  Biso   1.000  C
  C263     1.0000 0.29210  0.10900  0.14950  Biso   1.000  C
  C264     1.0000 0.70790  0.10900  0.35050  Biso   1.000  C
  H209     1.0000 0.20040  0.39000  0.88150  Biso   1.000  H
  H210     1.0000 0.79960  0.39000  0.61850  Biso   1.000  H
  H211     1.0000 0.70040  0.89000  0.88150  Biso   1.000  H
  H212     1.0000 0.29960  0.89000  0.61850  Biso   1.000  H
  H213     1.0000 0.79960  0.61000  0.11850  Biso   1.000  H
  H214     1.0000 0.20040  0.61000  0.38150  Biso   1.000  H
  H215     1.0000 0.29960  0.11000  0.11850  Biso   1.000  H
  H216     1.0000 0.70040  0.11000  0.38150  Biso   1.000  H
  H217     1.0000 0.17960  0.36760  0.82690  Biso   1.000  H
  H218     1.0000 0.82040  0.36760  0.67310  Biso   1.000  H
  H219     1.0000 0.67960  0.86760  0.82690  Biso   1.000  H
  H220     1.0000 0.32040  0.86760  0.67310  Biso   1.000  H
  H221     1.0000 0.82040  0.63240  0.17310  Biso   1.000  H
  H222     1.0000 0.17960  0.63240  0.32690  Biso   1.000  H
  H223     1.0000 0.32040  0.13240  0.17310  Biso   1.000  H
  H224     1.0000 0.67960  0.13240  0.32690  Biso   1.000  H
  C265     1.0000 0.21820  0.48630  0.83790  Biso   1.000  C
  C266     1.0000 0.78180  0.48630  0.66210  Biso   1.000  C
  C267     1.0000 0.71820  0.98630  0.83790  Biso   1.000  C
  C268     1.0000 0.28180  0.98630  0.66210  Biso   1.000  C
  C269     1.0000 0.78180  0.51370  0.16210  Biso   1.000  C
  C270     1.0000 0.21820  0.51370  0.33790  Biso   1.000  C
  C271     1.0000 0.28180  0.01370  0.16210  Biso   1.000  C
  C272     1.0000 0.71820  0.01370  0.33790  Biso   1.000  C
  C273     1.0000 0.18250  0.54690  0.81370  Biso   1.000  C
  C274     1.0000 0.81750  0.54690  0.68630  Biso   1.000  C
  C275     1.0000 0.68250  0.04690  0.81370  Biso   1.000  C
  C276     1.0000 0.31750  0.04690  0.68630  Biso   1.000  C
  C277     1.0000 0.81750  0.45310  0.18630  Biso   1.000  C
  C278     1.0000 0.18250  0.45310  0.31370  Biso   1.000  C
  C279     1.0000 0.31750  0.95310  0.18630  Biso   1.000  C
  C280     1.0000 0.68250  0.95310  0.31370  Biso   1.000  C
  H225     1.0000 0.15000  0.52820  0.80220  Biso   1.000  H
  H226     1.0000 0.85000  0.52820  0.69780  Biso   1.000  H
  H227     1.0000 0.65000  0.02820  0.80220  Biso   1.000  H
  H228     1.0000 0.35000  0.02820  0.69780  Biso   1.000  H
  H229     1.0000 0.85000  0.47180  0.19780  Biso   1.000  H
  H230     1.0000 0.15000  0.47180  0.30220  Biso   1.000  H
  H231     1.0000 0.35000  0.97180  0.19780  Biso   1.000  H
  H232     1.0000 0.65000  0.97180  0.30220  Biso   1.000  H
  C281     1.0000 0.19580  0.63460  0.80690  Biso   1.000  C
  C282     1.0000 0.80420  0.63460  0.69310  Biso   1.000  C
  C283     1.0000 0.69580  0.13460  0.80690  Biso   1.000  C
  C284     1.0000 0.30420  0.13460  0.69310  Biso   1.000  C
  C285     1.0000 0.80420  0.36540  0.19310  Biso   1.000  C
  C286     1.0000 0.19580  0.36540  0.30690  Biso   1.000  C
  C287     1.0000 0.30420  0.86540  0.19310  Biso   1.000  C
  C288     1.0000 0.69580  0.86540  0.30690  Biso   1.000  C
  H233     1.0000 0.17230  0.67570  0.79070  Biso   1.000  H
  H234     1.0000 0.82770  0.67570  0.70930  Biso   1.000  H
  H235     1.0000 0.67230  0.17570  0.79070  Biso   1.000  H
  H236     1.0000 0.32770  0.17570  0.70930  Biso   1.000  H
  H237     1.0000 0.82770  0.32430  0.20930  Biso   1.000  H
  H238     1.0000 0.17230  0.32430  0.29070  Biso   1.000  H
  H239     1.0000 0.32770  0.82430  0.20930  Biso   1.000  H
  H240     1.0000 0.67230  0.82430  0.29070  Biso   1.000  H
  C289     1.0000 0.24450  0.66130  0.82430  Biso   1.000  C
  C290     1.0000 0.75550  0.66130  0.67570  Biso   1.000  C
  C291     1.0000 0.74450  0.16130  0.82430  Biso   1.000  C
  C292     1.0000 0.25550  0.16130  0.67570  Biso   1.000  C
  C293     1.0000 0.75550  0.33870  0.17570  Biso   1.000  C
  C294     1.0000 0.24450  0.33870  0.32430  Biso   1.000  C
  C295     1.0000 0.25550  0.83870  0.17570  Biso   1.000  C
  C296     1.0000 0.74450  0.83870  0.32430  Biso   1.000  C
  H241     1.0000 0.25420  0.72060  0.82090  Biso   1.000  H
  H242     1.0000 0.74580  0.72060  0.67910  Biso   1.000  H
  H243     1.0000 0.75420  0.22060  0.82090  Biso   1.000  H
  H244     1.0000 0.24580  0.22060  0.67910  Biso   1.000  H
  H245     1.0000 0.74580  0.27940  0.17910  Biso   1.000  H
  H246     1.0000 0.25420  0.27940  0.32090  Biso   1.000  H
  H247     1.0000 0.24580  0.77940  0.17910  Biso   1.000  H
  H248     1.0000 0.75420  0.77940  0.32090  Biso   1.000  H
  C297     1.0000 0.27760  0.59710  0.84680  Biso   1.000  C
  C298     1.0000 0.72240  0.59710  0.65320  Biso   1.000  C
  C299     1.0000 0.77760  0.09710  0.84680  Biso   1.000  C
  C300     1.0000 0.22240  0.09710  0.65320  Biso   1.000  C
  C301     1.0000 0.72240  0.40290  0.15320  Biso   1.000  C
  C302     1.0000 0.27760  0.40290  0.34680  Biso   1.000  C
  C303     1.0000 0.22240  0.90290  0.15320  Biso   1.000  C
  C304     1.0000 0.77760  0.90290  0.34680  Biso   1.000  C
  H249     1.0000 0.31050  0.61410  0.85780  Biso   1.000  H
  H250     1.0000 0.68950  0.61410  0.64220  Biso   1.000  H
  H251     1.0000 0.81050  0.11410  0.85780  Biso   1.000  H
  H252     1.0000 0.18950  0.11410  0.64220  Biso   1.000  H
  H253     1.0000 0.68950  0.38590  0.14220  Biso   1.000  H
  H254     1.0000 0.31050  0.38590  0.35780  Biso   1.000  H
  H255     1.0000 0.18950  0.88590  0.14220  Biso   1.000  H
  H256     1.0000 0.81050  0.88590  0.35780  Biso   1.000  H
  C305     1.0000 0.37440  0.42710  0.14010  Biso   1.000  C
  C306     1.0000 0.62560  0.42710  0.35990  Biso   1.000  C
  C307     1.0000 0.87440  0.92710  0.14010  Biso   1.000  C
  C308     1.0000 0.12560  0.92710  0.35990  Biso   1.000  C
  C309     1.0000 0.62560  0.57290  0.85990  Biso   1.000  C
  C310     1.0000 0.37440  0.57290  0.64010  Biso   1.000  C
  C311     1.0000 0.12560  0.07290  0.85990  Biso   1.000  C
  C312     1.0000 0.87440  0.07290  0.64010  Biso   1.000  C
  H257     1.0000 0.34070  0.42000  0.12700  Biso   1.000  H
  H258     1.0000 0.65930  0.42000  0.37300  Biso   1.000  H
  H259     1.0000 0.84070  0.92000  0.12700  Biso   1.000  H
  H260     1.0000 0.15930  0.92000  0.37300  Biso   1.000  H
  H261     1.0000 0.65930  0.58000  0.87300  Biso   1.000  H
  H262     1.0000 0.34070  0.58000  0.62700  Biso   1.000  H
  H263     1.0000 0.15930  0.08000  0.87300  Biso   1.000  H
  H264     1.0000 0.84070  0.08000  0.62700  Biso   1.000  H
  C313     1.0000 0.40090  0.35580  0.16490  Biso   1.000  C
  C314     1.0000 0.59910  0.35580  0.33510  Biso   1.000  C
  C315     1.0000 0.90090  0.85580  0.16490  Biso   1.000  C
  C316     1.0000 0.09910  0.85580  0.33510  Biso   1.000  C
  C317     1.0000 0.59910  0.64420  0.83510  Biso   1.000  C
  C318     1.0000 0.40090  0.64420  0.66490  Biso   1.000  C
  C319     1.0000 0.09910  0.14420  0.83510  Biso   1.000  C
  C320     1.0000 0.90090  0.14420  0.66490  Biso   1.000  C
  H265     1.0000 0.38570  0.30060  0.16760  Biso   1.000  H
  H266     1.0000 0.61430  0.30060  0.33240  Biso   1.000  H
  H267     1.0000 0.88570  0.80060  0.16760  Biso   1.000  H
  H268     1.0000 0.11430  0.80060  0.33240  Biso   1.000  H
  H269     1.0000 0.61430  0.69940  0.83240  Biso   1.000  H
  H270     1.0000 0.38570  0.69940  0.66760  Biso   1.000  H
  H271     1.0000 0.11430  0.19940  0.83240  Biso   1.000  H
  H272     1.0000 0.88570  0.19940  0.66760  Biso   1.000  H
  C321     1.0000 0.45070  0.36850  0.18590  Biso   1.000  C
  C322     1.0000 0.54930  0.36850  0.31410  Biso   1.000  C
  C323     1.0000 0.95070  0.86850  0.18590  Biso   1.000  C
  C324     1.0000 0.04930  0.86850  0.31410  Biso   1.000  C
  C325     1.0000 0.54930  0.63150  0.81410  Biso   1.000  C
  C326     1.0000 0.45070  0.63150  0.68590  Biso   1.000  C
  C327     1.0000 0.04930  0.13150  0.81410  Biso   1.000  C
  C328     1.0000 0.95070  0.13150  0.68590  Biso   1.000  C
  H273     1.0000 0.46920  0.32220  0.20360  Biso   1.000  H
  H274     1.0000 0.53080  0.32220  0.29640  Biso   1.000  H
  H275     1.0000 0.96920  0.82220  0.20360  Biso   1.000  H
  H276     1.0000 0.03080  0.82220  0.29640  Biso   1.000  H
  H277     1.0000 0.53080  0.67780  0.79640  Biso   1.000  H
  H278     1.0000 0.46920  0.67780  0.70360  Biso   1.000  H
  H279     1.0000 0.03080  0.17780  0.79640  Biso   1.000  H
  H280     1.0000 0.96920  0.17780  0.70360  Biso   1.000  H
  C329     1.0000 0.47250  0.44980  0.18040  Biso   1.000  C
  C330     1.0000 0.52750  0.44980  0.31960  Biso   1.000  C
  C331     1.0000 0.97250  0.94980  0.18040  Biso   1.000  C
  C332     1.0000 0.02750  0.94980  0.31960  Biso   1.000  C
  C333     1.0000 0.52750  0.55020  0.81960  Biso   1.000  C
  C334     1.0000 0.47250  0.55020  0.68040  Biso   1.000  C
  C335     1.0000 0.02750  0.05020  0.81960  Biso   1.000  C
  C336     1.0000 0.97250  0.05020  0.68040  Biso   1.000  C
  H281     1.0000 0.50600  0.45850  0.19390  Biso   1.000  H
  H282     1.0000 0.49400  0.45850  0.30610  Biso   1.000  H
  H283     1.0000 0.00600  0.95850  0.19390  Biso   1.000  H
  H284     1.0000 0.99400  0.95850  0.30610  Biso   1.000  H
  H285     1.0000 0.49400  0.54150  0.80610  Biso   1.000  H
  H286     1.0000 0.50600  0.54150  0.69390  Biso   1.000  H
  H287     1.0000 0.99400  0.04150  0.80610  Biso   1.000  H
  H288     1.0000 0.00600  0.04150  0.69390  Biso   1.000  H
  C337     1.0000 0.44400  0.51930  0.15430  Biso   1.000  C
  C338     1.0000 0.55600  0.51930  0.34570  Biso   1.000  C
  C339     1.0000 0.94400  0.01930  0.15430  Biso   1.000  C
  C340     1.0000 0.05600  0.01930  0.34570  Biso   1.000  C
  C341     1.0000 0.55600  0.48070  0.84570  Biso   1.000  C
  C342     1.0000 0.44400  0.48070  0.65430  Biso   1.000  C
  C343     1.0000 0.05600  0.98070  0.84570  Biso   1.000  C
  C344     1.0000 0.94400  0.98070  0.65430  Biso   1.000  C
  C345     1.0000 0.46300  0.60960  0.14380  Biso   1.000  C
  C346     1.0000 0.53700  0.60960  0.35620  Biso   1.000  C
  C347     1.0000 0.96300  0.10960  0.14380  Biso   1.000  C
  C348     1.0000 0.03700  0.10960  0.35620  Biso   1.000  C
  C349     1.0000 0.53700  0.39040  0.85620  Biso   1.000  C
  C350     1.0000 0.46300  0.39040  0.64380  Biso   1.000  C
  C351     1.0000 0.03700  0.89040  0.85620  Biso   1.000  C
  C352     1.0000 0.96300  0.89040  0.64380  Biso   1.000  C
  H289     1.0000 0.49200  0.62560  0.16880  Biso   1.000  H
  H290     1.0000 0.50800  0.62560  0.33120  Biso   1.000  H
  H291     1.0000 0.99200  0.12560  0.16880  Biso   1.000  H
  H292     1.0000 0.00800  0.12560  0.33120  Biso   1.000  H
  H293     1.0000 0.50800  0.37440  0.83120  Biso   1.000  H
  H294     1.0000 0.49200  0.37440  0.66880  Biso   1.000  H
  H295     1.0000 0.00800  0.87440  0.83120  Biso   1.000  H
  H296     1.0000 0.99200  0.87440  0.66880  Biso   1.000  H
  H297     1.0000 0.47220  0.60740  0.11360  Biso   1.000  H
  H298     1.0000 0.52780  0.60740  0.38640  Biso   1.000  H
  H299     1.0000 0.97220  0.10740  0.11360  Biso   1.000  H
  H300     1.0000 0.02780  0.10740  0.38640  Biso   1.000  H
  H301     1.0000 0.52780  0.39260  0.88640  Biso   1.000  H
  H302     1.0000 0.47220  0.39260  0.61360  Biso   1.000  H
  H303     1.0000 0.02780  0.89260  0.88640  Biso   1.000  H
  H304     1.0000 0.97220  0.89260  0.61360  Biso   1.000  H
  C353     1.0000 0.42990  0.75880  0.11260  Biso   1.000  C
  C354     1.0000 0.57010  0.75880  0.38740  Biso   1.000  C
  C355     1.0000 0.92990  0.25880  0.11260  Biso   1.000  C
  C356     1.0000 0.07010  0.25880  0.38740  Biso   1.000  C
  C357     1.0000 0.57010  0.24120  0.88740  Biso   1.000  C
  C358     1.0000 0.42990  0.24120  0.61260  Biso   1.000  C
  C359     1.0000 0.07010  0.74120  0.88740  Biso   1.000  C
  C360     1.0000 0.92990  0.74120  0.61260  Biso   1.000  C
  H305     1.0000 0.44710  0.74170  0.08870  Biso   1.000  H
  H306     1.0000 0.55290  0.74170  0.41130  Biso   1.000  H
  H307     1.0000 0.94710  0.24170  0.08870  Biso   1.000  H
  H308     1.0000 0.05290  0.24170  0.41130  Biso   1.000  H
  H309     1.0000 0.55290  0.25830  0.91130  Biso   1.000  H
  H310     1.0000 0.44710  0.25830  0.58870  Biso   1.000  H
  H311     1.0000 0.05290  0.75830  0.91130  Biso   1.000  H
  H312     1.0000 0.94710  0.75830  0.58870  Biso   1.000  H
  H313     1.0000 0.44950  0.80410  0.13330  Biso   1.000  H
  H314     1.0000 0.55050  0.80410  0.36670  Biso   1.000  H
  H315     1.0000 0.94950  0.30410  0.13330  Biso   1.000  H
  H316     1.0000 0.05050  0.30410  0.36670  Biso   1.000  H
  H317     1.0000 0.55050  0.19590  0.86670  Biso   1.000  H
  H318     1.0000 0.44950  0.19590  0.63330  Biso   1.000  H
  H319     1.0000 0.05050  0.69590  0.86670  Biso   1.000  H
  H320     1.0000 0.94950  0.69590  0.63330  Biso   1.000  H
  C361     1.0000 0.38060  0.79760  0.08850  Biso   1.000  C
  C362     1.0000 0.61940  0.79760  0.41150  Biso   1.000  C
  C363     1.0000 0.88060  0.29760  0.08850  Biso   1.000  C
  C364     1.0000 0.11940  0.29760  0.41150  Biso   1.000  C
  C365     1.0000 0.61940  0.20240  0.91150  Biso   1.000  C
  C366     1.0000 0.38060  0.20240  0.58850  Biso   1.000  C
  C367     1.0000 0.11940  0.70240  0.91150  Biso   1.000  C
  C368     1.0000 0.88060  0.70240  0.58850  Biso   1.000  C
  C369     1.0000 0.37390  0.88740  0.07270  Biso   1.000  C
  C370     1.0000 0.62610  0.88740  0.42730  Biso   1.000  C
  C371     1.0000 0.87390  0.38740  0.07270  Biso   1.000  C
  C372     1.0000 0.12610  0.38740  0.42730  Biso   1.000  C
  C373     1.0000 0.62610  0.11260  0.92730  Biso   1.000  C
  C374     1.0000 0.37390  0.11260  0.57270  Biso   1.000  C
  C375     1.0000 0.12610  0.61260  0.92730  Biso   1.000  C
  C376     1.0000 0.87390  0.61260  0.57270  Biso   1.000  C
  H321     1.0000 0.40030  0.92750  0.07800  Biso   1.000  H
  H322     1.0000 0.59970  0.92750  0.42200  Biso   1.000  H
  H323     1.0000 0.90030  0.42750  0.07800  Biso   1.000  H
  H324     1.0000 0.09970  0.42750  0.42200  Biso   1.000  H
  H325     1.0000 0.59970  0.07250  0.92200  Biso   1.000  H
  H326     1.0000 0.40030  0.07250  0.57800  Biso   1.000  H
  H327     1.0000 0.09970  0.57250  0.92200  Biso   1.000  H
  H328     1.0000 0.90030  0.57250  0.57800  Biso   1.000  H
  C377     1.0000 0.32680  0.91490  0.04910  Biso   1.000  C
  C378     1.0000 0.67320  0.91490  0.45090  Biso   1.000  C
  C379     1.0000 0.82680  0.41490  0.04910  Biso   1.000  C
  C380     1.0000 0.17320  0.41490  0.45090  Biso   1.000  C
  C381     1.0000 0.67320  0.08510  0.95090  Biso   1.000  C
  C382     1.0000 0.32680  0.08510  0.54910  Biso   1.000  C
  C383     1.0000 0.17320  0.58510  0.95090  Biso   1.000  C
  C384     1.0000 0.82680  0.58510  0.54910  Biso   1.000  C
  H329     1.0000 0.32150  0.97400  0.03780  Biso   1.000  H
  H330     1.0000 0.67850  0.97400  0.46220  Biso   1.000  H
  H331     1.0000 0.82150  0.47400  0.03780  Biso   1.000  H
  H332     1.0000 0.17850  0.47400  0.46220  Biso   1.000  H
  H333     1.0000 0.67850  0.02600  0.96220  Biso   1.000  H
  H334     1.0000 0.32150  0.02600  0.53780  Biso   1.000  H
  H335     1.0000 0.17850  0.52600  0.96220  Biso   1.000  H
  H336     1.0000 0.82150  0.52600  0.53780  Biso   1.000  H
  C385     1.0000 0.28800  0.85520  0.04230  Biso   1.000  C
  C386     1.0000 0.71200  0.85520  0.45770  Biso   1.000  C
  C387     1.0000 0.78800  0.35520  0.04230  Biso   1.000  C
  C388     1.0000 0.21200  0.35520  0.45770  Biso   1.000  C
  C389     1.0000 0.71200  0.14480  0.95770  Biso   1.000  C
  C390     1.0000 0.28800  0.14480  0.54230  Biso   1.000  C
  C391     1.0000 0.21200  0.64480  0.95770  Biso   1.000  C
  C392     1.0000 0.78800  0.64480  0.54230  Biso   1.000  C
  H337     1.0000 0.25630  0.87340  0.02650  Biso   1.000  H
  H338     1.0000 0.74370  0.87340  0.47350  Biso   1.000  H
  H339     1.0000 0.75630  0.37340  0.02650  Biso   1.000  H
  H340     1.0000 0.24370  0.37340  0.47350  Biso   1.000  H
  H341     1.0000 0.74370  0.12660  0.97350  Biso   1.000  H
  H342     1.0000 0.25630  0.12660  0.52650  Biso   1.000  H
  H343     1.0000 0.24370  0.62660  0.97350  Biso   1.000  H
  H344     1.0000 0.75630  0.62660  0.52650  Biso   1.000  H
  C393     1.0000 0.29710  0.76800  0.05930  Biso   1.000  C
  C394     1.0000 0.70290  0.76800  0.44070  Biso   1.000  C
  C395     1.0000 0.79710  0.26800  0.05930  Biso   1.000  C
  C396     1.0000 0.20290  0.26800  0.44070  Biso   1.000  C
  C397     1.0000 0.70290  0.23200  0.94070  Biso   1.000  C
  C398     1.0000 0.29710  0.23200  0.55930  Biso   1.000  C
  C399     1.0000 0.20290  0.73200  0.94070  Biso   1.000  C
  C400     1.0000 0.79710  0.73200  0.55930  Biso   1.000  C
  H345     1.0000 0.27090  0.72770  0.05550  Biso   1.000  H
  H346     1.0000 0.72910  0.72770  0.44450  Biso   1.000  H
  H347     1.0000 0.77090  0.22770  0.05550  Biso   1.000  H
  H348     1.0000 0.22910  0.22770  0.44450  Biso   1.000  H
  H349     1.0000 0.72910  0.27230  0.94450  Biso   1.000  H
  H350     1.0000 0.27090  0.27230  0.55550  Biso   1.000  H
  H351     1.0000 0.22910  0.77230  0.94450  Biso   1.000  H
  H352     1.0000 0.77090  0.77230  0.55550  Biso   1.000  H
  C401     1.0000 0.41750  0.70210  0.18960  Biso   1.000  C
  C402     1.0000 0.58250  0.70210  0.31040  Biso   1.000  C
  C403     1.0000 0.91750  0.20210  0.18960  Biso   1.000  C
  C404     1.0000 0.08250  0.20210  0.31040  Biso   1.000  C
  C405     1.0000 0.58250  0.29790  0.81040  Biso   1.000  C
  C406     1.0000 0.41750  0.29790  0.68960  Biso   1.000  C
  C407     1.0000 0.08250  0.79790  0.81040  Biso   1.000  C
  C408     1.0000 0.91750  0.79790  0.68960  Biso   1.000  C
  H353     1.0000 0.41230  0.64670  0.20580  Biso   1.000  H
  H354     1.0000 0.58770  0.64670  0.29420  Biso   1.000  H
  H355     1.0000 0.91230  0.14670  0.20580  Biso   1.000  H
  H356     1.0000 0.08770  0.14670  0.29420  Biso   1.000  H
  H357     1.0000 0.58770  0.35330  0.79420  Biso   1.000  H
  H358     1.0000 0.41230  0.35330  0.70580  Biso   1.000  H
  H359     1.0000 0.08770  0.85330  0.79420  Biso   1.000  H
  H360     1.0000 0.91230  0.85330  0.70580  Biso   1.000  H
  H361     1.0000 0.38810  0.73870  0.18560  Biso   1.000  H
  H362     1.0000 0.61190  0.73870  0.31440  Biso   1.000  H
  H363     1.0000 0.88810  0.23870  0.18560  Biso   1.000  H
  H364     1.0000 0.11190  0.23870  0.31440  Biso   1.000  H
  H365     1.0000 0.61190  0.26130  0.81440  Biso   1.000  H
  H366     1.0000 0.38810  0.26130  0.68560  Biso   1.000  H
  H367     1.0000 0.11190  0.76130  0.81440  Biso   1.000  H
  H368     1.0000 0.88810  0.76130  0.68560  Biso   1.000  H
  C409     1.0000 0.45990  0.75240  0.22140  Biso   1.000  C
  C410     1.0000 0.54010  0.75240  0.27860  Biso   1.000  C
  C411     1.0000 0.95990  0.25240  0.22140  Biso   1.000  C
  C412     1.0000 0.04010  0.25240  0.27860  Biso   1.000  C
  C413     1.0000 0.54010  0.24760  0.77860  Biso   1.000  C
  C414     1.0000 0.45990  0.24760  0.72140  Biso   1.000  C
  C415     1.0000 0.04010  0.74760  0.77860  Biso   1.000  C
  C416     1.0000 0.95990  0.74760  0.72140  Biso   1.000  C
  C417     1.0000 0.46060  0.84640  0.22260  Biso   1.000  C
  C418     1.0000 0.53940  0.84640  0.27740  Biso   1.000  C
  C419     1.0000 0.96060  0.34640  0.22260  Biso   1.000  C
  C420     1.0000 0.03940  0.34640  0.27740  Biso   1.000  C
  C421     1.0000 0.53940  0.15360  0.77740  Biso   1.000  C
  C422     1.0000 0.46060  0.15360  0.72260  Biso   1.000  C
  C423     1.0000 0.03940  0.65360  0.77740  Biso   1.000  C
  C424     1.0000 0.96060  0.65360  0.72260  Biso   1.000  C
  H369     1.0000 0.43370  0.87830  0.20440  Biso   1.000  H
  H370     1.0000 0.56630  0.87830  0.29560  Biso   1.000  H
  H371     1.0000 0.93370  0.37830  0.20440  Biso   1.000  H
  H372     1.0000 0.06630  0.37830  0.29560  Biso   1.000  H
  H373     1.0000 0.56630  0.12170  0.79560  Biso   1.000  H
  H374     1.0000 0.43370  0.12170  0.70440  Biso   1.000  H
  H375     1.0000 0.06630  0.62170  0.79560  Biso   1.000  H
  H376     1.0000 0.93370  0.62170  0.70440  Biso   1.000  H
  C425     1.0000 0.50000  0.89340  0.25000  Biso   1.000  C
  C426     1.0000 0.00000  0.39340  0.25000  Biso   1.000  C
  C427     1.0000 0.50000  0.10660  0.75000  Biso   1.000  C
  C428     1.0000 0.00000  0.60660  0.75000  Biso   1.000  C
  H377     1.0000 0.50000  0.95640  0.25000  Biso   1.000  H
  H378     1.0000 0.00000  0.45640  0.25000  Biso   1.000  H
  H379     1.0000 0.50000  0.04360  0.75000  Biso   1.000  H
  H380     1.0000 0.00000  0.54360  0.75000  Biso   1.000  H
  C429     1.0000 0.50000  0.70590  0.25000  Biso   1.000  C
  C430     1.0000 0.00000  0.20590  0.25000  Biso   1.000  C
  C431     1.0000 0.50000  0.29410  0.75000  Biso   1.000  C
  C432     1.0000 0.00000  0.79410  0.75000  Biso   1.000  C
  H381     1.0000 0.50000  0.64290  0.25000  Biso   1.000  H
  H382     1.0000 0.00000  0.14290  0.25000  Biso   1.000  H
  H383     1.0000 0.50000  0.35710  0.75000  Biso   1.000  H
  H384     1.0000 0.00000  0.85710  0.75000  Biso   1.000  H
  O145     1.0000 0.02650  0.24040  0.48228  Biso   1.000  O
  O146     1.0000 0.97350  0.24040  0.01772  Biso   1.000  O
  O147     1.0000 0.52650  0.74040  0.48228  Biso   1.000  O
  O148     1.0000 0.47350  0.74040  0.01772  Biso   1.000  O
  O149     1.0000 0.97350  0.75960  0.51772  Biso   1.000  O
  O150     1.0000 0.02650  0.75960  0.98228  Biso   1.000  O
  O151     1.0000 0.47350  0.25960  0.51772  Biso   1.000  O
  O152     1.0000 0.52650  0.25960  0.98228  Biso   1.000  O
  H385     1.0000 0.03890  0.28740  0.49330  Biso   1.000  H
  H386     1.0000 0.96110  0.28740  0.00670  Biso   1.000  H
  H387     1.0000 0.53890  0.78740  0.49330  Biso   1.000  H
  H388     1.0000 0.46110  0.78740  0.00670  Biso   1.000  H
  H389     1.0000 0.96110  0.71260  0.50670  Biso   1.000  H
  H390     1.0000 0.03890  0.71260  0.99330  Biso   1.000  H
  H391     1.0000 0.46110  0.21260  0.50670  Biso   1.000  H
  H392     1.0000 0.53890  0.21260  0.99330  Biso   1.000  H
  H393     1.0000 0.04630  0.19960  0.48810  Biso   1.000  H
  H394     1.0000 0.95370  0.19960  0.01190  Biso   1.000  H
  H395     1.0000 0.54630  0.69960  0.48810  Biso   1.000  H
  H396     1.0000 0.45370  0.69960  0.01190  Biso   1.000  H
  H397     1.0000 0.95370  0.80040  0.51190  Biso   1.000  H
  H398     1.0000 0.04630  0.80040  0.98810  Biso   1.000  H
  H399     1.0000 0.45370  0.30040  0.51190  Biso   1.000  H
  H400     1.0000 0.54630  0.30040  0.98810  Biso   1.000  H
  O153     1.0000 0.18180  0.36220  0.97070  Biso   1.000  O
  O154     1.0000 0.81820  0.36220  0.52930  Biso   1.000  O
  O155     1.0000 0.68180  0.86220  0.97070  Biso   1.000  O
  O156     1.0000 0.31820  0.86220  0.52930  Biso   1.000  O
  O157     1.0000 0.81820  0.63780  0.02930  Biso   1.000  O
  O158     1.0000 0.18180  0.63780  0.47070  Biso   1.000  O
  O159     1.0000 0.31820  0.13780  0.02930  Biso   1.000  O
  O160     1.0000 0.68180  0.13780  0.47070  Biso   1.000  O
  H401     1.0000 0.20715  0.38201  0.96687  Biso   1.000  H
  H402     1.0000 0.79285  0.38201  0.53313  Biso   1.000  H
  H403     1.0000 0.70715  0.88201  0.96687  Biso   1.000  H
  H404     1.0000 0.29285  0.88201  0.53313  Biso   1.000  H
  H405     1.0000 0.79285  0.61799  0.03313  Biso   1.000  H
  H406     1.0000 0.20715  0.61799  0.46687  Biso   1.000  H
  H407     1.0000 0.29285  0.11799  0.03313  Biso   1.000  H
  H408     1.0000 0.70715  0.11799  0.46687  Biso   1.000  H
  H409     1.0000 0.16100  0.36046  0.94600  Biso   1.000  H
  H410     1.0000 0.83900  0.36046  0.55400  Biso   1.000  H
  H411     1.0000 0.66100  0.86046  0.94600  Biso   1.000  H
  H412     1.0000 0.33900  0.86046  0.55400  Biso   1.000  H
  H413     1.0000 0.83900  0.63954  0.05400  Biso   1.000  H
  H414     1.0000 0.16100  0.63954  0.44600  Biso   1.000  H
  H415     1.0000 0.33900  0.13954  0.05400  Biso   1.000  H
  H416     1.0000 0.66100  0.13954  0.44600  Biso   1.000  H
  H417     1.0000 0.25984  0.32929  0.99425  Biso   1.000  H
  H418     1.0000 0.74016  0.32929  0.50575  Biso   1.000  H
  H419     1.0000 0.75984  0.82929  0.99425  Biso   1.000  H
  H420     1.0000 0.24016  0.82929  0.50575  Biso   1.000  H
  H421     1.0000 0.74016  0.67071  0.00575  Biso   1.000  H
  H422     1.0000 0.25984  0.67071  0.49425  Biso   1.000  H
  H423     1.0000 0.24016  0.17071  0.00575  Biso   1.000  H
  H424     1.0000 0.75984  0.17071  0.49425  Biso   1.000  H
  H425     1.0000 0.27359  0.24365  0.01537  Biso   1.000  H
  H426     1.0000 0.72641  0.24365  0.48463  Biso   1.000  H
  H427     1.0000 0.77359  0.74365  0.01537  Biso   1.000  H
  H428     1.0000 0.22641  0.74365  0.48463  Biso   1.000  H
  H429     1.0000 0.72641  0.75635  0.98463  Biso   1.000  H
  H430     1.0000 0.27359  0.75635  0.51537  Biso   1.000  H
  H431     1.0000 0.22641  0.25635  0.98463  Biso   1.000  H
  H432     1.0000 0.77359  0.25635  0.51537  Biso   1.000  H
  H433     1.0000 0.15437  0.24619  0.93701  Biso   1.000  H
  H434     1.0000 0.84563  0.24619  0.56299  Biso   1.000  H
  H435     1.0000 0.65437  0.74619  0.93701  Biso   1.000  H
  H436     1.0000 0.34563  0.74619  0.56299  Biso   1.000  H
  H437     1.0000 0.84563  0.75381  0.06299  Biso   1.000  H
  H438     1.0000 0.15437  0.75381  0.43701  Biso   1.000  H
  H439     1.0000 0.34563  0.25381  0.06299  Biso   1.000  H
  H440     1.0000 0.65437  0.25381  0.43701  Biso   1.000  H
  H441     1.0000 0.19528  0.23299  0.97143  Biso   1.000  H
  H442     1.0000 0.80472  0.23299  0.52857  Biso   1.000  H
  H443     1.0000 0.69528  0.73299  0.97143  Biso   1.000  H
  H444     1.0000 0.30472  0.73299  0.52857  Biso   1.000  H
  H445     1.0000 0.80472  0.76701  0.02857  Biso   1.000  H
  H446     1.0000 0.19528  0.76701  0.47143  Biso   1.000  H
  H447     1.0000 0.30472  0.26701  0.02857  Biso   1.000  H
  H448     1.0000 0.69528  0.26701  0.47143  Biso   1.000  H
  O161     1.0000 0.25560  0.28650  0.00970  Biso   1.000  O
  O162     1.0000 0.74440  0.28650  0.49030  Biso   1.000  O
  O163     1.0000 0.75560  0.78650  0.00970  Biso   1.000  O
  O164     1.0000 0.24440  0.78650  0.49030  Biso   1.000  O
  O165     1.0000 0.74440  0.71350  0.99030  Biso   1.000  O
  O166     1.0000 0.25560  0.71350  0.50970  Biso   1.000  O
  O167     1.0000 0.24440  0.21350  0.99030  Biso   1.000  O
  O168     1.0000 0.75560  0.21350  0.50970  Biso   1.000  O
  O169     1.0000 0.17040  0.21090  0.95560  Biso   1.000  O
  O170     1.0000 0.82960  0.21090  0.54440  Biso   1.000  O
  O171     1.0000 0.67040  0.71090  0.95560  Biso   1.000  O
  O172     1.0000 0.32960  0.71090  0.54440  Biso   1.000  O
  O173     1.0000 0.82960  0.78910  0.04440  Biso   1.000  O
  O174     1.0000 0.17040  0.78910  0.45560  Biso   1.000  O
  O175     1.0000 0.32960  0.28910  0.04440  Biso   1.000  O
  O176     1.0000 0.67040  0.28910  0.45560  Biso   1.000  O
