data_image0
_cell_length_a       34.913
_cell_length_b       35.76
_cell_length_c       16.601
_cell_angle_alpha    90
_cell_angle_beta     90
_cell_angle_gamma    90

_symmetry_space_group_name_H-M    "P 1"
_symmetry_int_tables_number       1

loop_
  _symmetry_equiv_pos_as_xyz
  'x, y, z'

loop_
  _atom_site_label
  _atom_site_occupancy
  _atom_site_fract_x
  _atom_site_fract_y
  _atom_site_fract_z
  _atom_site_thermal_displace_type
  _atom_site_B_iso_or_equiv
  _atom_site_type_symbol
  P1       1.0000 0.16608  0.47632  0.22532  Biso   1.000  P
  P2       1.0000 0.83392  0.52368  0.22532  Biso   1.000  P
  P3       1.0000 0.66608  0.02368  0.22532  Biso   1.000  P
  P4       1.0000 0.33392  0.97632  0.22532  Biso   1.000  P
  P5       1.0000 0.16608  0.97632  0.72532  Biso   1.000  P
  P6       1.0000 0.83392  0.02368  0.72532  Biso   1.000  P
  P7       1.0000 0.66608  0.52368  0.72532  Biso   1.000  P
  P8       1.0000 0.33392  0.47632  0.72532  Biso   1.000  P
  Mo1      1.0000 0.26392  0.48305  0.28485  Biso   1.000  Mo
  Mo2      1.0000 0.73608  0.51695  0.28485  Biso   1.000  Mo
  Mo3      1.0000 0.76392  0.01695  0.28485  Biso   1.000  Mo
  Mo4      1.0000 0.23608  0.98305  0.28485  Biso   1.000  Mo
  Mo5      1.0000 0.26392  0.98305  0.78485  Biso   1.000  Mo
  Mo6      1.0000 0.73608  0.01695  0.78485  Biso   1.000  Mo
  Mo7      1.0000 0.76392  0.51695  0.78485  Biso   1.000  Mo
  Mo8      1.0000 0.23608  0.48305  0.78485  Biso   1.000  Mo
  Mo9      1.0000 0.13768  0.50515  0.02998  Biso   1.000  Mo
  Mo10     1.0000 0.86232  0.49485  0.02998  Biso   1.000  Mo
  Mo11     1.0000 0.63768  0.99485  0.02998  Biso   1.000  Mo
  Mo12     1.0000 0.36232  0.00515  0.02998  Biso   1.000  Mo
  Mo13     1.0000 0.13768  0.00515  0.52998  Biso   1.000  Mo
  Mo14     1.0000 0.86232  0.99485  0.52998  Biso   1.000  Mo
  Mo15     1.0000 0.63768  0.49485  0.52998  Biso   1.000  Mo
  Mo16     1.0000 0.36232  0.50515  0.52998  Biso   1.000  Mo
  Mo17     1.0000 0.21779  0.39146  0.24951  Biso   1.000  Mo
  Mo18     1.0000 0.78221  0.60854  0.24951  Biso   1.000  Mo
  Mo19     1.0000 0.71779  0.10854  0.24951  Biso   1.000  Mo
  Mo20     1.0000 0.28221  0.89146  0.24951  Biso   1.000  Mo
  Mo21     1.0000 0.21779  0.89146  0.74951  Biso   1.000  Mo
  Mo22     1.0000 0.78221  0.10854  0.74951  Biso   1.000  Mo
  Mo23     1.0000 0.71779  0.60854  0.74951  Biso   1.000  Mo
  Mo24     1.0000 0.28221  0.39146  0.74951  Biso   1.000  Mo
  Mo25     1.0000 0.11153  0.55896  0.19038  Biso   1.000  Mo
  Mo26     1.0000 0.88847  0.44104  0.19038  Biso   1.000  Mo
  Mo27     1.0000 0.61153  0.94104  0.19038  Biso   1.000  Mo
  Mo28     1.0000 0.38847  0.05896  0.19038  Biso   1.000  Mo
  Mo29     1.0000 0.11153  0.05896  0.69038  Biso   1.000  Mo
  Mo30     1.0000 0.88847  0.94104  0.69038  Biso   1.000  Mo
  Mo31     1.0000 0.61153  0.44104  0.69038  Biso   1.000  Mo
  Mo32     1.0000 0.38847  0.55896  0.69038  Biso   1.000  Mo
  Mo33     1.0000 0.23708  0.51828  0.10146  Biso   1.000  Mo
  Mo34     1.0000 0.76292  0.48172  0.10146  Biso   1.000  Mo
  Mo35     1.0000 0.73708  0.98172  0.10146  Biso   1.000  Mo
  Mo36     1.0000 0.26292  0.01828  0.10146  Biso   1.000  Mo
  Mo37     1.0000 0.23708  0.01828  0.60146  Biso   1.000  Mo
  Mo38     1.0000 0.76292  0.98172  0.60146  Biso   1.000  Mo
  Mo39     1.0000 0.73708  0.48172  0.60146  Biso   1.000  Mo
  Mo40     1.0000 0.26292  0.51828  0.60146  Biso   1.000  Mo
  Mo41     1.0000 0.21063  0.56320  0.27456  Biso   1.000  Mo
  Mo42     1.0000 0.78937  0.43680  0.27456  Biso   1.000  Mo
  Mo43     1.0000 0.71063  0.93680  0.27456  Biso   1.000  Mo
  Mo44     1.0000 0.28937  0.06320  0.27456  Biso   1.000  Mo
  Mo45     1.0000 0.21063  0.06320  0.77456  Biso   1.000  Mo
  Mo46     1.0000 0.78937  0.93680  0.77456  Biso   1.000  Mo
  Mo47     1.0000 0.71063  0.43680  0.77456  Biso   1.000  Mo
  Mo48     1.0000 0.28937  0.56320  0.77456  Biso   1.000  Mo
  Mo49     1.0000 0.06861  0.47430  0.16085  Biso   1.000  Mo
  Mo50     1.0000 0.93139  0.52570  0.16085  Biso   1.000  Mo
  Mo51     1.0000 0.56861  0.02570  0.16085  Biso   1.000  Mo
  Mo52     1.0000 0.43139  0.97430  0.16085  Biso   1.000  Mo
  Mo53     1.0000 0.06861  0.97430  0.66085  Biso   1.000  Mo
  Mo54     1.0000 0.93139  0.02570  0.66085  Biso   1.000  Mo
  Mo55     1.0000 0.56861  0.52570  0.66085  Biso   1.000  Mo
  Mo56     1.0000 0.43139  0.47430  0.66085  Biso   1.000  Mo
  Mo57     1.0000 0.18956  0.44879  0.42541  Biso   1.000  Mo
  Mo58     1.0000 0.81044  0.55121  0.42541  Biso   1.000  Mo
  Mo59     1.0000 0.68956  0.05121  0.42541  Biso   1.000  Mo
  Mo60     1.0000 0.31044  0.94879  0.42541  Biso   1.000  Mo
  Mo61     1.0000 0.18956  0.94879  0.92541  Biso   1.000  Mo
  Mo62     1.0000 0.81044  0.05121  0.92541  Biso   1.000  Mo
  Mo63     1.0000 0.68956  0.55121  0.92541  Biso   1.000  Mo
  Mo64     1.0000 0.31044  0.44879  0.92541  Biso   1.000  Mo
  Mo65     1.0000 0.12713  0.38737  0.17347  Biso   1.000  Mo
  Mo66     1.0000 0.87287  0.61263  0.17347  Biso   1.000  Mo
  Mo67     1.0000 0.62713  0.11263  0.17347  Biso   1.000  Mo
  Mo68     1.0000 0.37287  0.88737  0.17347  Biso   1.000  Mo
  Mo69     1.0000 0.12713  0.88737  0.67347  Biso   1.000  Mo
  Mo70     1.0000 0.87287  0.11263  0.67347  Biso   1.000  Mo
  Mo71     1.0000 0.62713  0.61263  0.67347  Biso   1.000  Mo
  Mo72     1.0000 0.37287  0.38737  0.67347  Biso   1.000  Mo
  Mo73     1.0000 0.09765  0.43677  0.36027  Biso   1.000  Mo
  Mo74     1.0000 0.90235  0.56323  0.36027  Biso   1.000  Mo
  Mo75     1.0000 0.59765  0.06323  0.36027  Biso   1.000  Mo
  Mo76     1.0000 0.40235  0.93677  0.36027  Biso   1.000  Mo
  Mo77     1.0000 0.09765  0.93677  0.86027  Biso   1.000  Mo
  Mo78     1.0000 0.90235  0.06323  0.86027  Biso   1.000  Mo
  Mo79     1.0000 0.59765  0.56323  0.86027  Biso   1.000  Mo
  Mo80     1.0000 0.40235  0.43677  0.86027  Biso   1.000  Mo
  Mo81     1.0000 0.13169  0.52496  0.39784  Biso   1.000  Mo
  Mo82     1.0000 0.86831  0.47504  0.39784  Biso   1.000  Mo
  Mo83     1.0000 0.63169  0.97504  0.39784  Biso   1.000  Mo
  Mo84     1.0000 0.36831  0.02496  0.39784  Biso   1.000  Mo
  Mo85     1.0000 0.13169  0.02496  0.89784  Biso   1.000  Mo
  Mo86     1.0000 0.86831  0.97504  0.89784  Biso   1.000  Mo
  Mo87     1.0000 0.63169  0.47504  0.89784  Biso   1.000  Mo
  Mo88     1.0000 0.36831  0.52496  0.89784  Biso   1.000  Mo
  Mo89     1.0000 0.19977  0.42272  0.05821  Biso   1.000  Mo
  Mo90     1.0000 0.80023  0.57728  0.05821  Biso   1.000  Mo
  Mo91     1.0000 0.69977  0.07728  0.05821  Biso   1.000  Mo
  Mo92     1.0000 0.30023  0.92272  0.05821  Biso   1.000  Mo
  Mo93     1.0000 0.19977  0.92272  0.55821  Biso   1.000  Mo
  Mo94     1.0000 0.80023  0.07728  0.55821  Biso   1.000  Mo
  Mo95     1.0000 0.69977  0.57728  0.55821  Biso   1.000  Mo
  Mo96     1.0000 0.30023  0.42272  0.55821  Biso   1.000  Mo
  O1       1.0000 0.16723  0.49217  0.46180  Biso   1.000  O
  O2       1.0000 0.83277  0.50783  0.46180  Biso   1.000  O
  O3       1.0000 0.66723  0.00783  0.46180  Biso   1.000  O
  O4       1.0000 0.33277  0.99217  0.46180  Biso   1.000  O
  O5       1.0000 0.16723  0.99217  0.96180  Biso   1.000  O
  O6       1.0000 0.83277  0.00783  0.96180  Biso   1.000  O
  O7       1.0000 0.66723  0.50783  0.96180  Biso   1.000  O
  O8       1.0000 0.33277  0.49217  0.96180  Biso   1.000  O
  O9       1.0000 0.24920  0.35830  0.27260  Biso   1.000  O
  O10      1.0000 0.75080  0.64170  0.27260  Biso   1.000  O
  O11      1.0000 0.74920  0.14170  0.27260  Biso   1.000  O
  O12      1.0000 0.25080  0.85830  0.27260  Biso   1.000  O
  O13      1.0000 0.24920  0.85830  0.77260  Biso   1.000  O
  O14      1.0000 0.75080  0.14170  0.77260  Biso   1.000  O
  O15      1.0000 0.74920  0.64170  0.77260  Biso   1.000  O
  O16      1.0000 0.25080  0.35830  0.77260  Biso   1.000  O
  O17      1.0000 0.09548  0.48657  0.41290  Biso   1.000  O
  O18      1.0000 0.90452  0.51343  0.41290  Biso   1.000  O
  O19      1.0000 0.59548  0.01343  0.41290  Biso   1.000  O
  O20      1.0000 0.40452  0.98657  0.41290  Biso   1.000  O
  O21      1.0000 0.09548  0.98657  0.91290  Biso   1.000  O
  O22      1.0000 0.90452  0.01343  0.91290  Biso   1.000  O
  O23      1.0000 0.59548  0.51343  0.91290  Biso   1.000  O
  O24      1.0000 0.40452  0.48657  0.91290  Biso   1.000  O
  O25      1.0000 0.15539  0.38967  0.07800  Biso   1.000  O
  O26      1.0000 0.84461  0.61033  0.07800  Biso   1.000  O
  O27      1.0000 0.65539  0.11033  0.07800  Biso   1.000  O
  O28      1.0000 0.34461  0.88967  0.07800  Biso   1.000  O
  O29      1.0000 0.15539  0.88967  0.57800  Biso   1.000  O
  O30      1.0000 0.84461  0.11033  0.57800  Biso   1.000  O
  O31      1.0000 0.65539  0.61033  0.57800  Biso   1.000  O
  O32      1.0000 0.34461  0.38967  0.57800  Biso   1.000  O
  O33      1.0000 0.20081  0.40810  0.34590  Biso   1.000  O
  O34      1.0000 0.79919  0.59190  0.34590  Biso   1.000  O
  O35      1.0000 0.70081  0.09190  0.34590  Biso   1.000  O
  O36      1.0000 0.29919  0.90810  0.34590  Biso   1.000  O
  O37      1.0000 0.20081  0.90810  0.84590  Biso   1.000  O
  O38      1.0000 0.79919  0.09190  0.84590  Biso   1.000  O
  O39      1.0000 0.70081  0.59190  0.84590  Biso   1.000  O
  O40      1.0000 0.29919  0.40810  0.84590  Biso   1.000  O
  O41      1.0000 0.27492  0.49960  0.17890  Biso   1.000  O
  O42      1.0000 0.72508  0.50040  0.17890  Biso   1.000  O
  O43      1.0000 0.77492  0.00040  0.17890  Biso   1.000  O
  O44      1.0000 0.22508  0.99960  0.17890  Biso   1.000  O
  O45      1.0000 0.27492  0.99960  0.67890  Biso   1.000  O
  O46      1.0000 0.72508  0.00040  0.67890  Biso   1.000  O
  O47      1.0000 0.77492  0.50040  0.67890  Biso   1.000  O
  O48      1.0000 0.22508  0.49960  0.67890  Biso   1.000  O
  O49      1.0000 0.06630  0.52511  0.18280  Biso   1.000  O
  O50      1.0000 0.93370  0.47489  0.18280  Biso   1.000  O
  O51      1.0000 0.56630  0.97489  0.18280  Biso   1.000  O
  O52      1.0000 0.43370  0.02511  0.18280  Biso   1.000  O
  O53      1.0000 0.06630  0.02511  0.68280  Biso   1.000  O
  O54      1.0000 0.93370  0.97489  0.68280  Biso   1.000  O
  O55      1.0000 0.56630  0.47489  0.68280  Biso   1.000  O
  O56      1.0000 0.43370  0.52511  0.68280  Biso   1.000  O
  O57      1.0000 0.22683  0.39373  0.12960  Biso   1.000  O
  O58      1.0000 0.77317  0.60627  0.12960  Biso   1.000  O
  O59      1.0000 0.72683  0.10627  0.12960  Biso   1.000  O
  O60      1.0000 0.27317  0.89373  0.12960  Biso   1.000  O
  O61      1.0000 0.22683  0.89373  0.62960  Biso   1.000  O
  O62      1.0000 0.77317  0.10627  0.62960  Biso   1.000  O
  O63      1.0000 0.72683  0.60627  0.62960  Biso   1.000  O
  O64      1.0000 0.27317  0.39373  0.62960  Biso   1.000  O
  O65      1.0000 0.10907  0.54320  0.30750  Biso   1.000  O
  O66      1.0000 0.89093  0.45680  0.30750  Biso   1.000  O
  O67      1.0000 0.60907  0.95680  0.30750  Biso   1.000  O
  O68      1.0000 0.39093  0.04320  0.30750  Biso   1.000  O
  O69      1.0000 0.10907  0.04320  0.80750  Biso   1.000  O
  O70      1.0000 0.89093  0.95680  0.80750  Biso   1.000  O
  O71      1.0000 0.60907  0.45680  0.80750  Biso   1.000  O
  O72      1.0000 0.39093  0.54320  0.80750  Biso   1.000  O
  O73      1.0000 0.16170  0.57160  0.21500  Biso   1.000  O
  O74      1.0000 0.83830  0.42840  0.21500  Biso   1.000  O
  O75      1.0000 0.66170  0.92840  0.21500  Biso   1.000  O
  O76      1.0000 0.33830  0.07160  0.21500  Biso   1.000  O
  O77      1.0000 0.16170  0.07160  0.71500  Biso   1.000  O
  O78      1.0000 0.83830  0.92840  0.71500  Biso   1.000  O
  O79      1.0000 0.66170  0.42840  0.71500  Biso   1.000  O
  O80      1.0000 0.33830  0.57160  0.71500  Biso   1.000  O
  O81      1.0000 0.07246  0.46176  0.27040  Biso   1.000  O
  O82      1.0000 0.92754  0.53824  0.27040  Biso   1.000  O
  O83      1.0000 0.57246  0.03824  0.27040  Biso   1.000  O
  O84      1.0000 0.42754  0.96176  0.27040  Biso   1.000  O
  O85      1.0000 0.07246  0.96176  0.77040  Biso   1.000  O
  O86      1.0000 0.92754  0.03824  0.77040  Biso   1.000  O
  O87      1.0000 0.57246  0.53824  0.77040  Biso   1.000  O
  O88      1.0000 0.42754  0.46176  0.77040  Biso   1.000  O
  O89      1.0000 0.20740  0.43010  0.51100  Biso   1.000  O
  O90      1.0000 0.79260  0.56990  0.51100  Biso   1.000  O
  O91      1.0000 0.70740  0.06990  0.51100  Biso   1.000  O
  O92      1.0000 0.29260  0.93010  0.51100  Biso   1.000  O
  O93      1.0000 0.20740  0.93010  0.01100  Biso   1.000  O
  O94      1.0000 0.79260  0.06990  0.01100  Biso   1.000  O
  O95      1.0000 0.70740  0.56990  0.01100  Biso   1.000  O
  O96      1.0000 0.29260  0.43010  0.01100  Biso   1.000  O
  O97      1.0000 0.15227  0.47341  0.31280  Biso   1.000  O
  O98      1.0000 0.84773  0.52659  0.31280  Biso   1.000  O
  O99      1.0000 0.65227  0.02659  0.31280  Biso   1.000  O
  O100     1.0000 0.34773  0.97341  0.31280  Biso   1.000  O
  O101     1.0000 0.15227  0.97341  0.81280  Biso   1.000  O
  O102     1.0000 0.84773  0.02659  0.81280  Biso   1.000  O
  O103     1.0000 0.65227  0.52659  0.81280  Biso   1.000  O
  O104     1.0000 0.34773  0.47341  0.81280  Biso   1.000  O
  O105     1.0000 0.21360  0.40650  0.96850  Biso   1.000  O
  O106     1.0000 0.78640  0.59350  0.96850  Biso   1.000  O
  O107     1.0000 0.71360  0.09350  0.96850  Biso   1.000  O
  O108     1.0000 0.28640  0.90650  0.96850  Biso   1.000  O
  O109     1.0000 0.21360  0.90650  0.46850  Biso   1.000  O
  O110     1.0000 0.78640  0.09350  0.46850  Biso   1.000  O
  O111     1.0000 0.71360  0.59350  0.46850  Biso   1.000  O
  O112     1.0000 0.28640  0.40650  0.46850  Biso   1.000  O
  O113     1.0000 0.15865  0.45859  0.02500  Biso   1.000  O
  O114     1.0000 0.84135  0.54141  0.02500  Biso   1.000  O
  O115     1.0000 0.65865  0.04141  0.02500  Biso   1.000  O
  O116     1.0000 0.34135  0.95859  0.02500  Biso   1.000  O
  O117     1.0000 0.15865  0.95859  0.52500  Biso   1.000  O
  O118     1.0000 0.84135  0.04141  0.52500  Biso   1.000  O
  O119     1.0000 0.65865  0.54141  0.52500  Biso   1.000  O
  O120     1.0000 0.34135  0.45859  0.52500  Biso   1.000  O
  O121     1.0000 0.17269  0.36550  0.22370  Biso   1.000  O
  O122     1.0000 0.82731  0.63450  0.22370  Biso   1.000  O
  O123     1.0000 0.67269  0.13450  0.22370  Biso   1.000  O
  O124     1.0000 0.32731  0.86550  0.22370  Biso   1.000  O
  O125     1.0000 0.17269  0.86550  0.72370  Biso   1.000  O
  O126     1.0000 0.82731  0.13450  0.72370  Biso   1.000  O
  O127     1.0000 0.67269  0.63450  0.72370  Biso   1.000  O
  O128     1.0000 0.32731  0.36550  0.72370  Biso   1.000  O
  O129     1.0000 0.13250  0.51710  0.93250  Biso   1.000  O
  O130     1.0000 0.86750  0.48290  0.93250  Biso   1.000  O
  O131     1.0000 0.63250  0.98290  0.93250  Biso   1.000  O
  O132     1.0000 0.36750  0.01710  0.93250  Biso   1.000  O
  O133     1.0000 0.13250  0.01710  0.43250  Biso   1.000  O
  O134     1.0000 0.86750  0.98290  0.43250  Biso   1.000  O
  O135     1.0000 0.63250  0.48290  0.43250  Biso   1.000  O
  O136     1.0000 0.36750  0.51710  0.43250  Biso   1.000  O
  O137     1.0000 0.25368  0.53610  0.30920  Biso   1.000  O
  O138     1.0000 0.74632  0.46390  0.30920  Biso   1.000  O
  O139     1.0000 0.75368  0.96390  0.30920  Biso   1.000  O
  O140     1.0000 0.24632  0.03610  0.30920  Biso   1.000  O
  O141     1.0000 0.25368  0.03610  0.80920  Biso   1.000  O
  O142     1.0000 0.74632  0.96390  0.80920  Biso   1.000  O
  O143     1.0000 0.75368  0.46390  0.80920  Biso   1.000  O
  O144     1.0000 0.24632  0.53610  0.80920  Biso   1.000  O
  O145     1.0000 0.18770  0.52453  0.05710  Biso   1.000  O
  O146     1.0000 0.81230  0.47547  0.05710  Biso   1.000  O
  O147     1.0000 0.68770  0.97547  0.05710  Biso   1.000  O
  O148     1.0000 0.31230  0.02453  0.05710  Biso   1.000  O
  O149     1.0000 0.18770  0.02453  0.55710  Biso   1.000  O
  O150     1.0000 0.81230  0.97547  0.55710  Biso   1.000  O
  O151     1.0000 0.68770  0.47547  0.55710  Biso   1.000  O
  O152     1.0000 0.31230  0.52453  0.55710  Biso   1.000  O
  O153     1.0000 0.20262  0.49990  0.22270  Biso   1.000  O
  O154     1.0000 0.79738  0.50010  0.22270  Biso   1.000  O
  O155     1.0000 0.70262  0.00010  0.22270  Biso   1.000  O
  O156     1.0000 0.29738  0.99990  0.22270  Biso   1.000  O
  O157     1.0000 0.20262  0.99990  0.72270  Biso   1.000  O
  O158     1.0000 0.79738  0.00010  0.72270  Biso   1.000  O
  O159     1.0000 0.70262  0.50010  0.72270  Biso   1.000  O
  O160     1.0000 0.29738  0.49990  0.72270  Biso   1.000  O
  O161     1.0000 0.13885  0.42542  0.43010  Biso   1.000  O
  O162     1.0000 0.86115  0.57458  0.43010  Biso   1.000  O
  O163     1.0000 0.63885  0.07458  0.43010  Biso   1.000  O
  O164     1.0000 0.36115  0.92542  0.43010  Biso   1.000  O
  O165     1.0000 0.13885  0.92542  0.93010  Biso   1.000  O
  O166     1.0000 0.86115  0.07458  0.93010  Biso   1.000  O
  O167     1.0000 0.63885  0.57458  0.93010  Biso   1.000  O
  O168     1.0000 0.36115  0.42542  0.93010  Biso   1.000  O
  O169     1.0000 0.11268  0.40089  0.28470  Biso   1.000  O
  O170     1.0000 0.88732  0.59911  0.28470  Biso   1.000  O
  O171     1.0000 0.61268  0.09911  0.28470  Biso   1.000  O
  O172     1.0000 0.38732  0.90089  0.28470  Biso   1.000  O
  O173     1.0000 0.11268  0.90089  0.78470  Biso   1.000  O
  O174     1.0000 0.88732  0.09911  0.78470  Biso   1.000  O
  O175     1.0000 0.61268  0.59911  0.78470  Biso   1.000  O
  O176     1.0000 0.38732  0.40089  0.78470  Biso   1.000  O
  O177     1.0000 0.13514  0.49568  0.17450  Biso   1.000  O
  O178     1.0000 0.86486  0.50432  0.17450  Biso   1.000  O
  O179     1.0000 0.63514  0.00432  0.17450  Biso   1.000  O
  O180     1.0000 0.36486  0.99568  0.17450  Biso   1.000  O
  O181     1.0000 0.13514  0.99568  0.67450  Biso   1.000  O
  O182     1.0000 0.86486  0.00432  0.67450  Biso   1.000  O
  O183     1.0000 0.63514  0.50432  0.67450  Biso   1.000  O
  O184     1.0000 0.36486  0.49568  0.67450  Biso   1.000  O
  O185     1.0000 0.08800  0.48704  0.05320  Biso   1.000  O
  O186     1.0000 0.91200  0.51296  0.05320  Biso   1.000  O
  O187     1.0000 0.58800  0.01296  0.05320  Biso   1.000  O
  O188     1.0000 0.41200  0.98704  0.05320  Biso   1.000  O
  O189     1.0000 0.08800  0.98704  0.55320  Biso   1.000  O
  O190     1.0000 0.91200  0.01296  0.55320  Biso   1.000  O
  O191     1.0000 0.58800  0.51296  0.55320  Biso   1.000  O
  O192     1.0000 0.41200  0.48704  0.55320  Biso   1.000  O
  O193     1.0000 0.02360  0.46330  0.13870  Biso   1.000  O
  O194     1.0000 0.97640  0.53670  0.13870  Biso   1.000  O
  O195     1.0000 0.52360  0.03670  0.13870  Biso   1.000  O
  O196     1.0000 0.47640  0.96330  0.13870  Biso   1.000  O
  O197     1.0000 0.02360  0.96330  0.63870  Biso   1.000  O
  O198     1.0000 0.97640  0.03670  0.63870  Biso   1.000  O
  O199     1.0000 0.52360  0.53670  0.63870  Biso   1.000  O
  O200     1.0000 0.47640  0.46330  0.63870  Biso   1.000  O
  O201     1.0000 0.25286  0.43490  0.25030  Biso   1.000  O
  O202     1.0000 0.74714  0.56510  0.25030  Biso   1.000  O
  O203     1.0000 0.75286  0.06510  0.25030  Biso   1.000  O
  O204     1.0000 0.24714  0.93490  0.25030  Biso   1.000  O
  O205     1.0000 0.25286  0.93490  0.75030  Biso   1.000  O
  O206     1.0000 0.74714  0.06510  0.75030  Biso   1.000  O
  O207     1.0000 0.75286  0.56510  0.75030  Biso   1.000  O
  O208     1.0000 0.24714  0.43490  0.75030  Biso   1.000  O
  O209     1.0000 0.22160  0.60660  0.30120  Biso   1.000  O
  O210     1.0000 0.77840  0.39340  0.30120  Biso   1.000  O
  O211     1.0000 0.72160  0.89340  0.30120  Biso   1.000  O
  O212     1.0000 0.27840  0.10660  0.30120  Biso   1.000  O
  O213     1.0000 0.22160  0.10660  0.80120  Biso   1.000  O
  O214     1.0000 0.77840  0.89340  0.80120  Biso   1.000  O
  O215     1.0000 0.72160  0.39340  0.80120  Biso   1.000  O
  O216     1.0000 0.27840  0.60660  0.80120  Biso   1.000  O
  O217     1.0000 0.30890  0.47740  0.32210  Biso   1.000  O
  O218     1.0000 0.69110  0.52260  0.32210  Biso   1.000  O
  O219     1.0000 0.80890  0.02260  0.32210  Biso   1.000  O
  O220     1.0000 0.19110  0.97740  0.32210  Biso   1.000  O
  O221     1.0000 0.30890  0.97740  0.82210  Biso   1.000  O
  O222     1.0000 0.69110  0.02260  0.82210  Biso   1.000  O
  O223     1.0000 0.80890  0.52260  0.82210  Biso   1.000  O
  O224     1.0000 0.19110  0.47740  0.82210  Biso   1.000  O
  O225     1.0000 0.17957  0.54686  0.35890  Biso   1.000  O
  O226     1.0000 0.82043  0.45314  0.35890  Biso   1.000  O
  O227     1.0000 0.67957  0.95314  0.35890  Biso   1.000  O
  O228     1.0000 0.32043  0.04686  0.35890  Biso   1.000  O
  O229     1.0000 0.17957  0.04686  0.85890  Biso   1.000  O
  O230     1.0000 0.82043  0.95314  0.85890  Biso   1.000  O
  O231     1.0000 0.67957  0.45314  0.85890  Biso   1.000  O
  O232     1.0000 0.32043  0.54686  0.85890  Biso   1.000  O
  O233     1.0000 0.17367  0.43720  0.19150  Biso   1.000  O
  O234     1.0000 0.82633  0.56280  0.19150  Biso   1.000  O
  O235     1.0000 0.67367  0.06280  0.19150  Biso   1.000  O
  O236     1.0000 0.32633  0.93720  0.19150  Biso   1.000  O
  O237     1.0000 0.17367  0.93720  0.69150  Biso   1.000  O
  O238     1.0000 0.82633  0.06280  0.69150  Biso   1.000  O
  O239     1.0000 0.67367  0.56280  0.69150  Biso   1.000  O
  O240     1.0000 0.32633  0.43720  0.69150  Biso   1.000  O
  O241     1.0000 0.23101  0.47277  0.37690  Biso   1.000  O
  O242     1.0000 0.76899  0.52723  0.37690  Biso   1.000  O
  O243     1.0000 0.73101  0.02723  0.37690  Biso   1.000  O
  O244     1.0000 0.26899  0.97277  0.37690  Biso   1.000  O
  O245     1.0000 0.23101  0.97277  0.87690  Biso   1.000  O
  O246     1.0000 0.76899  0.02723  0.87690  Biso   1.000  O
  O247     1.0000 0.73101  0.52723  0.87690  Biso   1.000  O
  O248     1.0000 0.26899  0.47277  0.87690  Biso   1.000  O
  O249     1.0000 0.11930  0.55280  0.08230  Biso   1.000  O
  O250     1.0000 0.88070  0.44720  0.08230  Biso   1.000  O
  O251     1.0000 0.61930  0.94720  0.08230  Biso   1.000  O
  O252     1.0000 0.38070  0.05280  0.08230  Biso   1.000  O
  O253     1.0000 0.11930  0.05280  0.58230  Biso   1.000  O
  O254     1.0000 0.88070  0.94720  0.58230  Biso   1.000  O
  O255     1.0000 0.61930  0.44720  0.58230  Biso   1.000  O
  O256     1.0000 0.38070  0.55280  0.58230  Biso   1.000  O
  O257     1.0000 0.10030  0.34861  0.15980  Biso   1.000  O
  O258     1.0000 0.89970  0.65139  0.15980  Biso   1.000  O
  O259     1.0000 0.60030  0.15139  0.15980  Biso   1.000  O
  O260     1.0000 0.39970  0.84861  0.15980  Biso   1.000  O
  O261     1.0000 0.10030  0.84861  0.65980  Biso   1.000  O
  O262     1.0000 0.89970  0.15139  0.65980  Biso   1.000  O
  O263     1.0000 0.60030  0.65139  0.65980  Biso   1.000  O
  O264     1.0000 0.39970  0.34861  0.65980  Biso   1.000  O
  O265     1.0000 0.08890  0.60050  0.19430  Biso   1.000  O
  O266     1.0000 0.91110  0.39950  0.19430  Biso   1.000  O
  O267     1.0000 0.58890  0.89950  0.19430  Biso   1.000  O
  O268     1.0000 0.41110  0.10050  0.19430  Biso   1.000  O
  O269     1.0000 0.08890  0.10050  0.69430  Biso   1.000  O
  O270     1.0000 0.91110  0.89950  0.69430  Biso   1.000  O
  O271     1.0000 0.58890  0.39950  0.69430  Biso   1.000  O
  O272     1.0000 0.41110  0.60050  0.69430  Biso   1.000  O
  O273     1.0000 0.11920  0.55590  0.47010  Biso   1.000  O
  O274     1.0000 0.88080  0.44410  0.47010  Biso   1.000  O
  O275     1.0000 0.61920  0.94410  0.47010  Biso   1.000  O
  O276     1.0000 0.38080  0.05590  0.47010  Biso   1.000  O
  O277     1.0000 0.11920  0.05590  0.97010  Biso   1.000  O
  O278     1.0000 0.88080  0.94410  0.97010  Biso   1.000  O
  O279     1.0000 0.61920  0.44410  0.97010  Biso   1.000  O
  O280     1.0000 0.38080  0.55590  0.97010  Biso   1.000  O
  O281     1.0000 0.23360  0.56129  0.16620  Biso   1.000  O
  O282     1.0000 0.76640  0.43871  0.16620  Biso   1.000  O
  O283     1.0000 0.73360  0.93871  0.16620  Biso   1.000  O
  O284     1.0000 0.26640  0.06129  0.16620  Biso   1.000  O
  O285     1.0000 0.23360  0.06129  0.66620  Biso   1.000  O
  O286     1.0000 0.76640  0.93871  0.66620  Biso   1.000  O
  O287     1.0000 0.73360  0.43871  0.66620  Biso   1.000  O
  O288     1.0000 0.26640  0.56129  0.66620  Biso   1.000  O
  O289     1.0000 0.06178  0.41520  0.40850  Biso   1.000  O
  O290     1.0000 0.93822  0.58480  0.40850  Biso   1.000  O
  O291     1.0000 0.56178  0.08480  0.40850  Biso   1.000  O
  O292     1.0000 0.43822  0.91520  0.40850  Biso   1.000  O
  O293     1.0000 0.06178  0.91520  0.90850  Biso   1.000  O
  O294     1.0000 0.93822  0.08480  0.90850  Biso   1.000  O
  O295     1.0000 0.56178  0.58480  0.90850  Biso   1.000  O
  O296     1.0000 0.43822  0.41520  0.90850  Biso   1.000  O
  O297     1.0000 0.22828  0.46540  0.07360  Biso   1.000  O
  O298     1.0000 0.77172  0.53460  0.07360  Biso   1.000  O
  O299     1.0000 0.72828  0.03460  0.07360  Biso   1.000  O
  O300     1.0000 0.27172  0.96540  0.07360  Biso   1.000  O
  O301     1.0000 0.22828  0.96540  0.57360  Biso   1.000  O
  O302     1.0000 0.77172  0.03460  0.57360  Biso   1.000  O
  O303     1.0000 0.72828  0.53460  0.57360  Biso   1.000  O
  O304     1.0000 0.27172  0.46540  0.57360  Biso   1.000  O
  O305     1.0000 0.09452  0.42591  0.14380  Biso   1.000  O
  O306     1.0000 0.90548  0.57409  0.14380  Biso   1.000  O
  O307     1.0000 0.59452  0.07409  0.14380  Biso   1.000  O
  O308     1.0000 0.40548  0.92591  0.14380  Biso   1.000  O
  O309     1.0000 0.09452  0.92591  0.64380  Biso   1.000  O
  O310     1.0000 0.90548  0.07409  0.64380  Biso   1.000  O
  O311     1.0000 0.59452  0.57409  0.64380  Biso   1.000  O
  O312     1.0000 0.40548  0.42591  0.64380  Biso   1.000  O
  O313     1.0000 0.26600  0.53370  0.02740  Biso   1.000  O
  O314     1.0000 0.73400  0.46630  0.02740  Biso   1.000  O
  O315     1.0000 0.76600  0.96630  0.02740  Biso   1.000  O
  O316     1.0000 0.23400  0.03370  0.02740  Biso   1.000  O
  O317     1.0000 0.26600  0.03370  0.52740  Biso   1.000  O
  O318     1.0000 0.73400  0.96630  0.52740  Biso   1.000  O
  O319     1.0000 0.76600  0.46630  0.52740  Biso   1.000  O
  O320     1.0000 0.23400  0.53370  0.52740  Biso   1.000  O
  Mo97     1.0000 0.24262  0.23279  0.72770  Biso   1.000  Mo
  Mo98     1.0000 0.75738  0.76721  0.72770  Biso   1.000  Mo
  Mo99     1.0000 0.74262  0.26721  0.72770  Biso   1.000  Mo
  Mo100    1.0000 0.25738  0.73279  0.72770  Biso   1.000  Mo
  Mo101    1.0000 0.24262  0.73279  0.22770  Biso   1.000  Mo
  Mo102    1.0000 0.75738  0.26721  0.22770  Biso   1.000  Mo
  Mo103    1.0000 0.74262  0.76721  0.22770  Biso   1.000  Mo
  Mo104    1.0000 0.25738  0.23279  0.22770  Biso   1.000  Mo
  Mo105    1.0000 0.13889  0.24251  0.69644  Biso   1.000  Mo
  Mo106    1.0000 0.86111  0.75749  0.69644  Biso   1.000  Mo
  Mo107    1.0000 0.63889  0.25749  0.69644  Biso   1.000  Mo
  Mo108    1.0000 0.36111  0.74251  0.69644  Biso   1.000  Mo
  Mo109    1.0000 0.13889  0.74251  0.19644  Biso   1.000  Mo
  Mo110    1.0000 0.86111  0.25749  0.19644  Biso   1.000  Mo
  Mo111    1.0000 0.63889  0.75749  0.19644  Biso   1.000  Mo
  Mo112    1.0000 0.36111  0.24251  0.19644  Biso   1.000  Mo
  Mo113    1.0000 0.03986  0.27573  0.73029  Biso   1.000  Mo
  Mo114    1.0000 0.96014  0.72427  0.73029  Biso   1.000  Mo
  Mo115    1.0000 0.53986  0.22427  0.73029  Biso   1.000  Mo
  Mo116    1.0000 0.46014  0.77573  0.73029  Biso   1.000  Mo
  Mo117    1.0000 0.03986  0.77573  0.23029  Biso   1.000  Mo
  Mo118    1.0000 0.96014  0.22427  0.23029  Biso   1.000  Mo
  Mo119    1.0000 0.53986  0.72427  0.23029  Biso   1.000  Mo
  Mo120    1.0000 0.46014  0.27573  0.23029  Biso   1.000  Mo
  Mo121    1.0000 0.02652  0.37774  0.67713  Biso   1.000  Mo
  Mo122    1.0000 0.97348  0.62226  0.67713  Biso   1.000  Mo
  Mo123    1.0000 0.52652  0.12226  0.67713  Biso   1.000  Mo
  Mo124    1.0000 0.47348  0.87774  0.67713  Biso   1.000  Mo
  Mo125    1.0000 0.02652  0.87774  0.17713  Biso   1.000  Mo
  Mo126    1.0000 0.97348  0.12226  0.17713  Biso   1.000  Mo
  Mo127    1.0000 0.52652  0.62226  0.17713  Biso   1.000  Mo
  Mo128    1.0000 0.47348  0.37774  0.17713  Biso   1.000  Mo
  Mo129    1.0000 0.94479  0.32009  0.72281  Biso   1.000  Mo
  Mo130    1.0000 0.05521  0.67991  0.72281  Biso   1.000  Mo
  Mo131    1.0000 0.44479  0.17991  0.72281  Biso   1.000  Mo
  Mo132    1.0000 0.55521  0.82009  0.72281  Biso   1.000  Mo
  Mo133    1.0000 0.94479  0.82009  0.22281  Biso   1.000  Mo
  Mo134    1.0000 0.05521  0.17991  0.22281  Biso   1.000  Mo
  Mo135    1.0000 0.44479  0.67991  0.22281  Biso   1.000  Mo
  Mo136    1.0000 0.55521  0.32009  0.22281  Biso   1.000  Mo
  Mo137    1.0000 0.84762  0.27982  0.70154  Biso   1.000  Mo
  Mo138    1.0000 0.15238  0.72018  0.70154  Biso   1.000  Mo
  Mo139    1.0000 0.34762  0.22018  0.70154  Biso   1.000  Mo
  Mo140    1.0000 0.65238  0.77982  0.70154  Biso   1.000  Mo
  Mo141    1.0000 0.84762  0.77982  0.20154  Biso   1.000  Mo
  Mo142    1.0000 0.15238  0.22018  0.20154  Biso   1.000  Mo
  Mo143    1.0000 0.34762  0.72018  0.20154  Biso   1.000  Mo
  Mo144    1.0000 0.65238  0.27982  0.20154  Biso   1.000  Mo
  Cu1      1.0000 0.01284  0.48256  0.60532  Biso   1.000  Cu
  Cu2      1.0000 0.98716  0.51744  0.60532  Biso   1.000  Cu
  Cu3      1.0000 0.51284  0.01744  0.60532  Biso   1.000  Cu
  Cu4      1.0000 0.48716  0.98256  0.60532  Biso   1.000  Cu
  Cu5      1.0000 0.01284  0.98256  0.10532  Biso   1.000  Cu
  Cu6      1.0000 0.98716  0.01744  0.10532  Biso   1.000  Cu
  Cu7      1.0000 0.51284  0.51744  0.10532  Biso   1.000  Cu
  Cu8      1.0000 0.48716  0.48256  0.10532  Biso   1.000  Cu
  O321     1.0000 0.18933  0.22764  0.69740  Biso   1.000  O
  O322     1.0000 0.81067  0.77236  0.69740  Biso   1.000  O
  O323     1.0000 0.68933  0.27236  0.69740  Biso   1.000  O
  O324     1.0000 0.31067  0.72764  0.69740  Biso   1.000  O
  O325     1.0000 0.18933  0.72764  0.19740  Biso   1.000  O
  O326     1.0000 0.81067  0.27236  0.19740  Biso   1.000  O
  O327     1.0000 0.68933  0.77236  0.19740  Biso   1.000  O
  O328     1.0000 0.31067  0.22764  0.19740  Biso   1.000  O
  O329     1.0000 0.23881  0.27332  0.78090  Biso   1.000  O
  O330     1.0000 0.76119  0.72668  0.78090  Biso   1.000  O
  O331     1.0000 0.73881  0.22668  0.78090  Biso   1.000  O
  O332     1.0000 0.26119  0.77332  0.78090  Biso   1.000  O
  O333     1.0000 0.23881  0.77332  0.28090  Biso   1.000  O
  O334     1.0000 0.76119  0.22668  0.28090  Biso   1.000  O
  O335     1.0000 0.73881  0.72668  0.28090  Biso   1.000  O
  O336     1.0000 0.26119  0.27332  0.28090  Biso   1.000  O
  O337     1.0000 0.24470  0.19740  0.79640  Biso   1.000  O
  O338     1.0000 0.75530  0.80260  0.79640  Biso   1.000  O
  O339     1.0000 0.74470  0.30260  0.79640  Biso   1.000  O
  O340     1.0000 0.25530  0.69740  0.79640  Biso   1.000  O
  O341     1.0000 0.24470  0.69740  0.29640  Biso   1.000  O
  O342     1.0000 0.75530  0.30260  0.29640  Biso   1.000  O
  O343     1.0000 0.74470  0.80260  0.29640  Biso   1.000  O
  O344     1.0000 0.25530  0.19740  0.29640  Biso   1.000  O
  O345     1.0000 0.11950  0.21040  0.63220  Biso   1.000  O
  O346     1.0000 0.88050  0.78960  0.63220  Biso   1.000  O
  O347     1.0000 0.61950  0.28960  0.63220  Biso   1.000  O
  O348     1.0000 0.38050  0.71040  0.63220  Biso   1.000  O
  O349     1.0000 0.11950  0.71040  0.13220  Biso   1.000  O
  O350     1.0000 0.88050  0.28960  0.13220  Biso   1.000  O
  O351     1.0000 0.61950  0.78960  0.13220  Biso   1.000  O
  O352     1.0000 0.38050  0.21040  0.13220  Biso   1.000  O
  O353     1.0000 0.14160  0.28360  0.64450  Biso   1.000  O
  O354     1.0000 0.85840  0.71640  0.64450  Biso   1.000  O
  O355     1.0000 0.64160  0.21640  0.64450  Biso   1.000  O
  O356     1.0000 0.35840  0.78360  0.64450  Biso   1.000  O
  O357     1.0000 0.14160  0.78360  0.14450  Biso   1.000  O
  O358     1.0000 0.85840  0.21640  0.14450  Biso   1.000  O
  O359     1.0000 0.64160  0.71640  0.14450  Biso   1.000  O
  O360     1.0000 0.35840  0.28360  0.14450  Biso   1.000  O
  O361     1.0000 0.08598  0.25600  0.74380  Biso   1.000  O
  O362     1.0000 0.91402  0.74400  0.74380  Biso   1.000  O
  O363     1.0000 0.58598  0.24400  0.74380  Biso   1.000  O
  O364     1.0000 0.41402  0.75600  0.74380  Biso   1.000  O
  O365     1.0000 0.08598  0.75600  0.24380  Biso   1.000  O
  O366     1.0000 0.91402  0.24400  0.24380  Biso   1.000  O
  O367     1.0000 0.58598  0.74400  0.24380  Biso   1.000  O
  O368     1.0000 0.41402  0.25600  0.24380  Biso   1.000  O
  O369     1.0000 0.02830  0.26210  0.63630  Biso   1.000  O
  O370     1.0000 0.97170  0.73790  0.63630  Biso   1.000  O
  O371     1.0000 0.52830  0.23790  0.63630  Biso   1.000  O
  O372     1.0000 0.47170  0.76210  0.63630  Biso   1.000  O
  O373     1.0000 0.02830  0.76210  0.13630  Biso   1.000  O
  O374     1.0000 0.97170  0.23790  0.13630  Biso   1.000  O
  O375     1.0000 0.52830  0.73790  0.13630  Biso   1.000  O
  O376     1.0000 0.47170  0.26210  0.13630  Biso   1.000  O
  O377     1.0000 0.04919  0.32357  0.72490  Biso   1.000  O
  O378     1.0000 0.95081  0.67643  0.72490  Biso   1.000  O
  O379     1.0000 0.54919  0.17643  0.72490  Biso   1.000  O
  O380     1.0000 0.45081  0.82357  0.72490  Biso   1.000  O
  O381     1.0000 0.04919  0.82357  0.22490  Biso   1.000  O
  O382     1.0000 0.95081  0.17643  0.22490  Biso   1.000  O
  O383     1.0000 0.54919  0.67643  0.22490  Biso   1.000  O
  O384     1.0000 0.45081  0.32357  0.22490  Biso   1.000  O
  O385     1.0000 0.02538  0.35800  0.58390  Biso   1.000  O
  O386     1.0000 0.97462  0.64200  0.58390  Biso   1.000  O
  O387     1.0000 0.52538  0.14200  0.58390  Biso   1.000  O
  O388     1.0000 0.47462  0.85800  0.58390  Biso   1.000  O
  O389     1.0000 0.02538  0.85800  0.08390  Biso   1.000  O
  O390     1.0000 0.97462  0.14200  0.08390  Biso   1.000  O
  O391     1.0000 0.52538  0.64200  0.08390  Biso   1.000  O
  O392     1.0000 0.47462  0.35800  0.08390  Biso   1.000  O
  O393     1.0000 0.98307  0.36457  0.72840  Biso   1.000  O
  O394     1.0000 0.01693  0.63543  0.72840  Biso   1.000  O
  O395     1.0000 0.48307  0.13543  0.72840  Biso   1.000  O
  O396     1.0000 0.51693  0.86457  0.72840  Biso   1.000  O
  O397     1.0000 0.98307  0.86457  0.22840  Biso   1.000  O
  O398     1.0000 0.01693  0.13543  0.22840  Biso   1.000  O
  O399     1.0000 0.48307  0.63543  0.22840  Biso   1.000  O
  O400     1.0000 0.51693  0.36457  0.22840  Biso   1.000  O
  O401     1.0000 0.98159  0.28880  0.75460  Biso   1.000  O
  O402     1.0000 0.01841  0.71120  0.75460  Biso   1.000  O
  O403     1.0000 0.48159  0.21120  0.75460  Biso   1.000  O
  O404     1.0000 0.51841  0.78880  0.75460  Biso   1.000  O
  O405     1.0000 0.98159  0.78880  0.25460  Biso   1.000  O
  O406     1.0000 0.01841  0.21120  0.25460  Biso   1.000  O
  O407     1.0000 0.48159  0.71120  0.25460  Biso   1.000  O
  O408     1.0000 0.51841  0.28880  0.25460  Biso   1.000  O
  O409     1.0000 0.94488  0.32122  0.62040  Biso   1.000  O
  O410     1.0000 0.05512  0.67878  0.62040  Biso   1.000  O
  O411     1.0000 0.44488  0.17878  0.62040  Biso   1.000  O
  O412     1.0000 0.55512  0.82122  0.62040  Biso   1.000  O
  O413     1.0000 0.94488  0.82122  0.12040  Biso   1.000  O
  O414     1.0000 0.05512  0.17878  0.12040  Biso   1.000  O
  O415     1.0000 0.44488  0.67878  0.12040  Biso   1.000  O
  O416     1.0000 0.55512  0.32122  0.12040  Biso   1.000  O
  O417     1.0000 0.90151  0.29520  0.74460  Biso   1.000  O
  O418     1.0000 0.09849  0.70480  0.74460  Biso   1.000  O
  O419     1.0000 0.40151  0.20480  0.74460  Biso   1.000  O
  O420     1.0000 0.59849  0.79520  0.74460  Biso   1.000  O
  O421     1.0000 0.90151  0.79520  0.24460  Biso   1.000  O
  O422     1.0000 0.09849  0.20480  0.24460  Biso   1.000  O
  O423     1.0000 0.40151  0.70480  0.24460  Biso   1.000  O
  O424     1.0000 0.59849  0.29520  0.24460  Biso   1.000  O
  O425     1.0000 0.79780  0.26454  0.70780  Biso   1.000  O
  O426     1.0000 0.20220  0.73546  0.70780  Biso   1.000  O
  O427     1.0000 0.29780  0.23546  0.70780  Biso   1.000  O
  O428     1.0000 0.70220  0.76454  0.70780  Biso   1.000  O
  O429     1.0000 0.79780  0.76454  0.20780  Biso   1.000  O
  O430     1.0000 0.20220  0.23546  0.20780  Biso   1.000  O
  O431     1.0000 0.29780  0.73546  0.20780  Biso   1.000  O
  O432     1.0000 0.70220  0.26454  0.20780  Biso   1.000  O
  O433     1.0000 0.86760  0.24620  0.64200  Biso   1.000  O
  O434     1.0000 0.13240  0.75380  0.64200  Biso   1.000  O
  O435     1.0000 0.36760  0.25380  0.64200  Biso   1.000  O
  O436     1.0000 0.63240  0.74620  0.64200  Biso   1.000  O
  O437     1.0000 0.86760  0.74620  0.14200  Biso   1.000  O
  O438     1.0000 0.13240  0.25380  0.14200  Biso   1.000  O
  O439     1.0000 0.36760  0.75380  0.14200  Biso   1.000  O
  O440     1.0000 0.63240  0.24620  0.14200  Biso   1.000  O
  O441     1.0000 0.84400  0.31930  0.64370  Biso   1.000  O
  O442     1.0000 0.15600  0.68070  0.64370  Biso   1.000  O
  O443     1.0000 0.34400  0.18070  0.64370  Biso   1.000  O
  O444     1.0000 0.65600  0.81930  0.64370  Biso   1.000  O
  O445     1.0000 0.84400  0.81930  0.14370  Biso   1.000  O
  O446     1.0000 0.15600  0.18070  0.14370  Biso   1.000  O
  O447     1.0000 0.34400  0.68070  0.14370  Biso   1.000  O
  O448     1.0000 0.65600  0.31930  0.14370  Biso   1.000  O
  O449     1.0000 0.01980  0.42490  0.65980  Biso   1.000  O
  O450     1.0000 0.98020  0.57510  0.65980  Biso   1.000  O
  O451     1.0000 0.51980  0.07510  0.65980  Biso   1.000  O
  O452     1.0000 0.48020  0.92490  0.65980  Biso   1.000  O
  O453     1.0000 0.01980  0.92490  0.15980  Biso   1.000  O
  O454     1.0000 0.98020  0.07510  0.15980  Biso   1.000  O
  O455     1.0000 0.51980  0.57510  0.15980  Biso   1.000  O
  O456     1.0000 0.48020  0.42490  0.15980  Biso   1.000  O
  C1       1.0000 0.25610  0.15460  0.63180  Biso   1.000  C
  C2       1.0000 0.74390  0.84540  0.63180  Biso   1.000  C
  C3       1.0000 0.75610  0.34540  0.63180  Biso   1.000  C
  C4       1.0000 0.24390  0.65460  0.63180  Biso   1.000  C
  C5       1.0000 0.25610  0.65460  0.13180  Biso   1.000  C
  C6       1.0000 0.74390  0.34540  0.13180  Biso   1.000  C
  C7       1.0000 0.75610  0.84540  0.13180  Biso   1.000  C
  C8       1.0000 0.24390  0.15460  0.13180  Biso   1.000  C
  H1       1.0000 0.25180  0.14470  0.68280  Biso   1.000  H
  H2       1.0000 0.74820  0.85530  0.68280  Biso   1.000  H
  H3       1.0000 0.75180  0.35530  0.68280  Biso   1.000  H
  H4       1.0000 0.24820  0.64470  0.68280  Biso   1.000  H
  H5       1.0000 0.25180  0.64470  0.18280  Biso   1.000  H
  H6       1.0000 0.74820  0.35530  0.18280  Biso   1.000  H
  H7       1.0000 0.75180  0.85530  0.18280  Biso   1.000  H
  H8       1.0000 0.24820  0.14470  0.18280  Biso   1.000  H
  C9       1.0000 0.26840  0.13080  0.57080  Biso   1.000  C
  C10      1.0000 0.73160  0.86920  0.57080  Biso   1.000  C
  C11      1.0000 0.76840  0.36920  0.57080  Biso   1.000  C
  C12      1.0000 0.23160  0.63080  0.57080  Biso   1.000  C
  C13      1.0000 0.26840  0.63080  0.07080  Biso   1.000  C
  C14      1.0000 0.73160  0.36920  0.07080  Biso   1.000  C
  C15      1.0000 0.76840  0.86920  0.07080  Biso   1.000  C
  C16      1.0000 0.23160  0.13080  0.07080  Biso   1.000  C
  H9       1.0000 0.27280  0.10560  0.58180  Biso   1.000  H
  H10      1.0000 0.72720  0.89440  0.58180  Biso   1.000  H
  H11      1.0000 0.77280  0.39440  0.58180  Biso   1.000  H
  H12      1.0000 0.22720  0.60560  0.58180  Biso   1.000  H
  H13      1.0000 0.27280  0.60560  0.08180  Biso   1.000  H
  H14      1.0000 0.72720  0.39440  0.08180  Biso   1.000  H
  H15      1.0000 0.77280  0.89440  0.08180  Biso   1.000  H
  H16      1.0000 0.22720  0.10560  0.08180  Biso   1.000  H
  C17      1.0000 0.27390  0.14410  0.49590  Biso   1.000  C
  C18      1.0000 0.72610  0.85590  0.49590  Biso   1.000  C
  C19      1.0000 0.77390  0.35590  0.49590  Biso   1.000  C
  C20      1.0000 0.22610  0.64410  0.49590  Biso   1.000  C
  C21      1.0000 0.27390  0.64410  0.99590  Biso   1.000  C
  C22      1.0000 0.72610  0.35590  0.99590  Biso   1.000  C
  C23      1.0000 0.77390  0.85590  0.99590  Biso   1.000  C
  C24      1.0000 0.22610  0.14410  0.99590  Biso   1.000  C
  H17      1.0000 0.28180  0.12850  0.45430  Biso   1.000  H
  H18      1.0000 0.71820  0.87150  0.45430  Biso   1.000  H
  H19      1.0000 0.78180  0.37150  0.45430  Biso   1.000  H
  H20      1.0000 0.21820  0.62850  0.45430  Biso   1.000  H
  H21      1.0000 0.28180  0.62850  0.95430  Biso   1.000  H
  H22      1.0000 0.71820  0.37150  0.95430  Biso   1.000  H
  H23      1.0000 0.78180  0.87150  0.95430  Biso   1.000  H
  H24      1.0000 0.21820  0.12850  0.95430  Biso   1.000  H
  C25      1.0000 0.26740  0.18210  0.48290  Biso   1.000  C
  C26      1.0000 0.73260  0.81790  0.48290  Biso   1.000  C
  C27      1.0000 0.76740  0.31790  0.48290  Biso   1.000  C
  C28      1.0000 0.23260  0.68210  0.48290  Biso   1.000  C
  C29      1.0000 0.26740  0.68210  0.98290  Biso   1.000  C
  C30      1.0000 0.73260  0.31790  0.98290  Biso   1.000  C
  C31      1.0000 0.76740  0.81790  0.98290  Biso   1.000  C
  C32      1.0000 0.23260  0.18210  0.98290  Biso   1.000  C
  H25      1.0000 0.27140  0.19220  0.43190  Biso   1.000  H
  H26      1.0000 0.72860  0.80780  0.43190  Biso   1.000  H
  H27      1.0000 0.77140  0.30780  0.43190  Biso   1.000  H
  H28      1.0000 0.22860  0.69220  0.43190  Biso   1.000  H
  H29      1.0000 0.27140  0.69220  0.93190  Biso   1.000  H
  H30      1.0000 0.72860  0.30780  0.93190  Biso   1.000  H
  H31      1.0000 0.77140  0.80780  0.93190  Biso   1.000  H
  H32      1.0000 0.22860  0.19220  0.93190  Biso   1.000  H
  C33      1.0000 0.25500  0.20500  0.54530  Biso   1.000  C
  C34      1.0000 0.74500  0.79500  0.54530  Biso   1.000  C
  C35      1.0000 0.75500  0.29500  0.54530  Biso   1.000  C
  C36      1.0000 0.24500  0.70500  0.54530  Biso   1.000  C
  C37      1.0000 0.25500  0.70500  0.04530  Biso   1.000  C
  C38      1.0000 0.74500  0.29500  0.04530  Biso   1.000  C
  C39      1.0000 0.75500  0.79500  0.04530  Biso   1.000  C
  C40      1.0000 0.24500  0.20500  0.04530  Biso   1.000  C
  N1       1.0000 0.25030  0.19130  0.61960  Biso   1.000  N
  N2       1.0000 0.74970  0.80870  0.61960  Biso   1.000  N
  N3       1.0000 0.75030  0.30870  0.61960  Biso   1.000  N
  N4       1.0000 0.24970  0.69130  0.61960  Biso   1.000  N
  N5       1.0000 0.25030  0.69130  0.11960  Biso   1.000  N
  N6       1.0000 0.74970  0.30870  0.11960  Biso   1.000  N
  N7       1.0000 0.75030  0.80870  0.11960  Biso   1.000  N
  N8       1.0000 0.24970  0.19130  0.11960  Biso   1.000  N
  C41      1.0000 0.24600  0.24590  0.53640  Biso   1.000  C
  C42      1.0000 0.75400  0.75410  0.53640  Biso   1.000  C
  C43      1.0000 0.74600  0.25410  0.53640  Biso   1.000  C
  C44      1.0000 0.25400  0.74590  0.53640  Biso   1.000  C
  C45      1.0000 0.24600  0.74590  0.03640  Biso   1.000  C
  C46      1.0000 0.75400  0.25410  0.03640  Biso   1.000  C
  C47      1.0000 0.74600  0.75410  0.03640  Biso   1.000  C
  C48      1.0000 0.25400  0.24590  0.03640  Biso   1.000  C
  C49      1.0000 0.24190  0.26260  0.46280  Biso   1.000  C
  C50      1.0000 0.75810  0.73740  0.46280  Biso   1.000  C
  C51      1.0000 0.74190  0.23740  0.46280  Biso   1.000  C
  C52      1.0000 0.25810  0.76260  0.46280  Biso   1.000  C
  C53      1.0000 0.24190  0.76260  0.96280  Biso   1.000  C
  C54      1.0000 0.75810  0.23740  0.96280  Biso   1.000  C
  C55      1.0000 0.74190  0.73740  0.96280  Biso   1.000  C
  C56      1.0000 0.25810  0.26260  0.96280  Biso   1.000  C
  H33      1.0000 0.24370  0.24840  0.41600  Biso   1.000  H
  H34      1.0000 0.75630  0.75160  0.41600  Biso   1.000  H
  H35      1.0000 0.74370  0.25160  0.41600  Biso   1.000  H
  H36      1.0000 0.25630  0.74840  0.41600  Biso   1.000  H
  H37      1.0000 0.24370  0.74840  0.91600  Biso   1.000  H
  H38      1.0000 0.75630  0.25160  0.91600  Biso   1.000  H
  H39      1.0000 0.74370  0.75160  0.91600  Biso   1.000  H
  H40      1.0000 0.25630  0.24840  0.91600  Biso   1.000  H
  C57      1.0000 0.23490  0.30130  0.45810  Biso   1.000  C
  C58      1.0000 0.76510  0.69870  0.45810  Biso   1.000  C
  C59      1.0000 0.73490  0.19870  0.45810  Biso   1.000  C
  C60      1.0000 0.26510  0.80130  0.45810  Biso   1.000  C
  C61      1.0000 0.23490  0.80130  0.95810  Biso   1.000  C
  C62      1.0000 0.76510  0.19870  0.95810  Biso   1.000  C
  C63      1.0000 0.73490  0.69870  0.95810  Biso   1.000  C
  C64      1.0000 0.26510  0.30130  0.95810  Biso   1.000  C
  H41      1.0000 0.23190  0.31310  0.40850  Biso   1.000  H
  H42      1.0000 0.76810  0.68690  0.40850  Biso   1.000  H
  H43      1.0000 0.73190  0.18690  0.40850  Biso   1.000  H
  H44      1.0000 0.26810  0.81310  0.40850  Biso   1.000  H
  H45      1.0000 0.23190  0.81310  0.90850  Biso   1.000  H
  H46      1.0000 0.76810  0.18690  0.90850  Biso   1.000  H
  H47      1.0000 0.73190  0.68690  0.90850  Biso   1.000  H
  H48      1.0000 0.26810  0.31310  0.90850  Biso   1.000  H
  C65      1.0000 0.23240  0.32110  0.52800  Biso   1.000  C
  C66      1.0000 0.76760  0.67890  0.52800  Biso   1.000  C
  C67      1.0000 0.73240  0.17890  0.52800  Biso   1.000  C
  C68      1.0000 0.26760  0.82110  0.52800  Biso   1.000  C
  C69      1.0000 0.23240  0.82110  0.02800  Biso   1.000  C
  C70      1.0000 0.76760  0.17890  0.02800  Biso   1.000  C
  C71      1.0000 0.73240  0.67890  0.02800  Biso   1.000  C
  C72      1.0000 0.26760  0.32110  0.02800  Biso   1.000  C
  H49      1.0000 0.22850  0.34680  0.52750  Biso   1.000  H
  H50      1.0000 0.77150  0.65320  0.52750  Biso   1.000  H
  H51      1.0000 0.72850  0.15320  0.52750  Biso   1.000  H
  H52      1.0000 0.27150  0.84680  0.52750  Biso   1.000  H
  H53      1.0000 0.22850  0.84680  0.02750  Biso   1.000  H
  H54      1.0000 0.77150  0.15320  0.02750  Biso   1.000  H
  H55      1.0000 0.72850  0.65320  0.02750  Biso   1.000  H
  H56      1.0000 0.27150  0.34680  0.02750  Biso   1.000  H
  C73      1.0000 0.23610  0.30120  0.60200  Biso   1.000  C
  C74      1.0000 0.76390  0.69880  0.60200  Biso   1.000  C
  C75      1.0000 0.73610  0.19880  0.60200  Biso   1.000  C
  C76      1.0000 0.26390  0.80120  0.60200  Biso   1.000  C
  C77      1.0000 0.23610  0.80120  0.10200  Biso   1.000  C
  C78      1.0000 0.76390  0.19880  0.10200  Biso   1.000  C
  C79      1.0000 0.73610  0.69880  0.10200  Biso   1.000  C
  C80      1.0000 0.26390  0.30120  0.10200  Biso   1.000  C
  H57      1.0000 0.23390  0.31440  0.65000  Biso   1.000  H
  H58      1.0000 0.76610  0.68560  0.65000  Biso   1.000  H
  H59      1.0000 0.73390  0.18560  0.65000  Biso   1.000  H
  H60      1.0000 0.26610  0.81440  0.65000  Biso   1.000  H
  H61      1.0000 0.23390  0.81440  0.15000  Biso   1.000  H
  H62      1.0000 0.76610  0.18560  0.15000  Biso   1.000  H
  H63      1.0000 0.73390  0.68560  0.15000  Biso   1.000  H
  H64      1.0000 0.26610  0.31440  0.15000  Biso   1.000  H
  N9       1.0000 0.24240  0.26520  0.60490  Biso   1.000  N
  N10      1.0000 0.75760  0.73480  0.60490  Biso   1.000  N
  N11      1.0000 0.74240  0.23480  0.60490  Biso   1.000  N
  N12      1.0000 0.25760  0.76520  0.60490  Biso   1.000  N
  N13      1.0000 0.24240  0.76520  0.10490  Biso   1.000  N
  N14      1.0000 0.75760  0.23480  0.10490  Biso   1.000  N
  N15      1.0000 0.74240  0.73480  0.10490  Biso   1.000  N
  N16      1.0000 0.25760  0.26520  0.10490  Biso   1.000  N
  C81      1.0000 0.16490  0.30870  0.81800  Biso   1.000  C
  C82      1.0000 0.83510  0.69130  0.81800  Biso   1.000  C
  C83      1.0000 0.66490  0.19130  0.81800  Biso   1.000  C
  C84      1.0000 0.33510  0.80870  0.81800  Biso   1.000  C
  C85      1.0000 0.16490  0.80870  0.31800  Biso   1.000  C
  C86      1.0000 0.83510  0.19130  0.31800  Biso   1.000  C
  C87      1.0000 0.66490  0.69130  0.31800  Biso   1.000  C
  C88      1.0000 0.33510  0.30870  0.31800  Biso   1.000  C
  H65      1.0000 0.16780  0.32090  0.76880  Biso   1.000  H
  H66      1.0000 0.83220  0.67910  0.76880  Biso   1.000  H
  H67      1.0000 0.66780  0.17910  0.76880  Biso   1.000  H
  H68      1.0000 0.33220  0.82090  0.76880  Biso   1.000  H
  H69      1.0000 0.16780  0.82090  0.26880  Biso   1.000  H
  H70      1.0000 0.83220  0.17910  0.26880  Biso   1.000  H
  H71      1.0000 0.66780  0.67910  0.26880  Biso   1.000  H
  H72      1.0000 0.33220  0.32090  0.26880  Biso   1.000  H
  C89      1.0000 0.17280  0.32870  0.88760  Biso   1.000  C
  C90      1.0000 0.82720  0.67130  0.88760  Biso   1.000  C
  C91      1.0000 0.67280  0.17130  0.88760  Biso   1.000  C
  C92      1.0000 0.32720  0.82870  0.88760  Biso   1.000  C
  C93      1.0000 0.17280  0.82870  0.38760  Biso   1.000  C
  C94      1.0000 0.82720  0.17130  0.38760  Biso   1.000  C
  C95      1.0000 0.67280  0.67130  0.38760  Biso   1.000  C
  C96      1.0000 0.32720  0.32870  0.38760  Biso   1.000  C
  H73      1.0000 0.18130  0.35330  0.88520  Biso   1.000  H
  H74      1.0000 0.81870  0.64670  0.88520  Biso   1.000  H
  H75      1.0000 0.68130  0.14670  0.88520  Biso   1.000  H
  H76      1.0000 0.31870  0.85330  0.88520  Biso   1.000  H
  H77      1.0000 0.18130  0.85330  0.38520  Biso   1.000  H
  H78      1.0000 0.81870  0.14670  0.38520  Biso   1.000  H
  H79      1.0000 0.68130  0.64670  0.38520  Biso   1.000  H
  H80      1.0000 0.31870  0.35330  0.38520  Biso   1.000  H
  C97      1.0000 0.16790  0.31140  0.95850  Biso   1.000  C
  C98      1.0000 0.83210  0.68860  0.95850  Biso   1.000  C
  C99      1.0000 0.66790  0.18860  0.95850  Biso   1.000  C
  C100     1.0000 0.33210  0.81140  0.95850  Biso   1.000  C
  C101     1.0000 0.16790  0.81140  0.45850  Biso   1.000  C
  C102     1.0000 0.83210  0.18860  0.45850  Biso   1.000  C
  C103     1.0000 0.66790  0.68860  0.45850  Biso   1.000  C
  C104     1.0000 0.33210  0.31140  0.45850  Biso   1.000  C
  H81      1.0000 0.17280  0.32390  0.00660  Biso   1.000  H
  H82      1.0000 0.82720  0.67610  0.00660  Biso   1.000  H
  H83      1.0000 0.67280  0.17610  0.00660  Biso   1.000  H
  H84      1.0000 0.32720  0.82390  0.00660  Biso   1.000  H
  H85      1.0000 0.17280  0.82390  0.50660  Biso   1.000  H
  H86      1.0000 0.82720  0.17610  0.50660  Biso   1.000  H
  H87      1.0000 0.67280  0.67610  0.50660  Biso   1.000  H
  H88      1.0000 0.32720  0.32390  0.50660  Biso   1.000  H
  C105     1.0000 0.15520  0.27390  0.95900  Biso   1.000  C
  C106     1.0000 0.84480  0.72610  0.95900  Biso   1.000  C
  C107     1.0000 0.65520  0.22610  0.95900  Biso   1.000  C
  C108     1.0000 0.34480  0.77390  0.95900  Biso   1.000  C
  C109     1.0000 0.15520  0.77390  0.45900  Biso   1.000  C
  C110     1.0000 0.84480  0.22610  0.45900  Biso   1.000  C
  C111     1.0000 0.65520  0.72610  0.45900  Biso   1.000  C
  C112     1.0000 0.34480  0.27390  0.45900  Biso   1.000  C
  H89      1.0000 0.15130  0.26160  0.00770  Biso   1.000  H
  H90      1.0000 0.84870  0.73840  0.00770  Biso   1.000  H
  H91      1.0000 0.65130  0.23840  0.00770  Biso   1.000  H
  H92      1.0000 0.34870  0.76160  0.00770  Biso   1.000  H
  H93      1.0000 0.15130  0.76160  0.50770  Biso   1.000  H
  H94      1.0000 0.84870  0.23840  0.50770  Biso   1.000  H
  H95      1.0000 0.65130  0.73840  0.50770  Biso   1.000  H
  H96      1.0000 0.34870  0.26160  0.50770  Biso   1.000  H
  C113     1.0000 0.14870  0.25570  0.88790  Biso   1.000  C
  C114     1.0000 0.85130  0.74430  0.88790  Biso   1.000  C
  C115     1.0000 0.64870  0.24430  0.88790  Biso   1.000  C
  C116     1.0000 0.35130  0.75570  0.88790  Biso   1.000  C
  C117     1.0000 0.14870  0.75570  0.38790  Biso   1.000  C
  C118     1.0000 0.85130  0.24430  0.38790  Biso   1.000  C
  C119     1.0000 0.64870  0.74430  0.38790  Biso   1.000  C
  C120     1.0000 0.35130  0.25570  0.38790  Biso   1.000  C
  N17      1.0000 0.15330  0.27350  0.81700  Biso   1.000  N
  N18      1.0000 0.84670  0.72650  0.81700  Biso   1.000  N
  N19      1.0000 0.65330  0.22650  0.81700  Biso   1.000  N
  N20      1.0000 0.34670  0.77350  0.81700  Biso   1.000  N
  N21      1.0000 0.15330  0.77350  0.31700  Biso   1.000  N
  N22      1.0000 0.84670  0.22650  0.31700  Biso   1.000  N
  N23      1.0000 0.65330  0.72650  0.31700  Biso   1.000  N
  N24      1.0000 0.34670  0.27350  0.31700  Biso   1.000  N
  C121     1.0000 0.13770  0.21590  0.88150  Biso   1.000  C
  C122     1.0000 0.86230  0.78410  0.88150  Biso   1.000  C
  C123     1.0000 0.63770  0.28410  0.88150  Biso   1.000  C
  C124     1.0000 0.36230  0.71590  0.88150  Biso   1.000  C
  C125     1.0000 0.13770  0.71590  0.38150  Biso   1.000  C
  C126     1.0000 0.86230  0.28410  0.38150  Biso   1.000  C
  C127     1.0000 0.63770  0.78410  0.38150  Biso   1.000  C
  C128     1.0000 0.36230  0.21590  0.38150  Biso   1.000  C
  C129     1.0000 0.13330  0.19340  0.94860  Biso   1.000  C
  C130     1.0000 0.86670  0.80660  0.94860  Biso   1.000  C
  C131     1.0000 0.63330  0.30660  0.94860  Biso   1.000  C
  C132     1.0000 0.36670  0.69340  0.94860  Biso   1.000  C
  C133     1.0000 0.13330  0.69340  0.44860  Biso   1.000  C
  C134     1.0000 0.86670  0.30660  0.44860  Biso   1.000  C
  C135     1.0000 0.63330  0.80660  0.44860  Biso   1.000  C
  C136     1.0000 0.36670  0.19340  0.44860  Biso   1.000  C
  H97      1.0000 0.13520  0.20300  0.00050  Biso   1.000  H
  H98      1.0000 0.86480  0.79700  0.00050  Biso   1.000  H
  H99      1.0000 0.63520  0.29700  0.00050  Biso   1.000  H
  H100     1.0000 0.36480  0.70300  0.00050  Biso   1.000  H
  H101     1.0000 0.13520  0.70300  0.50050  Biso   1.000  H
  H102     1.0000 0.86480  0.29700  0.50050  Biso   1.000  H
  H103     1.0000 0.63520  0.79700  0.50050  Biso   1.000  H
  H104     1.0000 0.36480  0.20300  0.50050  Biso   1.000  H
  C137     1.0000 0.12590  0.15530  0.93460  Biso   1.000  C
  C138     1.0000 0.87410  0.84470  0.93460  Biso   1.000  C
  C139     1.0000 0.62590  0.34470  0.93460  Biso   1.000  C
  C140     1.0000 0.37410  0.65530  0.93460  Biso   1.000  C
  C141     1.0000 0.12590  0.65530  0.43460  Biso   1.000  C
  C142     1.0000 0.87410  0.34470  0.43460  Biso   1.000  C
  C143     1.0000 0.62590  0.84470  0.43460  Biso   1.000  C
  C144     1.0000 0.37410  0.15530  0.43460  Biso   1.000  C
  H105     1.0000 0.12380  0.13920  0.97830  Biso   1.000  H
  H106     1.0000 0.87620  0.86080  0.97830  Biso   1.000  H
  H107     1.0000 0.62380  0.36080  0.97830  Biso   1.000  H
  H108     1.0000 0.37620  0.63920  0.97830  Biso   1.000  H
  H109     1.0000 0.12380  0.63920  0.47830  Biso   1.000  H
  H110     1.0000 0.87620  0.36080  0.47830  Biso   1.000  H
  H111     1.0000 0.62380  0.86080  0.47830  Biso   1.000  H
  H112     1.0000 0.37620  0.13920  0.47830  Biso   1.000  H
  C145     1.0000 0.12180  0.14130  0.85730  Biso   1.000  C
  C146     1.0000 0.87820  0.85870  0.85730  Biso   1.000  C
  C147     1.0000 0.62180  0.35870  0.85730  Biso   1.000  C
  C148     1.0000 0.37820  0.64130  0.85730  Biso   1.000  C
  C149     1.0000 0.12180  0.64130  0.35730  Biso   1.000  C
  C150     1.0000 0.87820  0.35870  0.35730  Biso   1.000  C
  C151     1.0000 0.62180  0.85870  0.35730  Biso   1.000  C
  C152     1.0000 0.37820  0.14130  0.35730  Biso   1.000  C
  H113     1.0000 0.11600  0.11620  0.84810  Biso   1.000  H
  H114     1.0000 0.88400  0.88380  0.84810  Biso   1.000  H
  H115     1.0000 0.61600  0.38380  0.84810  Biso   1.000  H
  H116     1.0000 0.38400  0.61620  0.84810  Biso   1.000  H
  H117     1.0000 0.11600  0.61620  0.34810  Biso   1.000  H
  H118     1.0000 0.88400  0.38380  0.34810  Biso   1.000  H
  H119     1.0000 0.61600  0.88380  0.34810  Biso   1.000  H
  H120     1.0000 0.38400  0.11620  0.34810  Biso   1.000  H
  C153     1.0000 0.12670  0.16590  0.79500  Biso   1.000  C
  C154     1.0000 0.87330  0.83410  0.79500  Biso   1.000  C
  C155     1.0000 0.62670  0.33410  0.79500  Biso   1.000  C
  C156     1.0000 0.37330  0.66590  0.79500  Biso   1.000  C
  C157     1.0000 0.12670  0.66590  0.29500  Biso   1.000  C
  C158     1.0000 0.87330  0.33410  0.29500  Biso   1.000  C
  C159     1.0000 0.62670  0.83410  0.29500  Biso   1.000  C
  C160     1.0000 0.37330  0.16590  0.29500  Biso   1.000  C
  H121     1.0000 0.12530  0.15700  0.74250  Biso   1.000  H
  H122     1.0000 0.87470  0.84300  0.74250  Biso   1.000  H
  H123     1.0000 0.62530  0.34300  0.74250  Biso   1.000  H
  H124     1.0000 0.37470  0.65700  0.74250  Biso   1.000  H
  H125     1.0000 0.12530  0.65700  0.24250  Biso   1.000  H
  H126     1.0000 0.87470  0.34300  0.24250  Biso   1.000  H
  H127     1.0000 0.62530  0.84300  0.24250  Biso   1.000  H
  H128     1.0000 0.37470  0.15700  0.24250  Biso   1.000  H
  N25      1.0000 0.13350  0.20280  0.80660  Biso   1.000  N
  N26      1.0000 0.86650  0.79720  0.80660  Biso   1.000  N
  N27      1.0000 0.63350  0.29720  0.80660  Biso   1.000  N
  N28      1.0000 0.36650  0.70280  0.80660  Biso   1.000  N
  N29      1.0000 0.13350  0.70280  0.30660  Biso   1.000  N
  N30      1.0000 0.86650  0.29720  0.30660  Biso   1.000  N
  N31      1.0000 0.63350  0.79720  0.30660  Biso   1.000  N
  N32      1.0000 0.36650  0.20280  0.30660  Biso   1.000  N
  C161     1.0000 0.05810  0.30660  0.90990  Biso   1.000  C
  C162     1.0000 0.94190  0.69340  0.90990  Biso   1.000  C
  C163     1.0000 0.55810  0.19340  0.90990  Biso   1.000  C
  C164     1.0000 0.44190  0.80660  0.90990  Biso   1.000  C
  C165     1.0000 0.05810  0.80660  0.40990  Biso   1.000  C
  C166     1.0000 0.94190  0.19340  0.40990  Biso   1.000  C
  C167     1.0000 0.55810  0.69340  0.40990  Biso   1.000  C
  C168     1.0000 0.44190  0.30660  0.40990  Biso   1.000  C
  H129     1.0000 0.06530  0.32760  0.88070  Biso   1.000  H
  H130     1.0000 0.93470  0.67240  0.88070  Biso   1.000  H
  H131     1.0000 0.56530  0.17240  0.88070  Biso   1.000  H
  H132     1.0000 0.43470  0.82760  0.88070  Biso   1.000  H
  H133     1.0000 0.06530  0.82760  0.38070  Biso   1.000  H
  H134     1.0000 0.93470  0.17240  0.38070  Biso   1.000  H
  H135     1.0000 0.56530  0.67240  0.38070  Biso   1.000  H
  H136     1.0000 0.43470  0.32760  0.38070  Biso   1.000  H
  C169     1.0000 0.06480  0.30600  0.99220  Biso   1.000  C
  C170     1.0000 0.93520  0.69400  0.99220  Biso   1.000  C
  C171     1.0000 0.56480  0.19400  0.99220  Biso   1.000  C
  C172     1.0000 0.43520  0.80600  0.99220  Biso   1.000  C
  C173     1.0000 0.06480  0.80600  0.49220  Biso   1.000  C
  C174     1.0000 0.93520  0.19400  0.49220  Biso   1.000  C
  C175     1.0000 0.56480  0.69400  0.49220  Biso   1.000  C
  C176     1.0000 0.43520  0.30600  0.49220  Biso   1.000  C
  H137     1.0000 0.07600  0.32640  0.01780  Biso   1.000  H
  H138     1.0000 0.92400  0.67360  0.01780  Biso   1.000  H
  H139     1.0000 0.57600  0.17360  0.01780  Biso   1.000  H
  H140     1.0000 0.42400  0.82640  0.01780  Biso   1.000  H
  H141     1.0000 0.07600  0.82640  0.51780  Biso   1.000  H
  H142     1.0000 0.92400  0.17360  0.51780  Biso   1.000  H
  H143     1.0000 0.57600  0.67360  0.51780  Biso   1.000  H
  H144     1.0000 0.42400  0.32640  0.51780  Biso   1.000  H
  C177     1.0000 0.05460  0.27520  0.03490  Biso   1.000  C
  C178     1.0000 0.94540  0.72480  0.03490  Biso   1.000  C
  C179     1.0000 0.55460  0.22480  0.03490  Biso   1.000  C
  C180     1.0000 0.44540  0.77520  0.03490  Biso   1.000  C
  C181     1.0000 0.05460  0.77520  0.53490  Biso   1.000  C
  C182     1.0000 0.94540  0.22480  0.53490  Biso   1.000  C
  C183     1.0000 0.55460  0.72480  0.53490  Biso   1.000  C
  C184     1.0000 0.44540  0.27520  0.53490  Biso   1.000  C
  H145     1.0000 0.06010  0.27390  0.08970  Biso   1.000  H
  H146     1.0000 0.93990  0.72610  0.08970  Biso   1.000  H
  H147     1.0000 0.56010  0.22610  0.08970  Biso   1.000  H
  H148     1.0000 0.43990  0.77390  0.08970  Biso   1.000  H
  H149     1.0000 0.06010  0.77390  0.58970  Biso   1.000  H
  H150     1.0000 0.93990  0.22610  0.58970  Biso   1.000  H
  H151     1.0000 0.56010  0.72610  0.58970  Biso   1.000  H
  H152     1.0000 0.43990  0.27390  0.58970  Biso   1.000  H
  C185     1.0000 0.03740  0.24780  0.00010  Biso   1.000  C
  C186     1.0000 0.96260  0.75220  0.00010  Biso   1.000  C
  C187     1.0000 0.53740  0.25220  0.00010  Biso   1.000  C
  C188     1.0000 0.46260  0.74780  0.00010  Biso   1.000  C
  C189     1.0000 0.03740  0.74780  0.50010  Biso   1.000  C
  C190     1.0000 0.96260  0.25220  0.50010  Biso   1.000  C
  C191     1.0000 0.53740  0.75220  0.50010  Biso   1.000  C
  C192     1.0000 0.46260  0.24780  0.50010  Biso   1.000  C
  H153     1.0000 0.02920  0.22750  0.03050  Biso   1.000  H
  H154     1.0000 0.97080  0.77250  0.03050  Biso   1.000  H
  H155     1.0000 0.52920  0.27250  0.03050  Biso   1.000  H
  H156     1.0000 0.47080  0.72750  0.03050  Biso   1.000  H
  H157     1.0000 0.02920  0.72750  0.53050  Biso   1.000  H
  H158     1.0000 0.97080  0.27250  0.53050  Biso   1.000  H
  H159     1.0000 0.52920  0.77250  0.53050  Biso   1.000  H
  H160     1.0000 0.47080  0.22750  0.53050  Biso   1.000  H
  C193     1.0000 0.03070  0.24830  0.91440  Biso   1.000  C
  C194     1.0000 0.96930  0.75170  0.91440  Biso   1.000  C
  C195     1.0000 0.53070  0.25170  0.91440  Biso   1.000  C
  C196     1.0000 0.46930  0.74830  0.91440  Biso   1.000  C
  C197     1.0000 0.03070  0.74830  0.41440  Biso   1.000  C
  C198     1.0000 0.96930  0.25170  0.41440  Biso   1.000  C
  C199     1.0000 0.53070  0.75170  0.41440  Biso   1.000  C
  C200     1.0000 0.46930  0.24830  0.41440  Biso   1.000  C
  N33      1.0000 0.04170  0.27800  0.87070  Biso   1.000  N
  N34      1.0000 0.95830  0.72200  0.87070  Biso   1.000  N
  N35      1.0000 0.54170  0.22200  0.87070  Biso   1.000  N
  N36      1.0000 0.45830  0.77800  0.87070  Biso   1.000  N
  N37      1.0000 0.04170  0.77800  0.37070  Biso   1.000  N
  N38      1.0000 0.95830  0.22200  0.37070  Biso   1.000  N
  N39      1.0000 0.54170  0.72200  0.37070  Biso   1.000  N
  N40      1.0000 0.45830  0.27800  0.37070  Biso   1.000  N
  C201     1.0000 0.01280  0.21930  0.86830  Biso   1.000  C
  C202     1.0000 0.98720  0.78070  0.86830  Biso   1.000  C
  C203     1.0000 0.51280  0.28070  0.86830  Biso   1.000  C
  C204     1.0000 0.48720  0.71930  0.86830  Biso   1.000  C
  C205     1.0000 0.01280  0.71930  0.36830  Biso   1.000  C
  C206     1.0000 0.98720  0.28070  0.36830  Biso   1.000  C
  C207     1.0000 0.51280  0.78070  0.36830  Biso   1.000  C
  C208     1.0000 0.48720  0.21930  0.36830  Biso   1.000  C
  C209     1.0000 0.99510  0.18800  0.90020  Biso   1.000  C
  C210     1.0000 0.00490  0.81200  0.90020  Biso   1.000  C
  C211     1.0000 0.49510  0.31200  0.90020  Biso   1.000  C
  C212     1.0000 0.50490  0.68800  0.90020  Biso   1.000  C
  C213     1.0000 0.99510  0.68800  0.40020  Biso   1.000  C
  C214     1.0000 0.00490  0.31200  0.40020  Biso   1.000  C
  C215     1.0000 0.49510  0.81200  0.40020  Biso   1.000  C
  C216     1.0000 0.50490  0.18800  0.40020  Biso   1.000  C
  H161     1.0000 0.99430  0.18480  0.95570  Biso   1.000  H
  H162     1.0000 0.00570  0.81520  0.95570  Biso   1.000  H
  H163     1.0000 0.49430  0.31520  0.95570  Biso   1.000  H
  H164     1.0000 0.50570  0.68480  0.95570  Biso   1.000  H
  H165     1.0000 0.99430  0.68480  0.45570  Biso   1.000  H
  H166     1.0000 0.00570  0.31520  0.45570  Biso   1.000  H
  H167     1.0000 0.49430  0.81520  0.45570  Biso   1.000  H
  H168     1.0000 0.50570  0.18480  0.45570  Biso   1.000  H
  C217     1.0000 0.97960  0.16330  0.85380  Biso   1.000  C
  C218     1.0000 0.02040  0.83670  0.85380  Biso   1.000  C
  C219     1.0000 0.47960  0.33670  0.85380  Biso   1.000  C
  C220     1.0000 0.52040  0.66330  0.85380  Biso   1.000  C
  C221     1.0000 0.97960  0.66330  0.35380  Biso   1.000  C
  C222     1.0000 0.02040  0.33670  0.35380  Biso   1.000  C
  C223     1.0000 0.47960  0.83670  0.35380  Biso   1.000  C
  C224     1.0000 0.52040  0.16330  0.35380  Biso   1.000  C
  H169     1.0000 0.96620  0.14400  0.87880  Biso   1.000  H
  H170     1.0000 0.03380  0.85600  0.87880  Biso   1.000  H
  H171     1.0000 0.46620  0.35600  0.87880  Biso   1.000  H
  H172     1.0000 0.53380  0.64400  0.87880  Biso   1.000  H
  H173     1.0000 0.96620  0.64400  0.37880  Biso   1.000  H
  H174     1.0000 0.03380  0.35600  0.37880  Biso   1.000  H
  H175     1.0000 0.46620  0.85600  0.37880  Biso   1.000  H
  H176     1.0000 0.53380  0.14400  0.37880  Biso   1.000  H
  C225     1.0000 0.98080  0.16280  0.77400  Biso   1.000  C
  C226     1.0000 0.01920  0.83720  0.77400  Biso   1.000  C
  C227     1.0000 0.48080  0.33720  0.77400  Biso   1.000  C
  C228     1.0000 0.51920  0.66280  0.77400  Biso   1.000  C
  C229     1.0000 0.98080  0.66280  0.27400  Biso   1.000  C
  C230     1.0000 0.01920  0.33720  0.27400  Biso   1.000  C
  C231     1.0000 0.48080  0.83720  0.27400  Biso   1.000  C
  C232     1.0000 0.51920  0.16280  0.27400  Biso   1.000  C
  H177     1.0000 0.97110  0.14320  0.74350  Biso   1.000  H
  H178     1.0000 0.02890  0.85680  0.74350  Biso   1.000  H
  H179     1.0000 0.47110  0.35680  0.74350  Biso   1.000  H
  H180     1.0000 0.52890  0.64320  0.74350  Biso   1.000  H
  H181     1.0000 0.97110  0.64320  0.24350  Biso   1.000  H
  H182     1.0000 0.02890  0.35680  0.24350  Biso   1.000  H
  H183     1.0000 0.47110  0.85680  0.24350  Biso   1.000  H
  H184     1.0000 0.52890  0.14320  0.24350  Biso   1.000  H
  C233     1.0000 0.99930  0.19650  0.73700  Biso   1.000  C
  C234     1.0000 0.00070  0.80350  0.73700  Biso   1.000  C
  C235     1.0000 0.49930  0.30350  0.73700  Biso   1.000  C
  C236     1.0000 0.50070  0.69650  0.73700  Biso   1.000  C
  C237     1.0000 0.99930  0.69650  0.23700  Biso   1.000  C
  C238     1.0000 0.00070  0.30350  0.23700  Biso   1.000  C
  C239     1.0000 0.49930  0.80350  0.23700  Biso   1.000  C
  C240     1.0000 0.50070  0.19650  0.23700  Biso   1.000  C
  H185     1.0000 0.00000  0.19950  0.68140  Biso   1.000  H
  H186     1.0000 0.00000  0.80050  0.68140  Biso   1.000  H
  H187     1.0000 0.50000  0.30050  0.68140  Biso   1.000  H
  H188     1.0000 0.50000  0.69950  0.68140  Biso   1.000  H
  H189     1.0000 0.00000  0.69950  0.18140  Biso   1.000  H
  H190     1.0000 0.00000  0.30050  0.18140  Biso   1.000  H
  H191     1.0000 0.50000  0.80050  0.18140  Biso   1.000  H
  H192     1.0000 0.50000  0.19950  0.18140  Biso   1.000  H
  N41      1.0000 0.01480  0.22230  0.78590  Biso   1.000  N
  N42      1.0000 0.98520  0.77770  0.78590  Biso   1.000  N
  N43      1.0000 0.51480  0.27770  0.78590  Biso   1.000  N
  N44      1.0000 0.48520  0.72230  0.78590  Biso   1.000  N
  N45      1.0000 0.01480  0.72230  0.28590  Biso   1.000  N
  N46      1.0000 0.98520  0.27770  0.28590  Biso   1.000  N
  N47      1.0000 0.51480  0.77770  0.28590  Biso   1.000  N
  N48      1.0000 0.48520  0.22230  0.28590  Biso   1.000  N
  C241     1.0000 0.10830  0.37700  0.59680  Biso   1.000  C
  C242     1.0000 0.89170  0.62300  0.59680  Biso   1.000  C
  C243     1.0000 0.60830  0.12300  0.59680  Biso   1.000  C
  C244     1.0000 0.39170  0.87700  0.59680  Biso   1.000  C
  C245     1.0000 0.10830  0.87700  0.09680  Biso   1.000  C
  C246     1.0000 0.89170  0.12300  0.09680  Biso   1.000  C
  C247     1.0000 0.60830  0.62300  0.09680  Biso   1.000  C
  C248     1.0000 0.39170  0.37700  0.09680  Biso   1.000  C
  H193     1.0000 0.09350  0.37050  0.55240  Biso   1.000  H
  H194     1.0000 0.90650  0.62950  0.55240  Biso   1.000  H
  H195     1.0000 0.59350  0.12950  0.55240  Biso   1.000  H
  H196     1.0000 0.40650  0.87050  0.55240  Biso   1.000  H
  H197     1.0000 0.09350  0.87050  0.05240  Biso   1.000  H
  H198     1.0000 0.90650  0.12950  0.05240  Biso   1.000  H
  H199     1.0000 0.59350  0.62950  0.05240  Biso   1.000  H
  H200     1.0000 0.40650  0.37050  0.05240  Biso   1.000  H
  C249     1.0000 0.14770  0.37930  0.58800  Biso   1.000  C
  C250     1.0000 0.85230  0.62070  0.58800  Biso   1.000  C
  C251     1.0000 0.64770  0.12070  0.58800  Biso   1.000  C
  C252     1.0000 0.35230  0.87930  0.58800  Biso   1.000  C
  C253     1.0000 0.14770  0.87930  0.08800  Biso   1.000  C
  C254     1.0000 0.85230  0.12070  0.08800  Biso   1.000  C
  C255     1.0000 0.64770  0.62070  0.08800  Biso   1.000  C
  C256     1.0000 0.35230  0.37930  0.08800  Biso   1.000  C
  H201     1.0000 0.15930  0.37350  0.53920  Biso   1.000  H
  H202     1.0000 0.84070  0.62650  0.53920  Biso   1.000  H
  H203     1.0000 0.65930  0.12650  0.53920  Biso   1.000  H
  H204     1.0000 0.34070  0.87350  0.53920  Biso   1.000  H
  H205     1.0000 0.15930  0.87350  0.03920  Biso   1.000  H
  H206     1.0000 0.84070  0.12650  0.03920  Biso   1.000  H
  H207     1.0000 0.65930  0.62650  0.03920  Biso   1.000  H
  H208     1.0000 0.34070  0.37350  0.03920  Biso   1.000  H
  C257     1.0000 0.16910  0.39040  0.65280  Biso   1.000  C
  C258     1.0000 0.83090  0.60960  0.65280  Biso   1.000  C
  C259     1.0000 0.66910  0.10960  0.65280  Biso   1.000  C
  C260     1.0000 0.33090  0.89040  0.65280  Biso   1.000  C
  C261     1.0000 0.16910  0.89040  0.15280  Biso   1.000  C
  C262     1.0000 0.83090  0.10960  0.15280  Biso   1.000  C
  C263     1.0000 0.66910  0.60960  0.15280  Biso   1.000  C
  C264     1.0000 0.33090  0.39040  0.15280  Biso   1.000  C
  H209     1.0000 0.19530  0.39410  0.64700  Biso   1.000  H
  H210     1.0000 0.80470  0.60590  0.64700  Biso   1.000  H
  H211     1.0000 0.69530  0.10590  0.64700  Biso   1.000  H
  H212     1.0000 0.30470  0.89410  0.64700  Biso   1.000  H
  H213     1.0000 0.19530  0.89410  0.14700  Biso   1.000  H
  H214     1.0000 0.80470  0.10590  0.14700  Biso   1.000  H
  H215     1.0000 0.69530  0.60590  0.14700  Biso   1.000  H
  H216     1.0000 0.30470  0.39410  0.14700  Biso   1.000  H
  C265     1.0000 0.15160  0.39630  0.72830  Biso   1.000  C
  C266     1.0000 0.84840  0.60370  0.72830  Biso   1.000  C
  C267     1.0000 0.65160  0.10370  0.72830  Biso   1.000  C
  C268     1.0000 0.34840  0.89630  0.72830  Biso   1.000  C
  C269     1.0000 0.15160  0.89630  0.22830  Biso   1.000  C
  C270     1.0000 0.84840  0.10370  0.22830  Biso   1.000  C
  C271     1.0000 0.65160  0.60370  0.22830  Biso   1.000  C
  C272     1.0000 0.34840  0.39630  0.22830  Biso   1.000  C
  H217     1.0000 0.16610  0.40200  0.77370  Biso   1.000  H
  H218     1.0000 0.83390  0.59800  0.77370  Biso   1.000  H
  H219     1.0000 0.66610  0.09800  0.77370  Biso   1.000  H
  H220     1.0000 0.33390  0.90200  0.77370  Biso   1.000  H
  H221     1.0000 0.16610  0.90200  0.27370  Biso   1.000  H
  H222     1.0000 0.83390  0.09800  0.27370  Biso   1.000  H
  H223     1.0000 0.66610  0.59800  0.27370  Biso   1.000  H
  H224     1.0000 0.33390  0.40200  0.27370  Biso   1.000  H
  C273     1.0000 0.11190  0.39340  0.73230  Biso   1.000  C
  C274     1.0000 0.88810  0.60660  0.73230  Biso   1.000  C
  C275     1.0000 0.61190  0.10660  0.73230  Biso   1.000  C
  C276     1.0000 0.38810  0.89340  0.73230  Biso   1.000  C
  C277     1.0000 0.11190  0.89340  0.23230  Biso   1.000  C
  C278     1.0000 0.88810  0.10660  0.23230  Biso   1.000  C
  C279     1.0000 0.61190  0.60660  0.23230  Biso   1.000  C
  C280     1.0000 0.38810  0.39340  0.23230  Biso   1.000  C
  N49      1.0000 0.09110  0.38380  0.66630  Biso   1.000  N
  N50      1.0000 0.90890  0.61620  0.66630  Biso   1.000  N
  N51      1.0000 0.59110  0.11620  0.66630  Biso   1.000  N
  N52      1.0000 0.40890  0.88380  0.66630  Biso   1.000  N
  N53      1.0000 0.09110  0.88380  0.16630  Biso   1.000  N
  N54      1.0000 0.90890  0.11620  0.16630  Biso   1.000  N
  N55      1.0000 0.59110  0.61620  0.16630  Biso   1.000  N
  N56      1.0000 0.40890  0.38380  0.16630  Biso   1.000  N
  C281     1.0000 0.09030  0.39940  0.80780  Biso   1.000  C
  C282     1.0000 0.90970  0.60060  0.80780  Biso   1.000  C
  C283     1.0000 0.59030  0.10060  0.80780  Biso   1.000  C
  C284     1.0000 0.40970  0.89940  0.80780  Biso   1.000  C
  C285     1.0000 0.09030  0.89940  0.30780  Biso   1.000  C
  C286     1.0000 0.90970  0.10060  0.30780  Biso   1.000  C
  C287     1.0000 0.59030  0.60060  0.30780  Biso   1.000  C
  C288     1.0000 0.40970  0.39940  0.30780  Biso   1.000  C
  C289     1.0000 0.10670  0.40870  0.88070  Biso   1.000  C
  C290     1.0000 0.89330  0.59130  0.88070  Biso   1.000  C
  C291     1.0000 0.60670  0.09130  0.88070  Biso   1.000  C
  C292     1.0000 0.39330  0.90870  0.88070  Biso   1.000  C
  C293     1.0000 0.10670  0.90870  0.38070  Biso   1.000  C
  C294     1.0000 0.89330  0.09130  0.38070  Biso   1.000  C
  C295     1.0000 0.60670  0.59130  0.38070  Biso   1.000  C
  C296     1.0000 0.39330  0.40870  0.38070  Biso   1.000  C
  H225     1.0000 0.13300  0.41240  0.88420  Biso   1.000  H
  H226     1.0000 0.86700  0.58760  0.88420  Biso   1.000  H
  H227     1.0000 0.63300  0.08760  0.88420  Biso   1.000  H
  H228     1.0000 0.36700  0.91240  0.88420  Biso   1.000  H
  H229     1.0000 0.13300  0.91240  0.38420  Biso   1.000  H
  H230     1.0000 0.86700  0.08760  0.38420  Biso   1.000  H
  H231     1.0000 0.63300  0.58760  0.38420  Biso   1.000  H
  H232     1.0000 0.36700  0.41240  0.38420  Biso   1.000  H
  C297     1.0000 0.08450  0.41260  0.94720  Biso   1.000  C
  C298     1.0000 0.91550  0.58740  0.94720  Biso   1.000  C
  C299     1.0000 0.58450  0.08740  0.94720  Biso   1.000  C
  C300     1.0000 0.41550  0.91260  0.94720  Biso   1.000  C
  C301     1.0000 0.08450  0.91260  0.44720  Biso   1.000  C
  C302     1.0000 0.91550  0.08740  0.44720  Biso   1.000  C
  C303     1.0000 0.58450  0.58740  0.44720  Biso   1.000  C
  C304     1.0000 0.41550  0.41260  0.44720  Biso   1.000  C
  H233     1.0000 0.09560  0.41790  0.99680  Biso   1.000  H
  H234     1.0000 0.90440  0.58210  0.99680  Biso   1.000  H
  H235     1.0000 0.59560  0.08210  0.99680  Biso   1.000  H
  H236     1.0000 0.40440  0.91790  0.99680  Biso   1.000  H
  H237     1.0000 0.09560  0.91790  0.49680  Biso   1.000  H
  H238     1.0000 0.90440  0.08210  0.49680  Biso   1.000  H
  H239     1.0000 0.59560  0.58210  0.49680  Biso   1.000  H
  H240     1.0000 0.40440  0.41790  0.49680  Biso   1.000  H
  C305     1.0000 0.04460  0.40860  0.94120  Biso   1.000  C
  C306     1.0000 0.95540  0.59140  0.94120  Biso   1.000  C
  C307     1.0000 0.54460  0.09140  0.94120  Biso   1.000  C
  C308     1.0000 0.45540  0.90860  0.94120  Biso   1.000  C
  C309     1.0000 0.04460  0.90860  0.44120  Biso   1.000  C
  C310     1.0000 0.95540  0.09140  0.44120  Biso   1.000  C
  C311     1.0000 0.54460  0.59140  0.44120  Biso   1.000  C
  C312     1.0000 0.45540  0.40860  0.44120  Biso   1.000  C
  H241     1.0000 0.02880  0.41170  0.98570  Biso   1.000  H
  H242     1.0000 0.97120  0.58830  0.98570  Biso   1.000  H
  H243     1.0000 0.52880  0.08830  0.98570  Biso   1.000  H
  H244     1.0000 0.47120  0.91170  0.98570  Biso   1.000  H
  H245     1.0000 0.02880  0.91170  0.48570  Biso   1.000  H
  H246     1.0000 0.97120  0.08830  0.48570  Biso   1.000  H
  H247     1.0000 0.52880  0.58830  0.48570  Biso   1.000  H
  H248     1.0000 0.47120  0.41170  0.48570  Biso   1.000  H
  C313     1.0000 0.02970  0.39970  0.86650  Biso   1.000  C
  C314     1.0000 0.97030  0.60030  0.86650  Biso   1.000  C
  C315     1.0000 0.52970  0.10030  0.86650  Biso   1.000  C
  C316     1.0000 0.47030  0.89970  0.86650  Biso   1.000  C
  C317     1.0000 0.02970  0.89970  0.36650  Biso   1.000  C
  C318     1.0000 0.97030  0.10030  0.36650  Biso   1.000  C
  C319     1.0000 0.52970  0.60030  0.36650  Biso   1.000  C
  C320     1.0000 0.47030  0.39970  0.36650  Biso   1.000  C
  H249     1.0000 0.00330  0.39750  0.86080  Biso   1.000  H
  H250     1.0000 0.99670  0.60250  0.86080  Biso   1.000  H
  H251     1.0000 0.50330  0.10250  0.86080  Biso   1.000  H
  H252     1.0000 0.49670  0.89750  0.86080  Biso   1.000  H
  H253     1.0000 0.00330  0.89750  0.36080  Biso   1.000  H
  H254     1.0000 0.99670  0.10250  0.36080  Biso   1.000  H
  H255     1.0000 0.50330  0.60250  0.36080  Biso   1.000  H
  H256     1.0000 0.49670  0.39750  0.36080  Biso   1.000  H
  N57      1.0000 0.05220  0.39410  0.80170  Biso   1.000  N
  N58      1.0000 0.94780  0.60590  0.80170  Biso   1.000  N
  N59      1.0000 0.55220  0.10590  0.80170  Biso   1.000  N
  N60      1.0000 0.44780  0.89410  0.80170  Biso   1.000  N
  N61      1.0000 0.05220  0.89410  0.30170  Biso   1.000  N
  N62      1.0000 0.94780  0.10590  0.30170  Biso   1.000  N
  N63      1.0000 0.55220  0.60590  0.30170  Biso   1.000  N
  N64      1.0000 0.44780  0.39410  0.30170  Biso   1.000  N
  C321     1.0000 0.89190  0.38660  0.66030  Biso   1.000  C
  C322     1.0000 0.10810  0.61340  0.66030  Biso   1.000  C
  C323     1.0000 0.39190  0.11340  0.66030  Biso   1.000  C
  C324     1.0000 0.60810  0.88660  0.66030  Biso   1.000  C
  C325     1.0000 0.89190  0.88660  0.16030  Biso   1.000  C
  C326     1.0000 0.10810  0.11340  0.16030  Biso   1.000  C
  C327     1.0000 0.39190  0.61340  0.16030  Biso   1.000  C
  C328     1.0000 0.60810  0.38660  0.16030  Biso   1.000  C
  H257     1.0000 0.89680  0.37480  0.61140  Biso   1.000  H
  H258     1.0000 0.10320  0.62520  0.61140  Biso   1.000  H
  H259     1.0000 0.39680  0.12520  0.61140  Biso   1.000  H
  H260     1.0000 0.60320  0.87480  0.61140  Biso   1.000  H
  H261     1.0000 0.89680  0.87480  0.11140  Biso   1.000  H
  H262     1.0000 0.10320  0.12520  0.11140  Biso   1.000  H
  H263     1.0000 0.39680  0.62520  0.11140  Biso   1.000  H
  H264     1.0000 0.60320  0.37480  0.11140  Biso   1.000  H
  C329     1.0000 0.86880  0.41740  0.65940  Biso   1.000  C
  C330     1.0000 0.13120  0.58260  0.65940  Biso   1.000  C
  C331     1.0000 0.36880  0.08260  0.65940  Biso   1.000  C
  C332     1.0000 0.63120  0.91740  0.65940  Biso   1.000  C
  C333     1.0000 0.86880  0.91740  0.15940  Biso   1.000  C
  C334     1.0000 0.13120  0.08260  0.15940  Biso   1.000  C
  C335     1.0000 0.36880  0.58260  0.15940  Biso   1.000  C
  C336     1.0000 0.63120  0.41740  0.15940  Biso   1.000  C
  H265     1.0000 0.85870  0.42630  0.61120  Biso   1.000  H
  H266     1.0000 0.14130  0.57370  0.61120  Biso   1.000  H
  H267     1.0000 0.35870  0.07370  0.61120  Biso   1.000  H
  H268     1.0000 0.64130  0.92630  0.61120  Biso   1.000  H
  H269     1.0000 0.85870  0.92630  0.11120  Biso   1.000  H
  H270     1.0000 0.14130  0.07370  0.11120  Biso   1.000  H
  H271     1.0000 0.35870  0.57370  0.11120  Biso   1.000  H
  H272     1.0000 0.64130  0.42630  0.11120  Biso   1.000  H
  C337     1.0000 0.86090  0.43490  0.73020  Biso   1.000  C
  C338     1.0000 0.13910  0.56510  0.73020  Biso   1.000  C
  C339     1.0000 0.36090  0.06510  0.73020  Biso   1.000  C
  C340     1.0000 0.63910  0.93490  0.73020  Biso   1.000  C
  C341     1.0000 0.86090  0.93490  0.23020  Biso   1.000  C
  C342     1.0000 0.13910  0.06510  0.23020  Biso   1.000  C
  C343     1.0000 0.36090  0.56510  0.23020  Biso   1.000  C
  C344     1.0000 0.63910  0.43490  0.23020  Biso   1.000  C
  H273     1.0000 0.84340  0.45440  0.73240  Biso   1.000  H
  H274     1.0000 0.15660  0.54560  0.73240  Biso   1.000  H
  H275     1.0000 0.34340  0.04560  0.73240  Biso   1.000  H
  H276     1.0000 0.65660  0.95440  0.73240  Biso   1.000  H
  H277     1.0000 0.84340  0.95440  0.23240  Biso   1.000  H
  H278     1.0000 0.15660  0.04560  0.23240  Biso   1.000  H
  H279     1.0000 0.34340  0.54560  0.23240  Biso   1.000  H
  H280     1.0000 0.65660  0.45440  0.23240  Biso   1.000  H
  C345     1.0000 0.88010  0.42270  0.79990  Biso   1.000  C
  C346     1.0000 0.11990  0.57730  0.79990  Biso   1.000  C
  C347     1.0000 0.38010  0.07730  0.79990  Biso   1.000  C
  C348     1.0000 0.61990  0.92270  0.79990  Biso   1.000  C
  C349     1.0000 0.88010  0.92270  0.29990  Biso   1.000  C
  C350     1.0000 0.11990  0.07730  0.29990  Biso   1.000  C
  C351     1.0000 0.38010  0.57730  0.29990  Biso   1.000  C
  C352     1.0000 0.61990  0.42270  0.29990  Biso   1.000  C
  H281     1.0000 0.87780  0.43590  0.84800  Biso   1.000  H
  H282     1.0000 0.12220  0.56410  0.84800  Biso   1.000  H
  H283     1.0000 0.37780  0.06410  0.84800  Biso   1.000  H
  H284     1.0000 0.62220  0.93590  0.84800  Biso   1.000  H
  H285     1.0000 0.87780  0.93590  0.34800  Biso   1.000  H
  H286     1.0000 0.12220  0.06410  0.34800  Biso   1.000  H
  H287     1.0000 0.37780  0.56410  0.34800  Biso   1.000  H
  H288     1.0000 0.62220  0.43590  0.34800  Biso   1.000  H
  C353     1.0000 0.90260  0.39050  0.79570  Biso   1.000  C
  C354     1.0000 0.09740  0.60950  0.79570  Biso   1.000  C
  C355     1.0000 0.40260  0.10950  0.79570  Biso   1.000  C
  C356     1.0000 0.59740  0.89050  0.79570  Biso   1.000  C
  C357     1.0000 0.90260  0.89050  0.29570  Biso   1.000  C
  C358     1.0000 0.09740  0.10950  0.29570  Biso   1.000  C
  C359     1.0000 0.40260  0.60950  0.29570  Biso   1.000  C
  C360     1.0000 0.59740  0.39050  0.29570  Biso   1.000  C
  N65      1.0000 0.90800  0.37230  0.72620  Biso   1.000  N
  N66      1.0000 0.09200  0.62770  0.72620  Biso   1.000  N
  N67      1.0000 0.40800  0.12770  0.72620  Biso   1.000  N
  N68      1.0000 0.59200  0.87230  0.72620  Biso   1.000  N
  N69      1.0000 0.90800  0.87230  0.22620  Biso   1.000  N
  N70      1.0000 0.09200  0.12770  0.22620  Biso   1.000  N
  N71      1.0000 0.40800  0.62770  0.22620  Biso   1.000  N
  N72      1.0000 0.59200  0.37230  0.22620  Biso   1.000  N
  C361     1.0000 0.92010  0.37280  0.86870  Biso   1.000  C
  C362     1.0000 0.07990  0.62720  0.86870  Biso   1.000  C
  C363     1.0000 0.42010  0.12720  0.86870  Biso   1.000  C
  C364     1.0000 0.57990  0.87280  0.86870  Biso   1.000  C
  C365     1.0000 0.92010  0.87280  0.36870  Biso   1.000  C
  C366     1.0000 0.07990  0.12720  0.36870  Biso   1.000  C
  C367     1.0000 0.42010  0.62720  0.36870  Biso   1.000  C
  C368     1.0000 0.57990  0.37280  0.36870  Biso   1.000  C
  C369     1.0000 0.91590  0.38930  0.94560  Biso   1.000  C
  C370     1.0000 0.08410  0.61070  0.94560  Biso   1.000  C
  C371     1.0000 0.41590  0.11070  0.94560  Biso   1.000  C
  C372     1.0000 0.58410  0.88930  0.94560  Biso   1.000  C
  C373     1.0000 0.91590  0.88930  0.44560  Biso   1.000  C
  C374     1.0000 0.08410  0.11070  0.44560  Biso   1.000  C
  C375     1.0000 0.41590  0.61070  0.44560  Biso   1.000  C
  C376     1.0000 0.58410  0.38930  0.44560  Biso   1.000  C
  H289     1.0000 0.90450  0.41250  0.95450  Biso   1.000  H
  H290     1.0000 0.09550  0.58750  0.95450  Biso   1.000  H
  H291     1.0000 0.40450  0.08750  0.95450  Biso   1.000  H
  H292     1.0000 0.59550  0.91250  0.95450  Biso   1.000  H
  H293     1.0000 0.90450  0.91250  0.45450  Biso   1.000  H
  H294     1.0000 0.09550  0.08750  0.45450  Biso   1.000  H
  H295     1.0000 0.40450  0.58750  0.45450  Biso   1.000  H
  H296     1.0000 0.59550  0.41250  0.45450  Biso   1.000  H
  C377     1.0000 0.93080  0.36700  0.00620  Biso   1.000  C
  C378     1.0000 0.06920  0.63300  0.00620  Biso   1.000  C
  C379     1.0000 0.43080  0.13300  0.00620  Biso   1.000  C
  C380     1.0000 0.56920  0.86700  0.00620  Biso   1.000  C
  C381     1.0000 0.93080  0.86700  0.50620  Biso   1.000  C
  C382     1.0000 0.06920  0.13300  0.50620  Biso   1.000  C
  C383     1.0000 0.43080  0.63300  0.50620  Biso   1.000  C
  C384     1.0000 0.56920  0.36700  0.50620  Biso   1.000  C
  H297     1.0000 0.92890  0.37610  0.05850  Biso   1.000  H
  H298     1.0000 0.07110  0.62390  0.05850  Biso   1.000  H
  H299     1.0000 0.42890  0.12390  0.05850  Biso   1.000  H
  H300     1.0000 0.57110  0.87610  0.05850  Biso   1.000  H
  H301     1.0000 0.92890  0.87610  0.55850  Biso   1.000  H
  H302     1.0000 0.07110  0.12390  0.55850  Biso   1.000  H
  H303     1.0000 0.42890  0.62390  0.55850  Biso   1.000  H
  H304     1.0000 0.57110  0.37610  0.55850  Biso   1.000  H
  C385     1.0000 0.94800  0.33290  0.99710  Biso   1.000  C
  C386     1.0000 0.05200  0.66710  0.99710  Biso   1.000  C
  C387     1.0000 0.44800  0.16710  0.99710  Biso   1.000  C
  C388     1.0000 0.55200  0.83290  0.99710  Biso   1.000  C
  C389     1.0000 0.94800  0.83290  0.49710  Biso   1.000  C
  C390     1.0000 0.05200  0.16710  0.49710  Biso   1.000  C
  C391     1.0000 0.44800  0.66710  0.49710  Biso   1.000  C
  C392     1.0000 0.55200  0.33290  0.49710  Biso   1.000  C
  H305     1.0000 0.95710  0.31910  0.04060  Biso   1.000  H
  H306     1.0000 0.04290  0.68090  0.04060  Biso   1.000  H
  H307     1.0000 0.45710  0.18090  0.04060  Biso   1.000  H
  H308     1.0000 0.54290  0.81910  0.04060  Biso   1.000  H
  H309     1.0000 0.95710  0.81910  0.54060  Biso   1.000  H
  H310     1.0000 0.04290  0.18090  0.54060  Biso   1.000  H
  H311     1.0000 0.45710  0.68090  0.54060  Biso   1.000  H
  H312     1.0000 0.54290  0.31910  0.54060  Biso   1.000  H
  C393     1.0000 0.95090  0.32060  0.91900  Biso   1.000  C
  C394     1.0000 0.04910  0.67940  0.91900  Biso   1.000  C
  C395     1.0000 0.45090  0.17940  0.91900  Biso   1.000  C
  C396     1.0000 0.54910  0.82060  0.91900  Biso   1.000  C
  C397     1.0000 0.95090  0.82060  0.41900  Biso   1.000  C
  C398     1.0000 0.04910  0.17940  0.41900  Biso   1.000  C
  C399     1.0000 0.45090  0.67940  0.41900  Biso   1.000  C
  C400     1.0000 0.54910  0.32060  0.41900  Biso   1.000  C
  H313     1.0000 0.96230  0.29760  0.90940  Biso   1.000  H
  H314     1.0000 0.03770  0.70240  0.90940  Biso   1.000  H
  H315     1.0000 0.46230  0.20240  0.90940  Biso   1.000  H
  H316     1.0000 0.53770  0.79760  0.90940  Biso   1.000  H
  H317     1.0000 0.96230  0.79760  0.40940  Biso   1.000  H
  H318     1.0000 0.03770  0.20240  0.40940  Biso   1.000  H
  H319     1.0000 0.46230  0.70240  0.40940  Biso   1.000  H
  H320     1.0000 0.53770  0.29760  0.40940  Biso   1.000  H
  N73      1.0000 0.93770  0.34050  0.85530  Biso   1.000  N
  N74      1.0000 0.06230  0.65950  0.85530  Biso   1.000  N
  N75      1.0000 0.43770  0.15950  0.85530  Biso   1.000  N
  N76      1.0000 0.56230  0.84050  0.85530  Biso   1.000  N
  N77      1.0000 0.93770  0.84050  0.35530  Biso   1.000  N
  N78      1.0000 0.06230  0.15950  0.35530  Biso   1.000  N
  N79      1.0000 0.43770  0.65950  0.35530  Biso   1.000  N
  N80      1.0000 0.56230  0.34050  0.35530  Biso   1.000  N
  C401     1.0000 0.81980  0.34990  0.81500  Biso   1.000  C
  C402     1.0000 0.18020  0.65010  0.81500  Biso   1.000  C
  C403     1.0000 0.31980  0.15010  0.81500  Biso   1.000  C
  C404     1.0000 0.68020  0.84990  0.81500  Biso   1.000  C
  C405     1.0000 0.81980  0.84990  0.31500  Biso   1.000  C
  C406     1.0000 0.18020  0.15010  0.31500  Biso   1.000  C
  C407     1.0000 0.31980  0.65010  0.31500  Biso   1.000  C
  C408     1.0000 0.68020  0.34990  0.31500  Biso   1.000  C
  H321     1.0000 0.81400  0.36030  0.76510  Biso   1.000  H
  H322     1.0000 0.18600  0.63970  0.76510  Biso   1.000  H
  H323     1.0000 0.31400  0.13970  0.76510  Biso   1.000  H
  H324     1.0000 0.68600  0.86030  0.76510  Biso   1.000  H
  H325     1.0000 0.81400  0.86030  0.26510  Biso   1.000  H
  H326     1.0000 0.18600  0.13970  0.26510  Biso   1.000  H
  H327     1.0000 0.31400  0.63970  0.26510  Biso   1.000  H
  H328     1.0000 0.68600  0.36030  0.26510  Biso   1.000  H
  C409     1.0000 0.81360  0.37050  0.88380  Biso   1.000  C
  C410     1.0000 0.18640  0.62950  0.88380  Biso   1.000  C
  C411     1.0000 0.31360  0.12950  0.88380  Biso   1.000  C
  C412     1.0000 0.68640  0.87050  0.88380  Biso   1.000  C
  C413     1.0000 0.81360  0.87050  0.38380  Biso   1.000  C
  C414     1.0000 0.18640  0.12950  0.38380  Biso   1.000  C
  C415     1.0000 0.31360  0.62950  0.38380  Biso   1.000  C
  C416     1.0000 0.68640  0.37050  0.38380  Biso   1.000  C
  H329     1.0000 0.80230  0.39400  0.88030  Biso   1.000  H
  H330     1.0000 0.19770  0.60600  0.88030  Biso   1.000  H
  H331     1.0000 0.30230  0.10600  0.88030  Biso   1.000  H
  H332     1.0000 0.69770  0.89400  0.88030  Biso   1.000  H
  H333     1.0000 0.80230  0.89400  0.38030  Biso   1.000  H
  H334     1.0000 0.19770  0.10600  0.38030  Biso   1.000  H
  H335     1.0000 0.30230  0.60600  0.38030  Biso   1.000  H
  H336     1.0000 0.69770  0.39400  0.38030  Biso   1.000  H
  C417     1.0000 0.82350  0.35690  0.95510  Biso   1.000  C
  C418     1.0000 0.17650  0.64310  0.95510  Biso   1.000  C
  C419     1.0000 0.32350  0.14310  0.95510  Biso   1.000  C
  C420     1.0000 0.67650  0.85690  0.95510  Biso   1.000  C
  C421     1.0000 0.82350  0.85690  0.45510  Biso   1.000  C
  C422     1.0000 0.17650  0.14310  0.45510  Biso   1.000  C
  C423     1.0000 0.32350  0.64310  0.45510  Biso   1.000  C
  C424     1.0000 0.67650  0.35690  0.45510  Biso   1.000  C
  H337     1.0000 0.82000  0.37130  0.00110  Biso   1.000  H
  H338     1.0000 0.18000  0.62870  0.00110  Biso   1.000  H
  H339     1.0000 0.32000  0.12870  0.00110  Biso   1.000  H
  H340     1.0000 0.68000  0.87130  0.00110  Biso   1.000  H
  H341     1.0000 0.82000  0.87130  0.50110  Biso   1.000  H
  H342     1.0000 0.18000  0.12870  0.50110  Biso   1.000  H
  H343     1.0000 0.32000  0.62870  0.50110  Biso   1.000  H
  H344     1.0000 0.68000  0.37130  0.50110  Biso   1.000  H
  C425     1.0000 0.83910  0.32140  0.96130  Biso   1.000  C
  C426     1.0000 0.16090  0.67860  0.96130  Biso   1.000  C
  C427     1.0000 0.33910  0.17860  0.96130  Biso   1.000  C
  C428     1.0000 0.66090  0.82140  0.96130  Biso   1.000  C
  C429     1.0000 0.83910  0.82140  0.46130  Biso   1.000  C
  C430     1.0000 0.16090  0.17860  0.46130  Biso   1.000  C
  C431     1.0000 0.33910  0.67860  0.46130  Biso   1.000  C
  C432     1.0000 0.66090  0.32140  0.46130  Biso   1.000  C
  H345     1.0000 0.84610  0.31170  0.01120  Biso   1.000  H
  H346     1.0000 0.15390  0.68830  0.01120  Biso   1.000  H
  H347     1.0000 0.34610  0.18830  0.01120  Biso   1.000  H
  H348     1.0000 0.65390  0.81170  0.01120  Biso   1.000  H
  H349     1.0000 0.84610  0.81170  0.51120  Biso   1.000  H
  H350     1.0000 0.15390  0.18830  0.51120  Biso   1.000  H
  H351     1.0000 0.34610  0.68830  0.51120  Biso   1.000  H
  H352     1.0000 0.65390  0.31170  0.51120  Biso   1.000  H
  C433     1.0000 0.84410  0.30040  0.89060  Biso   1.000  C
  C434     1.0000 0.15590  0.69960  0.89060  Biso   1.000  C
  C435     1.0000 0.34410  0.19960  0.89060  Biso   1.000  C
  C436     1.0000 0.65590  0.80040  0.89060  Biso   1.000  C
  C437     1.0000 0.84410  0.80040  0.39060  Biso   1.000  C
  C438     1.0000 0.15590  0.19960  0.39060  Biso   1.000  C
  C439     1.0000 0.34410  0.69960  0.39060  Biso   1.000  C
  C440     1.0000 0.65590  0.30040  0.39060  Biso   1.000  C
  N81      1.0000 0.83430  0.31490  0.81840  Biso   1.000  N
  N82      1.0000 0.16570  0.68510  0.81840  Biso   1.000  N
  N83      1.0000 0.33430  0.18510  0.81840  Biso   1.000  N
  N84      1.0000 0.66570  0.81490  0.81840  Biso   1.000  N
  N85      1.0000 0.83430  0.81490  0.31840  Biso   1.000  N
  N86      1.0000 0.16570  0.18510  0.31840  Biso   1.000  N
  N87      1.0000 0.33430  0.68510  0.31840  Biso   1.000  N
  N88      1.0000 0.66570  0.31490  0.31840  Biso   1.000  N
  C441     1.0000 0.85740  0.26110  0.88900  Biso   1.000  C
  C442     1.0000 0.14260  0.73890  0.88900  Biso   1.000  C
  C443     1.0000 0.35740  0.23890  0.88900  Biso   1.000  C
  C444     1.0000 0.64260  0.76110  0.88900  Biso   1.000  C
  C445     1.0000 0.85740  0.76110  0.38900  Biso   1.000  C
  C446     1.0000 0.14260  0.23890  0.38900  Biso   1.000  C
  C447     1.0000 0.35740  0.73890  0.38900  Biso   1.000  C
  C448     1.0000 0.64260  0.26110  0.38900  Biso   1.000  C
  C449     1.0000 0.87000  0.24230  0.95720  Biso   1.000  C
  C450     1.0000 0.13000  0.75770  0.95720  Biso   1.000  C
  C451     1.0000 0.37000  0.25770  0.95720  Biso   1.000  C
  C452     1.0000 0.63000  0.74230  0.95720  Biso   1.000  C
  C453     1.0000 0.87000  0.74230  0.45720  Biso   1.000  C
  C454     1.0000 0.13000  0.25770  0.45720  Biso   1.000  C
  C455     1.0000 0.37000  0.75770  0.45720  Biso   1.000  C
  C456     1.0000 0.63000  0.24230  0.45720  Biso   1.000  C
  H353     1.0000 0.87220  0.25460  0.00630  Biso   1.000  H
  H354     1.0000 0.12780  0.74540  0.00630  Biso   1.000  H
  H355     1.0000 0.37220  0.24540  0.00630  Biso   1.000  H
  H356     1.0000 0.62780  0.75460  0.00630  Biso   1.000  H
  H357     1.0000 0.87220  0.75460  0.50630  Biso   1.000  H
  H358     1.0000 0.12780  0.24540  0.50630  Biso   1.000  H
  H359     1.0000 0.37220  0.74540  0.50630  Biso   1.000  H
  H360     1.0000 0.62780  0.25460  0.50630  Biso   1.000  H
  C457     1.0000 0.87910  0.20540  0.95010  Biso   1.000  C
  C458     1.0000 0.12090  0.79460  0.95010  Biso   1.000  C
  C459     1.0000 0.37910  0.29460  0.95010  Biso   1.000  C
  C460     1.0000 0.62090  0.70540  0.95010  Biso   1.000  C
  C461     1.0000 0.87910  0.70540  0.45010  Biso   1.000  C
  C462     1.0000 0.12090  0.29460  0.45010  Biso   1.000  C
  C463     1.0000 0.37910  0.79460  0.45010  Biso   1.000  C
  C464     1.0000 0.62090  0.20540  0.45010  Biso   1.000  C
  H361     1.0000 0.88700  0.19210  0.99530  Biso   1.000  H
  H362     1.0000 0.11300  0.80790  0.99530  Biso   1.000  H
  H363     1.0000 0.38700  0.30790  0.99530  Biso   1.000  H
  H364     1.0000 0.61300  0.69210  0.99530  Biso   1.000  H
  H365     1.0000 0.88700  0.69210  0.49530  Biso   1.000  H
  H366     1.0000 0.11300  0.30790  0.49530  Biso   1.000  H
  H367     1.0000 0.38700  0.80790  0.49530  Biso   1.000  H
  H368     1.0000 0.61300  0.19210  0.49530  Biso   1.000  H
  C465     1.0000 0.87690  0.18790  0.87810  Biso   1.000  C
  C466     1.0000 0.12310  0.81210  0.87810  Biso   1.000  C
  C467     1.0000 0.37690  0.31210  0.87810  Biso   1.000  C
  C468     1.0000 0.62310  0.68790  0.87810  Biso   1.000  C
  C469     1.0000 0.87690  0.68790  0.37810  Biso   1.000  C
  C470     1.0000 0.12310  0.31210  0.37810  Biso   1.000  C
  C471     1.0000 0.37690  0.81210  0.37810  Biso   1.000  C
  C472     1.0000 0.62310  0.18790  0.37810  Biso   1.000  C
  H369     1.0000 0.88250  0.16260  0.87390  Biso   1.000  H
  H370     1.0000 0.11750  0.83740  0.87390  Biso   1.000  H
  H371     1.0000 0.38250  0.33740  0.87390  Biso   1.000  H
  H372     1.0000 0.61750  0.66260  0.87390  Biso   1.000  H
  H373     1.0000 0.88250  0.66260  0.37390  Biso   1.000  H
  H374     1.0000 0.11750  0.33740  0.37390  Biso   1.000  H
  H375     1.0000 0.38250  0.83740  0.37390  Biso   1.000  H
  H376     1.0000 0.61750  0.16260  0.37390  Biso   1.000  H
  C473     1.0000 0.86620  0.20800  0.81100  Biso   1.000  C
  C474     1.0000 0.13380  0.79200  0.81100  Biso   1.000  C
  C475     1.0000 0.36620  0.29200  0.81100  Biso   1.000  C
  C476     1.0000 0.63380  0.70800  0.81100  Biso   1.000  C
  C477     1.0000 0.86620  0.70800  0.31100  Biso   1.000  C
  C478     1.0000 0.13380  0.29200  0.31100  Biso   1.000  C
  C479     1.0000 0.36620  0.79200  0.31100  Biso   1.000  C
  C480     1.0000 0.63380  0.20800  0.31100  Biso   1.000  C
  H377     1.0000 0.86550  0.19620  0.76100  Biso   1.000  H
  H378     1.0000 0.13450  0.80380  0.76100  Biso   1.000  H
  H379     1.0000 0.36550  0.30380  0.76100  Biso   1.000  H
  H380     1.0000 0.63450  0.69620  0.76100  Biso   1.000  H
  H381     1.0000 0.86550  0.69620  0.26100  Biso   1.000  H
  H382     1.0000 0.13450  0.30380  0.26100  Biso   1.000  H
  H383     1.0000 0.36550  0.80380  0.26100  Biso   1.000  H
  H384     1.0000 0.63450  0.19620  0.26100  Biso   1.000  H
  N89      1.0000 0.85670  0.24460  0.81640  Biso   1.000  N
  N90      1.0000 0.14330  0.75540  0.81640  Biso   1.000  N
  N91      1.0000 0.35670  0.25540  0.81640  Biso   1.000  N
  N92      1.0000 0.64330  0.74460  0.81640  Biso   1.000  N
  N93      1.0000 0.85670  0.74460  0.31640  Biso   1.000  N
  N94      1.0000 0.14330  0.25540  0.31640  Biso   1.000  N
  N95      1.0000 0.35670  0.75540  0.31640  Biso   1.000  N
  N96      1.0000 0.64330  0.24460  0.31640  Biso   1.000  N
  C481     1.0000 0.95050  0.50190  0.78400  Biso   1.000  C
  C482     1.0000 0.04950  0.49810  0.78400  Biso   1.000  C
  C483     1.0000 0.45050  0.99810  0.78400  Biso   1.000  C
  C484     1.0000 0.54950  0.00190  0.78400  Biso   1.000  C
  C485     1.0000 0.95050  0.00190  0.28400  Biso   1.000  C
  C486     1.0000 0.04950  0.99810  0.28400  Biso   1.000  C
  C487     1.0000 0.45050  0.49810  0.28400  Biso   1.000  C
  C488     1.0000 0.54950  0.50190  0.28400  Biso   1.000  C
  H385     1.0000 0.92700  0.50580  0.75500  Biso   1.000  H
  H386     1.0000 0.07300  0.49420  0.75500  Biso   1.000  H
  H387     1.0000 0.42700  0.99420  0.75500  Biso   1.000  H
  H388     1.0000 0.57300  0.00580  0.75500  Biso   1.000  H
  H389     1.0000 0.92700  0.00580  0.25500  Biso   1.000  H
  H390     1.0000 0.07300  0.99420  0.25500  Biso   1.000  H
  H391     1.0000 0.42700  0.49420  0.25500  Biso   1.000  H
  H392     1.0000 0.57300  0.50580  0.25500  Biso   1.000  H
  C489     1.0000 0.95200  0.50030  0.86560  Biso   1.000  C
  C490     1.0000 0.04800  0.49970  0.86560  Biso   1.000  C
  C491     1.0000 0.45200  0.99970  0.86560  Biso   1.000  C
  C492     1.0000 0.54800  0.00030  0.86560  Biso   1.000  C
  C493     1.0000 0.95200  0.00030  0.36560  Biso   1.000  C
  C494     1.0000 0.04800  0.99970  0.36560  Biso   1.000  C
  C495     1.0000 0.45200  0.49970  0.36560  Biso   1.000  C
  C496     1.0000 0.54800  0.50030  0.36560  Biso   1.000  C
  H393     1.0000 0.92760  0.50080  0.89210  Biso   1.000  H
  H394     1.0000 0.07240  0.49920  0.89210  Biso   1.000  H
  H395     1.0000 0.42760  0.99920  0.89210  Biso   1.000  H
  H396     1.0000 0.57240  0.00080  0.89210  Biso   1.000  H
  H397     1.0000 0.92760  0.00080  0.39210  Biso   1.000  H
  H398     1.0000 0.07240  0.99920  0.39210  Biso   1.000  H
  H399     1.0000 0.42760  0.49920  0.39210  Biso   1.000  H
  H400     1.0000 0.57240  0.50080  0.39210  Biso   1.000  H
  C497     1.0000 0.98680  0.49640  0.90620  Biso   1.000  C
  C498     1.0000 0.01320  0.50360  0.90620  Biso   1.000  C
  C499     1.0000 0.48680  0.00360  0.90620  Biso   1.000  C
  C500     1.0000 0.51320  0.99640  0.90620  Biso   1.000  C
  C501     1.0000 0.98680  0.99640  0.40620  Biso   1.000  C
  C502     1.0000 0.01320  0.00360  0.40620  Biso   1.000  C
  C503     1.0000 0.48680  0.50360  0.40620  Biso   1.000  C
  C504     1.0000 0.51320  0.49640  0.40620  Biso   1.000  C
  H401     1.0000 0.98620  0.49070  0.96270  Biso   1.000  H
  H402     1.0000 0.01380  0.50930  0.96270  Biso   1.000  H
  H403     1.0000 0.48620  0.00930  0.96270  Biso   1.000  H
  H404     1.0000 0.51380  0.99070  0.96270  Biso   1.000  H
  H405     1.0000 0.98620  0.99070  0.46270  Biso   1.000  H
  H406     1.0000 0.01380  0.00930  0.46270  Biso   1.000  H
  H407     1.0000 0.48620  0.50930  0.46270  Biso   1.000  H
  H408     1.0000 0.51380  0.49070  0.46270  Biso   1.000  H
  C505     1.0000 0.02120  0.49990  0.86160  Biso   1.000  C
  C506     1.0000 0.97880  0.50010  0.86160  Biso   1.000  C
  C507     1.0000 0.52120  0.00010  0.86160  Biso   1.000  C
  C508     1.0000 0.47880  0.99990  0.86160  Biso   1.000  C
  C509     1.0000 0.02120  0.99990  0.36160  Biso   1.000  C
  C510     1.0000 0.97880  0.00010  0.36160  Biso   1.000  C
  C511     1.0000 0.52120  0.50010  0.36160  Biso   1.000  C
  C512     1.0000 0.47880  0.49990  0.36160  Biso   1.000  C
  H409     1.0000 0.04580  0.50170  0.88690  Biso   1.000  H
  H410     1.0000 0.95420  0.49830  0.88690  Biso   1.000  H
  H411     1.0000 0.54580  0.99830  0.88690  Biso   1.000  H
  H412     1.0000 0.45420  0.00170  0.88690  Biso   1.000  H
  H413     1.0000 0.04580  0.00170  0.38690  Biso   1.000  H
  H414     1.0000 0.95420  0.99830  0.38690  Biso   1.000  H
  H415     1.0000 0.54580  0.49830  0.38690  Biso   1.000  H
  H416     1.0000 0.45420  0.50170  0.38690  Biso   1.000  H
  C513     1.0000 0.01900  0.49960  0.77820  Biso   1.000  C
  C514     1.0000 0.98100  0.50040  0.77820  Biso   1.000  C
  C515     1.0000 0.51900  0.00040  0.77820  Biso   1.000  C
  C516     1.0000 0.48100  0.99960  0.77820  Biso   1.000  C
  C517     1.0000 0.01900  0.99960  0.27820  Biso   1.000  C
  C518     1.0000 0.98100  0.00040  0.27820  Biso   1.000  C
  C519     1.0000 0.51900  0.50040  0.27820  Biso   1.000  C
  C520     1.0000 0.48100  0.49960  0.27820  Biso   1.000  C
  N97      1.0000 0.98430  0.50140  0.73880  Biso   1.000  N
  N98      1.0000 0.01570  0.49860  0.73880  Biso   1.000  N
  N99      1.0000 0.48430  0.99860  0.73880  Biso   1.000  N
  N100     1.0000 0.51570  0.00140  0.73880  Biso   1.000  N
  N101     1.0000 0.98430  0.00140  0.23880  Biso   1.000  N
  N102     1.0000 0.01570  0.99860  0.23880  Biso   1.000  N
  N103     1.0000 0.48430  0.49860  0.23880  Biso   1.000  N
  N104     1.0000 0.51570  0.50140  0.23880  Biso   1.000  N
  C521     1.0000 0.05220  0.49910  0.72820  Biso   1.000  C
  C522     1.0000 0.94780  0.50090  0.72820  Biso   1.000  C
  C523     1.0000 0.55220  0.00090  0.72820  Biso   1.000  C
  C524     1.0000 0.44780  0.99910  0.72820  Biso   1.000  C
  C525     1.0000 0.05220  0.99910  0.22820  Biso   1.000  C
  C526     1.0000 0.94780  0.00090  0.22820  Biso   1.000  C
  C527     1.0000 0.55220  0.50090  0.22820  Biso   1.000  C
  C528     1.0000 0.44780  0.49910  0.22820  Biso   1.000  C
  C529     1.0000 0.08760  0.48670  0.75510  Biso   1.000  C
  C530     1.0000 0.91240  0.51330  0.75510  Biso   1.000  C
  C531     1.0000 0.58760  0.01330  0.75510  Biso   1.000  C
  C532     1.0000 0.41240  0.98670  0.75510  Biso   1.000  C
  C533     1.0000 0.08760  0.98670  0.25510  Biso   1.000  C
  C534     1.0000 0.91240  0.01330  0.25510  Biso   1.000  C
  C535     1.0000 0.58760  0.51330  0.25510  Biso   1.000  C
  C536     1.0000 0.41240  0.48670  0.25510  Biso   1.000  C
  H417     1.0000 0.09390  0.48290  0.81080  Biso   1.000  H
  H418     1.0000 0.90610  0.51710  0.81080  Biso   1.000  H
  H419     1.0000 0.59390  0.01710  0.81080  Biso   1.000  H
  H420     1.0000 0.40610  0.98290  0.81080  Biso   1.000  H
  H421     1.0000 0.09390  0.98290  0.31080  Biso   1.000  H
  H422     1.0000 0.90610  0.01710  0.31080  Biso   1.000  H
  H423     1.0000 0.59390  0.51710  0.31080  Biso   1.000  H
  H424     1.0000 0.40610  0.48290  0.31080  Biso   1.000  H
  C537     1.0000 0.11650  0.48130  0.70210  Biso   1.000  C
  C538     1.0000 0.88350  0.51870  0.70210  Biso   1.000  C
  C539     1.0000 0.61650  0.01870  0.70210  Biso   1.000  C
  C540     1.0000 0.38350  0.98130  0.70210  Biso   1.000  C
  C541     1.0000 0.11650  0.98130  0.20210  Biso   1.000  C
  C542     1.0000 0.88350  0.01870  0.20210  Biso   1.000  C
  C543     1.0000 0.61650  0.51870  0.20210  Biso   1.000  C
  C544     1.0000 0.38350  0.48130  0.20210  Biso   1.000  C
  H425     1.0000 0.14150  0.47360  0.71970  Biso   1.000  H
  H426     1.0000 0.85850  0.52640  0.71970  Biso   1.000  H
  H427     1.0000 0.64150  0.02640  0.71970  Biso   1.000  H
  H428     1.0000 0.35850  0.97360  0.71970  Biso   1.000  H
  H429     1.0000 0.14150  0.97360  0.21970  Biso   1.000  H
  H430     1.0000 0.85850  0.02640  0.21970  Biso   1.000  H
  H431     1.0000 0.64150  0.52640  0.21970  Biso   1.000  H
  H432     1.0000 0.35850  0.47360  0.21970  Biso   1.000  H
  C545     1.0000 0.11150  0.48490  0.62040  Biso   1.000  C
  C546     1.0000 0.88850  0.51510  0.62040  Biso   1.000  C
  C547     1.0000 0.61150  0.01510  0.62040  Biso   1.000  C
  C548     1.0000 0.38850  0.98490  0.62040  Biso   1.000  C
  C549     1.0000 0.11150  0.98490  0.12040  Biso   1.000  C
  C550     1.0000 0.88850  0.01510  0.12040  Biso   1.000  C
  C551     1.0000 0.61150  0.51510  0.12040  Biso   1.000  C
  C552     1.0000 0.38850  0.48490  0.12040  Biso   1.000  C
  H433     1.0000 0.13330  0.48600  0.58510  Biso   1.000  H
  H434     1.0000 0.86670  0.51400  0.58510  Biso   1.000  H
  H435     1.0000 0.63330  0.01400  0.58510  Biso   1.000  H
  H436     1.0000 0.36670  0.98600  0.58510  Biso   1.000  H
  H437     1.0000 0.13330  0.98600  0.08510  Biso   1.000  H
  H438     1.0000 0.86670  0.01400  0.08510  Biso   1.000  H
  H439     1.0000 0.63330  0.51400  0.08510  Biso   1.000  H
  H440     1.0000 0.36670  0.48600  0.08510  Biso   1.000  H
  C553     1.0000 0.07470  0.49120  0.59280  Biso   1.000  C
  C554     1.0000 0.92530  0.50880  0.59280  Biso   1.000  C
  C555     1.0000 0.57470  0.00880  0.59280  Biso   1.000  C
  C556     1.0000 0.42530  0.99120  0.59280  Biso   1.000  C
  C557     1.0000 0.07470  0.99120  0.09280  Biso   1.000  C
  C558     1.0000 0.92530  0.00880  0.09280  Biso   1.000  C
  C559     1.0000 0.57470  0.50880  0.09280  Biso   1.000  C
  C560     1.0000 0.42530  0.49120  0.09280  Biso   1.000  C
  H441     1.0000 0.06750  0.48320  0.54170  Biso   1.000  H
  H442     1.0000 0.93250  0.51680  0.54170  Biso   1.000  H
  H443     1.0000 0.56750  0.01680  0.54170  Biso   1.000  H
  H444     1.0000 0.43250  0.98320  0.54170  Biso   1.000  H
  H445     1.0000 0.06750  0.98320  0.04170  Biso   1.000  H
  H446     1.0000 0.93250  0.01680  0.04170  Biso   1.000  H
  H447     1.0000 0.56750  0.51680  0.04170  Biso   1.000  H
  H448     1.0000 0.43250  0.48320  0.04170  Biso   1.000  H
  N105     1.0000 0.04620  0.50110  0.64450  Biso   1.000  N
  N106     1.0000 0.95380  0.49890  0.64450  Biso   1.000  N
  N107     1.0000 0.54620  0.99890  0.64450  Biso   1.000  N
  N108     1.0000 0.45380  0.00110  0.64450  Biso   1.000  N
  N109     1.0000 0.04620  0.00110  0.14450  Biso   1.000  N
  N110     1.0000 0.95380  0.99890  0.14450  Biso   1.000  N
  N111     1.0000 0.54620  0.49890  0.14450  Biso   1.000  N
  N112     1.0000 0.45380  0.50110  0.14450  Biso   1.000  N
  C561     1.0000 0.97690  0.42290  0.48480  Biso   1.000  C
  C562     1.0000 0.02310  0.57710  0.48480  Biso   1.000  C
  C563     1.0000 0.47690  0.07710  0.48480  Biso   1.000  C
  C564     1.0000 0.52310  0.92290  0.48480  Biso   1.000  C
  C565     1.0000 0.97690  0.92290  0.98480  Biso   1.000  C
  C566     1.0000 0.02310  0.07710  0.98480  Biso   1.000  C
  C567     1.0000 0.47690  0.57710  0.98480  Biso   1.000  C
  C568     1.0000 0.52310  0.42290  0.98480  Biso   1.000  C
  H449     1.0000 0.97350  0.40880  0.53130  Biso   1.000  H
  H450     1.0000 0.02650  0.59120  0.53130  Biso   1.000  H
  H451     1.0000 0.47350  0.09120  0.53130  Biso   1.000  H
  H452     1.0000 0.52650  0.90880  0.53130  Biso   1.000  H
  H453     1.0000 0.97350  0.90880  0.03130  Biso   1.000  H
  H454     1.0000 0.02650  0.09120  0.03130  Biso   1.000  H
  H455     1.0000 0.47350  0.59120  0.03130  Biso   1.000  H
  H456     1.0000 0.52650  0.40880  0.03130  Biso   1.000  H
  C569     1.0000 0.96730  0.40830  0.41170  Biso   1.000  C
  C570     1.0000 0.03270  0.59170  0.41170  Biso   1.000  C
  C571     1.0000 0.46730  0.09170  0.41170  Biso   1.000  C
  C572     1.0000 0.53270  0.90830  0.41170  Biso   1.000  C
  C573     1.0000 0.96730  0.90830  0.91170  Biso   1.000  C
  C574     1.0000 0.03270  0.09170  0.91170  Biso   1.000  C
  C575     1.0000 0.46730  0.59170  0.91170  Biso   1.000  C
  C576     1.0000 0.53270  0.40830  0.91170  Biso   1.000  C
  H457     1.0000 0.95750  0.38420  0.40830  Biso   1.000  H
  H458     1.0000 0.04250  0.61580  0.40830  Biso   1.000  H
  H459     1.0000 0.45750  0.11580  0.40830  Biso   1.000  H
  H460     1.0000 0.54250  0.88420  0.40830  Biso   1.000  H
  H461     1.0000 0.95750  0.88420  0.90830  Biso   1.000  H
  H462     1.0000 0.04250  0.11580  0.90830  Biso   1.000  H
  H463     1.0000 0.45750  0.61580  0.90830  Biso   1.000  H
  H464     1.0000 0.54250  0.38420  0.90830  Biso   1.000  H
  C577     1.0000 0.97220  0.42910  0.34350  Biso   1.000  C
  C578     1.0000 0.02780  0.57090  0.34350  Biso   1.000  C
  C579     1.0000 0.47220  0.07090  0.34350  Biso   1.000  C
  C580     1.0000 0.52780  0.92910  0.34350  Biso   1.000  C
  C581     1.0000 0.97220  0.92910  0.84350  Biso   1.000  C
  C582     1.0000 0.02780  0.07090  0.84350  Biso   1.000  C
  C583     1.0000 0.47220  0.57090  0.84350  Biso   1.000  C
  C584     1.0000 0.52780  0.42910  0.84350  Biso   1.000  C
  H465     1.0000 0.96570  0.41910  0.29360  Biso   1.000  H
  H466     1.0000 0.03430  0.58090  0.29360  Biso   1.000  H
  H467     1.0000 0.46570  0.08090  0.29360  Biso   1.000  H
  H468     1.0000 0.53430  0.91910  0.29360  Biso   1.000  H
  H469     1.0000 0.96570  0.91910  0.79360  Biso   1.000  H
  H470     1.0000 0.03430  0.08090  0.79360  Biso   1.000  H
  H471     1.0000 0.46570  0.58090  0.79360  Biso   1.000  H
  H472     1.0000 0.53430  0.41910  0.79360  Biso   1.000  H
  C585     1.0000 0.98660  0.46440  0.34850  Biso   1.000  C
  C586     1.0000 0.01340  0.53560  0.34850  Biso   1.000  C
  C587     1.0000 0.48660  0.03560  0.34850  Biso   1.000  C
  C588     1.0000 0.51340  0.96440  0.34850  Biso   1.000  C
  C589     1.0000 0.98660  0.96440  0.84850  Biso   1.000  C
  C590     1.0000 0.01340  0.03560  0.84850  Biso   1.000  C
  C591     1.0000 0.48660  0.53560  0.84850  Biso   1.000  C
  C592     1.0000 0.51340  0.46440  0.84850  Biso   1.000  C
  H473     1.0000 0.99000  0.47850  0.30200  Biso   1.000  H
  H474     1.0000 0.01000  0.52150  0.30200  Biso   1.000  H
  H475     1.0000 0.49000  0.02150  0.30200  Biso   1.000  H
  H476     1.0000 0.51000  0.97850  0.30200  Biso   1.000  H
  H477     1.0000 0.99000  0.97850  0.80200  Biso   1.000  H
  H478     1.0000 0.01000  0.02150  0.80200  Biso   1.000  H
  H479     1.0000 0.49000  0.52150  0.80200  Biso   1.000  H
  H480     1.0000 0.51000  0.47850  0.80200  Biso   1.000  H
  C593     1.0000 0.99620  0.47900  0.42160  Biso   1.000  C
  C594     1.0000 0.00380  0.52100  0.42160  Biso   1.000  C
  C595     1.0000 0.49620  0.02100  0.42160  Biso   1.000  C
  C596     1.0000 0.50380  0.97900  0.42160  Biso   1.000  C
  C597     1.0000 0.99620  0.97900  0.92160  Biso   1.000  C
  C598     1.0000 0.00380  0.02100  0.92160  Biso   1.000  C
  C599     1.0000 0.49620  0.52100  0.92160  Biso   1.000  C
  C600     1.0000 0.50380  0.47900  0.92160  Biso   1.000  C
  N113     1.0000 0.99130  0.45830  0.48980  Biso   1.000  N
  N114     1.0000 0.00870  0.54170  0.48980  Biso   1.000  N
  N115     1.0000 0.49130  0.04170  0.48980  Biso   1.000  N
  N116     1.0000 0.50870  0.95830  0.48980  Biso   1.000  N
  N117     1.0000 0.99130  0.95830  0.98980  Biso   1.000  N
  N118     1.0000 0.00870  0.04170  0.98980  Biso   1.000  N
  N119     1.0000 0.49130  0.54170  0.98980  Biso   1.000  N
  N120     1.0000 0.50870  0.45830  0.98980  Biso   1.000  N
  C601     1.0000 0.97020  0.43740  0.52560  Biso   1.000  C
  C602     1.0000 0.02980  0.56260  0.52560  Biso   1.000  C
  C603     1.0000 0.47020  0.06260  0.52560  Biso   1.000  C
  C604     1.0000 0.52980  0.93740  0.52560  Biso   1.000  C
  C605     1.0000 0.97020  0.93740  0.02560  Biso   1.000  C
  C606     1.0000 0.02980  0.06260  0.02560  Biso   1.000  C
  C607     1.0000 0.47020  0.56260  0.02560  Biso   1.000  C
  C608     1.0000 0.52980  0.43740  0.02560  Biso   1.000  C
  H481     1.0000 0.96640  0.43080  0.57920  Biso   1.000  H
  H482     1.0000 0.03360  0.56920  0.57920  Biso   1.000  H
  H483     1.0000 0.46640  0.06920  0.57920  Biso   1.000  H
  H484     1.0000 0.53360  0.93080  0.57920  Biso   1.000  H
  H485     1.0000 0.96640  0.93080  0.07920  Biso   1.000  H
  H486     1.0000 0.03360  0.06920  0.07920  Biso   1.000  H
  H487     1.0000 0.46640  0.56920  0.07920  Biso   1.000  H
  H488     1.0000 0.53360  0.43080  0.07920  Biso   1.000  H
  C609     1.0000 0.96320  0.41190  0.46560  Biso   1.000  C
  C610     1.0000 0.03680  0.58810  0.46560  Biso   1.000  C
  C611     1.0000 0.46320  0.08810  0.46560  Biso   1.000  C
  C612     1.0000 0.53680  0.91190  0.46560  Biso   1.000  C
  C613     1.0000 0.96320  0.91190  0.96560  Biso   1.000  C
  C614     1.0000 0.03680  0.08810  0.96560  Biso   1.000  C
  C615     1.0000 0.46320  0.58810  0.96560  Biso   1.000  C
  C616     1.0000 0.53680  0.41190  0.96560  Biso   1.000  C
  H489     1.0000 0.95460  0.38810  0.47860  Biso   1.000  H
  H490     1.0000 0.04540  0.61190  0.47860  Biso   1.000  H
  H491     1.0000 0.45460  0.11190  0.47860  Biso   1.000  H
  H492     1.0000 0.54540  0.88810  0.47860  Biso   1.000  H
  H493     1.0000 0.95460  0.88810  0.97860  Biso   1.000  H
  H494     1.0000 0.04540  0.11190  0.97860  Biso   1.000  H
  H495     1.0000 0.45460  0.61190  0.97860  Biso   1.000  H
  H496     1.0000 0.54540  0.38810  0.97860  Biso   1.000  H
  C617     1.0000 0.96890  0.42160  0.38650  Biso   1.000  C
  C618     1.0000 0.03110  0.57840  0.38650  Biso   1.000  C
  C619     1.0000 0.46890  0.07840  0.38650  Biso   1.000  C
  C620     1.0000 0.53110  0.92160  0.38650  Biso   1.000  C
  C621     1.0000 0.96890  0.92160  0.88650  Biso   1.000  C
  C622     1.0000 0.03110  0.07840  0.88650  Biso   1.000  C
  C623     1.0000 0.46890  0.57840  0.88650  Biso   1.000  C
  C624     1.0000 0.53110  0.42160  0.88650  Biso   1.000  C
  H497     1.0000 0.96410  0.40430  0.34590  Biso   1.000  H
  H498     1.0000 0.03590  0.59570  0.34590  Biso   1.000  H
  H499     1.0000 0.46410  0.09570  0.34590  Biso   1.000  H
  H500     1.0000 0.53590  0.90430  0.34590  Biso   1.000  H
  H501     1.0000 0.96410  0.90430  0.84590  Biso   1.000  H
  H502     1.0000 0.03590  0.09570  0.84590  Biso   1.000  H
  H503     1.0000 0.46410  0.59570  0.84590  Biso   1.000  H
  H504     1.0000 0.53590  0.40430  0.84590  Biso   1.000  H
  C625     1.0000 0.98160  0.45680  0.36740  Biso   1.000  C
  C626     1.0000 0.01840  0.54320  0.36740  Biso   1.000  C
  C627     1.0000 0.48160  0.04320  0.36740  Biso   1.000  C
  C628     1.0000 0.51840  0.95680  0.36740  Biso   1.000  C
  C629     1.0000 0.98160  0.95680  0.86740  Biso   1.000  C
  C630     1.0000 0.01840  0.04320  0.86740  Biso   1.000  C
  C631     1.0000 0.48160  0.54320  0.86740  Biso   1.000  C
  C632     1.0000 0.51840  0.45680  0.86740  Biso   1.000  C
  H505     1.0000 0.98540  0.46340  0.31380  Biso   1.000  H
  H506     1.0000 0.01460  0.53660  0.31380  Biso   1.000  H
  H507     1.0000 0.48540  0.03660  0.31380  Biso   1.000  H
  H508     1.0000 0.51460  0.96340  0.31380  Biso   1.000  H
  H509     1.0000 0.98540  0.96340  0.81380  Biso   1.000  H
  H510     1.0000 0.01460  0.03660  0.81380  Biso   1.000  H
  H511     1.0000 0.48540  0.53660  0.81380  Biso   1.000  H
  H512     1.0000 0.51460  0.46340  0.81380  Biso   1.000  H
  C633     1.0000 0.98860  0.48230  0.42740  Biso   1.000  C
  C634     1.0000 0.01140  0.51770  0.42740  Biso   1.000  C
  C635     1.0000 0.48860  0.01770  0.42740  Biso   1.000  C
  C636     1.0000 0.51140  0.98230  0.42740  Biso   1.000  C
  C637     1.0000 0.98860  0.98230  0.92740  Biso   1.000  C
  C638     1.0000 0.01140  0.01770  0.92740  Biso   1.000  C
  C639     1.0000 0.48860  0.51770  0.92740  Biso   1.000  C
  C640     1.0000 0.51140  0.48230  0.92740  Biso   1.000  C
  N121     1.0000 0.98300  0.47260  0.50650  Biso   1.000  N
  N122     1.0000 0.01700  0.52740  0.50650  Biso   1.000  N
  N123     1.0000 0.48300  0.02740  0.50650  Biso   1.000  N
  N124     1.0000 0.51700  0.97260  0.50650  Biso   1.000  N
  N125     1.0000 0.98300  0.97260  0.00650  Biso   1.000  N
  N126     1.0000 0.01700  0.02740  0.00650  Biso   1.000  N
  N127     1.0000 0.48300  0.52740  0.00650  Biso   1.000  N
  N128     1.0000 0.51700  0.47260  0.00650  Biso   1.000  N
