data_image0
_cell_length_a       26.318
_cell_length_b       22.685
_cell_length_c       13.388
_cell_angle_alpha    90
_cell_angle_beta     90
_cell_angle_gamma    90

_symmetry_space_group_name_H-M    "P 1"
_symmetry_int_tables_number       1

loop_
  _symmetry_equiv_pos_as_xyz
  'x, y, z'

loop_
  _atom_site_label
  _atom_site_occupancy
  _atom_site_fract_x
  _atom_site_fract_y
  _atom_site_fract_z
  _atom_site_thermal_displace_type
  _atom_site_B_iso_or_equiv
  _atom_site_type_symbol
  Cu1      1.0000 0.39277  0.78612  0.17256  Biso   1.000  Cu
  Cu2      1.0000 0.60723  0.21388  0.67256  Biso   1.000  Cu
  Cu3      1.0000 0.89277  0.71388  0.17256  Biso   1.000  Cu
  Cu4      1.0000 0.10723  0.28612  0.67256  Biso   1.000  Cu
  Cu5      1.0000 0.00678  0.77344  0.11588  Biso   1.000  Cu
  Cu6      1.0000 0.99322  0.22656  0.61588  Biso   1.000  Cu
  Cu7      1.0000 0.50678  0.72656  0.11588  Biso   1.000  Cu
  Cu8      1.0000 0.49322  0.27344  0.61588  Biso   1.000  Cu
  O1       1.0000 0.37430  0.83810  0.27670  Biso   1.000  O
  O2       1.0000 0.62570  0.16190  0.77670  Biso   1.000  O
  O3       1.0000 0.87430  0.66190  0.27670  Biso   1.000  O
  O4       1.0000 0.12570  0.33810  0.77670  Biso   1.000  O
  C1       1.0000 0.36230  0.89360  0.27530  Biso   1.000  C
  C2       1.0000 0.63770  0.10640  0.77530  Biso   1.000  C
  C3       1.0000 0.86230  0.60640  0.27530  Biso   1.000  C
  C4       1.0000 0.13770  0.39360  0.77530  Biso   1.000  C
  C5       1.0000 0.40020  0.67860  0.05830  Biso   1.000  C
  C6       1.0000 0.59980  0.32140  0.55830  Biso   1.000  C
  C7       1.0000 0.90020  0.82140  0.05830  Biso   1.000  C
  C8       1.0000 0.09980  0.17860  0.55830  Biso   1.000  C
  O5       1.0000 0.41530  0.73240  0.07310  Biso   1.000  O
  O6       1.0000 0.58470  0.26760  0.57310  Biso   1.000  O
  O7       1.0000 0.91530  0.76760  0.07310  Biso   1.000  O
  O8       1.0000 0.08470  0.23240  0.57310  Biso   1.000  O
  O9       1.0000 0.98770  0.71470  0.21080  Biso   1.000  O
  O10      1.0000 0.01230  0.28530  0.71080  Biso   1.000  O
  O11      1.0000 0.48770  0.78530  0.21080  Biso   1.000  O
  O12      1.0000 0.51230  0.21470  0.71080  Biso   1.000  O
  C9       1.0000 0.00190  0.65990  0.21200  Biso   1.000  C
  C10      1.0000 0.99810  0.34010  0.71200  Biso   1.000  C
  C11      1.0000 0.50190  0.84010  0.21200  Biso   1.000  C
  C12      1.0000 0.49810  0.15990  0.71200  Biso   1.000  C
  O13      1.0000 0.01990  0.83100  0.01940  Biso   1.000  O
  O14      1.0000 0.98010  0.16900  0.51940  Biso   1.000  O
  O15      1.0000 0.51990  0.66900  0.01940  Biso   1.000  O
  O16      1.0000 0.48010  0.33100  0.51940  Biso   1.000  O
  C13      1.0000 0.03500  0.88700  0.02920  Biso   1.000  C
  C14      1.0000 0.96500  0.11300  0.52920  Biso   1.000  C
  C15      1.0000 0.53500  0.61300  0.02920  Biso   1.000  C
  C16      1.0000 0.46500  0.38700  0.52920  Biso   1.000  C
  O17      1.0000 0.40740  0.84230  0.97620  Biso   1.000  O
  O18      1.0000 0.59260  0.15770  0.47620  Biso   1.000  O
  O19      1.0000 0.90740  0.65770  0.97620  Biso   1.000  O
  O20      1.0000 0.09260  0.34230  0.47620  Biso   1.000  O
  H1       1.0000 0.41450  0.80750  0.96770  Biso   1.000  H
  H2       1.0000 0.58550  0.19250  0.46770  Biso   1.000  H
  H3       1.0000 0.91450  0.69250  0.96770  Biso   1.000  H
  H4       1.0000 0.08550  0.30750  0.46770  Biso   1.000  H
  C17      1.0000 0.36430  0.92770  0.18820  Biso   1.000  C
  C18      1.0000 0.63570  0.07230  0.68820  Biso   1.000  C
  C19      1.0000 0.86430  0.57230  0.18820  Biso   1.000  C
  C20      1.0000 0.13570  0.42770  0.68820  Biso   1.000  C
  C21      1.0000 0.38010  0.64230  0.13580  Biso   1.000  C
  C22      1.0000 0.61990  0.35770  0.63580  Biso   1.000  C
  C23      1.0000 0.88010  0.85770  0.13580  Biso   1.000  C
  C24      1.0000 0.11990  0.14230  0.63580  Biso   1.000  C
  O21      1.0000 0.35690  0.73140  0.35770  Biso   1.000  O
  O22      1.0000 0.64310  0.26860  0.85770  Biso   1.000  O
  O23      1.0000 0.85690  0.76860  0.35770  Biso   1.000  O
  O24      1.0000 0.14310  0.23140  0.85770  Biso   1.000  O
  H5       1.0000 0.35860  0.76700  0.36770  Biso   1.000  H
  H6       1.0000 0.64140  0.23300  0.86770  Biso   1.000  H
  H7       1.0000 0.85860  0.73300  0.36770  Biso   1.000  H
  H8       1.0000 0.14140  0.26700  0.86770  Biso   1.000  H
  O25      1.0000 0.04360  0.72910  0.92220  Biso   1.000  O
  O26      1.0000 0.95640  0.27090  0.42220  Biso   1.000  O
  O27      1.0000 0.54360  0.77090  0.92220  Biso   1.000  O
  O28      1.0000 0.45640  0.22910  0.42220  Biso   1.000  O
  H9       1.0000 0.04130  0.76500  0.91590  Biso   1.000  H
  H10      1.0000 0.95870  0.23500  0.41590  Biso   1.000  H
  H11      1.0000 0.54130  0.73500  0.91590  Biso   1.000  H
  H12      1.0000 0.45870  0.26500  0.41590  Biso   1.000  H
  C25      1.0000 0.01880  0.62770  0.12820  Biso   1.000  C
  C26      1.0000 0.98120  0.37230  0.62820  Biso   1.000  C
  C27      1.0000 0.51880  0.87230  0.12820  Biso   1.000  C
  C28      1.0000 0.48120  0.12770  0.62820  Biso   1.000  C
  C29      1.0000 0.03710  0.91560  0.12370  Biso   1.000  C
  C30      1.0000 0.96290  0.08440  0.62370  Biso   1.000  C
  C31      1.0000 0.53710  0.58440  0.12370  Biso   1.000  C
  C32      1.0000 0.46290  0.41560  0.62370  Biso   1.000  C
  O29      1.0000 0.99780  0.81720  0.32250  Biso   1.000  O
  O30      1.0000 0.00220  0.18280  0.82250  Biso   1.000  O
  O31      1.0000 0.49780  0.68280  0.32250  Biso   1.000  O
  O32      1.0000 0.50220  0.31720  0.82250  Biso   1.000  O
  H13      1.0000 0.98950  0.78240  0.32470  Biso   1.000  H
  H14      1.0000 0.01050  0.21760  0.82470  Biso   1.000  H
  H15      1.0000 0.48950  0.71760  0.32470  Biso   1.000  H
  H16      1.0000 0.51050  0.28240  0.82470  Biso   1.000  H
  C33      1.0000 0.35170  0.98860  0.19030  Biso   1.000  C
  C34      1.0000 0.64830  0.01140  0.69030  Biso   1.000  C
  C35      1.0000 0.85170  0.51140  0.19030  Biso   1.000  C
  C36      1.0000 0.14830  0.48860  0.69030  Biso   1.000  C
  H17      1.0000 0.35460  0.01040  0.13180  Biso   1.000  H
  H18      1.0000 0.64540  0.98960  0.63180  Biso   1.000  H
  H19      1.0000 0.85460  0.48960  0.13180  Biso   1.000  H
  H20      1.0000 0.14540  0.51040  0.63180  Biso   1.000  H
  C37      1.0000 0.37050  0.58130  0.11840  Biso   1.000  C
  C38      1.0000 0.62950  0.41870  0.61840  Biso   1.000  C
  C39      1.0000 0.87050  0.91870  0.11840  Biso   1.000  C
  C40      1.0000 0.12950  0.08130  0.61840  Biso   1.000  C
  H21      1.0000 0.35970  0.55790  0.17150  Biso   1.000  H
  H22      1.0000 0.64030  0.44210  0.67150  Biso   1.000  H
  H23      1.0000 0.85970  0.94210  0.17150  Biso   1.000  H
  H24      1.0000 0.14030  0.05790  0.67150  Biso   1.000  H
  C41      1.0000 0.02800  0.56750  0.13310  Biso   1.000  C
  C42      1.0000 0.97200  0.43250  0.63310  Biso   1.000  C
  C43      1.0000 0.52800  0.93250  0.13310  Biso   1.000  C
  C44      1.0000 0.47200  0.06750  0.63310  Biso   1.000  C
  H25      1.0000 0.03950  0.54840  0.07600  Biso   1.000  H
  H26      1.0000 0.96050  0.45160  0.57600  Biso   1.000  H
  H27      1.0000 0.53950  0.95160  0.07600  Biso   1.000  H
  H28      1.0000 0.46050  0.04840  0.57600  Biso   1.000  H
  C45      1.0000 0.05520  0.97380  0.12840  Biso   1.000  C
  C46      1.0000 0.94480  0.02620  0.62840  Biso   1.000  C
  C47      1.0000 0.55520  0.52620  0.12840  Biso   1.000  C
  C48      1.0000 0.44480  0.47380  0.62840  Biso   1.000  C
  H29      1.0000 0.05740  0.99190  0.19060  Biso   1.000  H
  H30      1.0000 0.94260  0.00810  0.69060  Biso   1.000  H
  H31      1.0000 0.55740  0.50810  0.19060  Biso   1.000  H
  H32      1.0000 0.44260  0.49190  0.69060  Biso   1.000  H
  C49      1.0000 0.33540  0.01610  0.27410  Biso   1.000  C
  C50      1.0000 0.66460  0.98390  0.77410  Biso   1.000  C
  C51      1.0000 0.83540  0.48390  0.27410  Biso   1.000  C
  C52      1.0000 0.16460  0.51610  0.77410  Biso   1.000  C
  C53      1.0000 0.37640  0.55640  0.02830  Biso   1.000  C
  C54      1.0000 0.62360  0.44360  0.52830  Biso   1.000  C
  C55      1.0000 0.87640  0.94360  0.02830  Biso   1.000  C
  C56      1.0000 0.12360  0.05640  0.52830  Biso   1.000  C
  C57      1.0000 0.02080  0.53510  0.21740  Biso   1.000  C
  C58      1.0000 0.97920  0.46490  0.71740  Biso   1.000  C
  C59      1.0000 0.52080  0.96490  0.21740  Biso   1.000  C
  C60      1.0000 0.47920  0.03510  0.71740  Biso   1.000  C
  C61      1.0000 0.06980  0.00530  0.04540  Biso   1.000  C
  C62      1.0000 0.93020  0.99470  0.54540  Biso   1.000  C
  C63      1.0000 0.56980  0.49470  0.04540  Biso   1.000  C
  C64      1.0000 0.43020  0.50530  0.54540  Biso   1.000  C
  C65      1.0000 0.33270  0.98040  0.36240  Biso   1.000  C
  C66      1.0000 0.66730  0.01960  0.86240  Biso   1.000  C
  C67      1.0000 0.83270  0.51960  0.36240  Biso   1.000  C
  C68      1.0000 0.16730  0.48040  0.86240  Biso   1.000  C
  H33      1.0000 0.32100  0.99750  0.42120  Biso   1.000  H
  H34      1.0000 0.67900  0.00250  0.92120  Biso   1.000  H
  H35      1.0000 0.82100  0.50250  0.42120  Biso   1.000  H
  H36      1.0000 0.17900  0.49750  0.92120  Biso   1.000  H
  C69      1.0000 0.39180  0.59320  0.95010  Biso   1.000  C
  C70      1.0000 0.60820  0.40680  0.45010  Biso   1.000  C
  C71      1.0000 0.89180  0.90680  0.95010  Biso   1.000  C
  C72      1.0000 0.10820  0.09320  0.45010  Biso   1.000  C
  H37      1.0000 0.39440  0.57730  0.88620  Biso   1.000  H
  H38      1.0000 0.60560  0.42270  0.38620  Biso   1.000  H
  H39      1.0000 0.89440  0.92270  0.88620  Biso   1.000  H
  H40      1.0000 0.10560  0.07730  0.38620  Biso   1.000  H
  C73      1.0000 0.00750  0.56740  0.30520  Biso   1.000  C
  C74      1.0000 0.99250  0.43260  0.80520  Biso   1.000  C
  C75      1.0000 0.50750  0.93260  0.30520  Biso   1.000  C
  C76      1.0000 0.49250  0.06740  0.80520  Biso   1.000  C
  H41      1.0000 0.00490  0.54770  0.36600  Biso   1.000  H
  H42      1.0000 0.99510  0.45230  0.86600  Biso   1.000  H
  H43      1.0000 0.50490  0.95230  0.36600  Biso   1.000  H
  H44      1.0000 0.49510  0.04770  0.86600  Biso   1.000  H
  C77      1.0000 0.06580  0.97720  0.95490  Biso   1.000  C
  C78      1.0000 0.93420  0.02280  0.45490  Biso   1.000  C
  C79      1.0000 0.56580  0.52280  0.95490  Biso   1.000  C
  C80      1.0000 0.43420  0.47720  0.45490  Biso   1.000  C
  H45      1.0000 0.07540  0.99750  0.89760  Biso   1.000  H
  H46      1.0000 0.92460  0.00250  0.39760  Biso   1.000  H
  H47      1.0000 0.57540  0.50250  0.89760  Biso   1.000  H
  H48      1.0000 0.42460  0.49750  0.39760  Biso   1.000  H
  C81      1.0000 0.34660  0.92170  0.36360  Biso   1.000  C
  C82      1.0000 0.65340  0.07830  0.86360  Biso   1.000  C
  C83      1.0000 0.84660  0.57830  0.36360  Biso   1.000  C
  C84      1.0000 0.15340  0.42170  0.86360  Biso   1.000  C
  C85      1.0000 0.40330  0.65170  0.96360  Biso   1.000  C
  C86      1.0000 0.59670  0.34830  0.46360  Biso   1.000  C
  C87      1.0000 0.90330  0.84830  0.96360  Biso   1.000  C
  C88      1.0000 0.09670  0.15170  0.46360  Biso   1.000  C
  C89      1.0000 0.99810  0.62830  0.30120  Biso   1.000  C
  C90      1.0000 0.00190  0.37170  0.80120  Biso   1.000  C
  C91      1.0000 0.49810  0.87170  0.30120  Biso   1.000  C
  C92      1.0000 0.50190  0.12830  0.80120  Biso   1.000  C
  C93      1.0000 0.04770  0.91920  0.94490  Biso   1.000  C
  C94      1.0000 0.95230  0.08080  0.44490  Biso   1.000  C
  C95      1.0000 0.54770  0.58080  0.94490  Biso   1.000  C
  C96      1.0000 0.45230  0.41920  0.44490  Biso   1.000  C
  C97      1.0000 0.38090  0.90520  0.09080  Biso   1.000  C
  C98      1.0000 0.61910  0.09480  0.59080  Biso   1.000  C
  C99      1.0000 0.88090  0.59480  0.09080  Biso   1.000  C
  C100     1.0000 0.11910  0.40520  0.59080  Biso   1.000  C
  H49      1.0000 0.38320  0.93150  0.03770  Biso   1.000  H
  H50      1.0000 0.61680  0.06850  0.53770  Biso   1.000  H
  H51      1.0000 0.88320  0.56850  0.03770  Biso   1.000  H
  H52      1.0000 0.11680  0.43150  0.53770  Biso   1.000  H
  C101     1.0000 0.37080  0.66610  0.23440  Biso   1.000  C
  C102     1.0000 0.62920  0.33390  0.73440  Biso   1.000  C
  C103     1.0000 0.87080  0.83390  0.23440  Biso   1.000  C
  C104     1.0000 0.12920  0.16610  0.73440  Biso   1.000  C
  H53      1.0000 0.36320  0.63890  0.28430  Biso   1.000  H
  H54      1.0000 0.63680  0.36110  0.78430  Biso   1.000  H
  H55      1.0000 0.86320  0.86110  0.28430  Biso   1.000  H
  H56      1.0000 0.13680  0.13890  0.78430  Biso   1.000  H
  C105     1.0000 0.03070  0.65690  0.03310  Biso   1.000  C
  C106     1.0000 0.96930  0.34310  0.53310  Biso   1.000  C
  C107     1.0000 0.53070  0.84310  0.03310  Biso   1.000  C
  C108     1.0000 0.46930  0.15690  0.53310  Biso   1.000  C
  H57      1.0000 0.04050  0.63330  0.97980  Biso   1.000  H
  H58      1.0000 0.95950  0.36670  0.47980  Biso   1.000  H
  H59      1.0000 0.54050  0.86670  0.97980  Biso   1.000  H
  H60      1.0000 0.45950  0.13330  0.47980  Biso   1.000  H
  C109     1.0000 0.02270  0.88690  0.21720  Biso   1.000  C
  C110     1.0000 0.97730  0.11310  0.71720  Biso   1.000  C
  C111     1.0000 0.52270  0.61310  0.21720  Biso   1.000  C
  C112     1.0000 0.47730  0.38690  0.71720  Biso   1.000  C
  H61      1.0000 0.02330  0.90960  0.27500  Biso   1.000  H
  H62      1.0000 0.97670  0.09040  0.77500  Biso   1.000  H
  H63      1.0000 0.52330  0.59040  0.27500  Biso   1.000  H
  H64      1.0000 0.47670  0.40960  0.77500  Biso   1.000  H
  N1       1.0000 0.39240  0.85100  0.07540  Biso   1.000  N
  N2       1.0000 0.60760  0.14900  0.57540  Biso   1.000  N
  N3       1.0000 0.89240  0.64900  0.07540  Biso   1.000  N
  N4       1.0000 0.10760  0.35100  0.57540  Biso   1.000  N
  N5       1.0000 0.37180  0.71920  0.25980  Biso   1.000  N
  N6       1.0000 0.62820  0.28080  0.75980  Biso   1.000  N
  N7       1.0000 0.87180  0.78080  0.25980  Biso   1.000  N
  N8       1.0000 0.12820  0.21920  0.75980  Biso   1.000  N
  N9       1.0000 0.02840  0.71300  0.01840  Biso   1.000  N
  N10      1.0000 0.97160  0.28700  0.51840  Biso   1.000  N
  N11      1.0000 0.52840  0.78700  0.01840  Biso   1.000  N
  N12      1.0000 0.47160  0.21300  0.51840  Biso   1.000  N
  N13      1.0000 0.00900  0.83230  0.22580  Biso   1.000  N
  N14      1.0000 0.99100  0.16770  0.72580  Biso   1.000  N
  N15      1.0000 0.50900  0.66770  0.22580  Biso   1.000  N
  N16      1.0000 0.49100  0.33230  0.72580  Biso   1.000  N
  C113     1.0000 0.32000  0.08140  0.28010  Biso   1.000  C
  C114     1.0000 0.68000  0.91860  0.78010  Biso   1.000  C
  C115     1.0000 0.82000  0.41860  0.28010  Biso   1.000  C
  C116     1.0000 0.18000  0.58140  0.78010  Biso   1.000  C
  C117     1.0000 0.36940  0.48950  0.01050  Biso   1.000  C
  C118     1.0000 0.63060  0.51050  0.51050  Biso   1.000  C
  C119     1.0000 0.86940  0.01050  0.01050  Biso   1.000  C
  C120     1.0000 0.13060  0.98950  0.51050  Biso   1.000  C
  C121     1.0000 0.02690  0.46830  0.22050  Biso   1.000  C
  C122     1.0000 0.97310  0.53170  0.72050  Biso   1.000  C
  C123     1.0000 0.52690  0.03170  0.22050  Biso   1.000  C
  C124     1.0000 0.47310  0.96830  0.72050  Biso   1.000  C
  C125     1.0000 0.08990  0.06840  0.05760  Biso   1.000  C
  C126     1.0000 0.91010  0.93160  0.55760  Biso   1.000  C
  C127     1.0000 0.58990  0.43160  0.05760  Biso   1.000  C
  C128     1.0000 0.41010  0.56840  0.55760  Biso   1.000  C
  C129     1.0000 0.26430  0.08640  0.31570  Biso   1.000  C
  C130     1.0000 0.73570  0.91360  0.81570  Biso   1.000  C
  C131     1.0000 0.76430  0.41360  0.31570  Biso   1.000  C
  C132     1.0000 0.23570  0.58640  0.81570  Biso   1.000  C
  H65      1.0000 0.25480  0.12720  0.31950  Biso   1.000  H
  H66      1.0000 0.74520  0.87280  0.81950  Biso   1.000  H
  H67      1.0000 0.75480  0.37280  0.31950  Biso   1.000  H
  H68      1.0000 0.24520  0.62720  0.81950  Biso   1.000  H
  H69      1.0000 0.26100  0.06860  0.38050  Biso   1.000  H
  H70      1.0000 0.73900  0.93140  0.88050  Biso   1.000  H
  H71      1.0000 0.76100  0.43140  0.38050  Biso   1.000  H
  H72      1.0000 0.23900  0.56860  0.88050  Biso   1.000  H
  H73      1.0000 0.24250  0.06640  0.26930  Biso   1.000  H
  H74      1.0000 0.75750  0.93360  0.76930  Biso   1.000  H
  H75      1.0000 0.74250  0.43360  0.26930  Biso   1.000  H
  H76      1.0000 0.25750  0.56640  0.76930  Biso   1.000  H
  C133     1.0000 0.42070  0.46180  0.00060  Biso   1.000  C
  C134     1.0000 0.57930  0.53820  0.50060  Biso   1.000  C
  C135     1.0000 0.92070  0.03820  0.00060  Biso   1.000  C
  C136     1.0000 0.07930  0.96180  0.50060  Biso   1.000  C
  H77      1.0000 0.41700  0.42020  0.98980  Biso   1.000  H
  H78      1.0000 0.58300  0.57980  0.48980  Biso   1.000  H
  H79      1.0000 0.91700  0.07980  0.98980  Biso   1.000  H
  H80      1.0000 0.08300  0.92020  0.48980  Biso   1.000  H
  H81      1.0000 0.43980  0.46840  0.06070  Biso   1.000  H
  H82      1.0000 0.56020  0.53160  0.56070  Biso   1.000  H
  H83      1.0000 0.93980  0.03160  0.06070  Biso   1.000  H
  H84      1.0000 0.06020  0.96840  0.56070  Biso   1.000  H
  H85      1.0000 0.43830  0.47910  0.94510  Biso   1.000  H
  H86      1.0000 0.56170  0.52090  0.44510  Biso   1.000  H
  H87      1.0000 0.93830  0.02090  0.94510  Biso   1.000  H
  H88      1.0000 0.06170  0.97910  0.44510  Biso   1.000  H
  C137     1.0000 0.01690  0.44240  0.32040  Biso   1.000  C
  C138     1.0000 0.98310  0.55760  0.82040  Biso   1.000  C
  C139     1.0000 0.51690  0.05760  0.32040  Biso   1.000  C
  C140     1.0000 0.48310  0.94240  0.82040  Biso   1.000  C
  H89      1.0000 0.04210  0.45610  0.36680  Biso   1.000  H
  H90      1.0000 0.95790  0.54390  0.86680  Biso   1.000  H
  H91      1.0000 0.54210  0.04390  0.36680  Biso   1.000  H
  H92      1.0000 0.45790  0.95610  0.86680  Biso   1.000  H
  H93      1.0000 0.01830  0.40020  0.31610  Biso   1.000  H
  H94      1.0000 0.98170  0.59980  0.81610  Biso   1.000  H
  H95      1.0000 0.51830  0.09980  0.31610  Biso   1.000  H
  H96      1.0000 0.48170  0.90020  0.81610  Biso   1.000  H
  H97      1.0000 0.98380  0.45420  0.34290  Biso   1.000  H
  H98      1.0000 0.01620  0.54580  0.84290  Biso   1.000  H
  H99      1.0000 0.48380  0.04580  0.34290  Biso   1.000  H
  H100     1.0000 0.51620  0.95420  0.84290  Biso   1.000  H
  C141     1.0000 0.10130  0.09650  0.96110  Biso   1.000  C
  C142     1.0000 0.89870  0.90350  0.46110  Biso   1.000  C
  C143     1.0000 0.60130  0.40350  0.96110  Biso   1.000  C
  C144     1.0000 0.39870  0.59650  0.46110  Biso   1.000  C
  H101     1.0000 0.12700  0.07420  0.92700  Biso   1.000  H
  H102     1.0000 0.87300  0.92580  0.42700  Biso   1.000  H
  H103     1.0000 0.62700  0.42580  0.92700  Biso   1.000  H
  H104     1.0000 0.37300  0.57420  0.42700  Biso   1.000  H
  H105     1.0000 0.11330  0.13590  0.97230  Biso   1.000  H
  H106     1.0000 0.88670  0.86410  0.47230  Biso   1.000  H
  H107     1.0000 0.61330  0.36410  0.97230  Biso   1.000  H
  H108     1.0000 0.38670  0.63590  0.47230  Biso   1.000  H
  H109     1.0000 0.07110  0.09770  0.92110  Biso   1.000  H
  H110     1.0000 0.92890  0.90230  0.42110  Biso   1.000  H
  H111     1.0000 0.57110  0.40230  0.92110  Biso   1.000  H
  H112     1.0000 0.42890  0.59770  0.42110  Biso   1.000  H
  C145     1.0000 0.32370  0.11090  0.17740  Biso   1.000  C
  C146     1.0000 0.67630  0.88910  0.67740  Biso   1.000  C
  C147     1.0000 0.82370  0.38910  0.17740  Biso   1.000  C
  C148     1.0000 0.17630  0.61090  0.67740  Biso   1.000  C
  H113     1.0000 0.31370  0.15150  0.18290  Biso   1.000  H
  H114     1.0000 0.68630  0.84850  0.68290  Biso   1.000  H
  H115     1.0000 0.81370  0.34850  0.18290  Biso   1.000  H
  H116     1.0000 0.18630  0.65150  0.68290  Biso   1.000  H
  H117     1.0000 0.30160  0.09100  0.13140  Biso   1.000  H
  H118     1.0000 0.69840  0.90900  0.63140  Biso   1.000  H
  H119     1.0000 0.80160  0.40900  0.13140  Biso   1.000  H
  H120     1.0000 0.19840  0.59100  0.63140  Biso   1.000  H
  H121     1.0000 0.35800  0.10860  0.15370  Biso   1.000  H
  H122     1.0000 0.64200  0.89140  0.65370  Biso   1.000  H
  H123     1.0000 0.85800  0.39140  0.15370  Biso   1.000  H
  H124     1.0000 0.14200  0.60860  0.65370  Biso   1.000  H
  C149     1.0000 0.33760  0.47820  0.92010  Biso   1.000  C
  C150     1.0000 0.66240  0.52180  0.42010  Biso   1.000  C
  C151     1.0000 0.83760  0.02180  0.92010  Biso   1.000  C
  C152     1.0000 0.16240  0.97820  0.42010  Biso   1.000  C
  H125     1.0000 0.33410  0.43650  0.91030  Biso   1.000  H
  H126     1.0000 0.66590  0.56350  0.41030  Biso   1.000  H
  H127     1.0000 0.83410  0.06350  0.91030  Biso   1.000  H
  H128     1.0000 0.16590  0.93650  0.41030  Biso   1.000  H
  H129     1.0000 0.35370  0.49540  0.86270  Biso   1.000  H
  H130     1.0000 0.64630  0.50460  0.36270  Biso   1.000  H
  H131     1.0000 0.85370  0.00460  0.86270  Biso   1.000  H
  H132     1.0000 0.14630  0.99540  0.36270  Biso   1.000  H
  H133     1.0000 0.30470  0.49550  0.92920  Biso   1.000  H
  H134     1.0000 0.69530  0.50450  0.42920  Biso   1.000  H
  H135     1.0000 0.80470  0.00450  0.92920  Biso   1.000  H
  H136     1.0000 0.19530  0.99550  0.42920  Biso   1.000  H
  C153     1.0000 0.07200  0.44960  0.16840  Biso   1.000  C
  C154     1.0000 0.92800  0.55040  0.66840  Biso   1.000  C
  C155     1.0000 0.57200  0.05040  0.16840  Biso   1.000  C
  C156     1.0000 0.42800  0.94960  0.66840  Biso   1.000  C
  H137     1.0000 0.10150  0.46250  0.20460  Biso   1.000  H
  H138     1.0000 0.89850  0.53750  0.70460  Biso   1.000  H
  H139     1.0000 0.60150  0.03750  0.20460  Biso   1.000  H
  H140     1.0000 0.39850  0.96250  0.70460  Biso   1.000  H
  H141     1.0000 0.07240  0.46650  0.10270  Biso   1.000  H
  H142     1.0000 0.92760  0.53350  0.60270  Biso   1.000  H
  H143     1.0000 0.57240  0.03350  0.10270  Biso   1.000  H
  H144     1.0000 0.42760  0.96650  0.60270  Biso   1.000  H
  H145     1.0000 0.07230  0.40740  0.16330  Biso   1.000  H
  H146     1.0000 0.92770  0.59260  0.66330  Biso   1.000  H
  H147     1.0000 0.57230  0.09260  0.16330  Biso   1.000  H
  H148     1.0000 0.42770  0.90740  0.66330  Biso   1.000  H
  C157     1.0000 0.13540  0.07000  0.12850  Biso   1.000  C
  C158     1.0000 0.86460  0.93000  0.62850  Biso   1.000  C
  C159     1.0000 0.63540  0.43000  0.12850  Biso   1.000  C
  C160     1.0000 0.36460  0.57000  0.62850  Biso   1.000  C
  H149     1.0000 0.16270  0.04720  0.10080  Biso   1.000  H
  H150     1.0000 0.83730  0.95280  0.60080  Biso   1.000  H
  H151     1.0000 0.66270  0.45280  0.10080  Biso   1.000  H
  H152     1.0000 0.33730  0.54720  0.60080  Biso   1.000  H
  H153     1.0000 0.12580  0.05390  0.19200  Biso   1.000  H
  H154     1.0000 0.87420  0.94610  0.69200  Biso   1.000  H
  H155     1.0000 0.62580  0.44610  0.19200  Biso   1.000  H
  H156     1.0000 0.37420  0.55390  0.69200  Biso   1.000  H
  H157     1.0000 0.14640  0.11010  0.13710  Biso   1.000  H
  H158     1.0000 0.85360  0.88990  0.63710  Biso   1.000  H
  H159     1.0000 0.64640  0.38990  0.13710  Biso   1.000  H
  H160     1.0000 0.35360  0.61010  0.63710  Biso   1.000  H
  C161     1.0000 0.35470  0.11340  0.34940  Biso   1.000  C
  C162     1.0000 0.64530  0.88660  0.84940  Biso   1.000  C
  C163     1.0000 0.85470  0.38660  0.34940  Biso   1.000  C
  C164     1.0000 0.14530  0.61340  0.84940  Biso   1.000  C
  H161     1.0000 0.34470  0.15400  0.35320  Biso   1.000  H
  H162     1.0000 0.65530  0.84600  0.85320  Biso   1.000  H
  H163     1.0000 0.84470  0.34600  0.35320  Biso   1.000  H
  H164     1.0000 0.15530  0.65400  0.85320  Biso   1.000  H
  H165     1.0000 0.38890  0.11080  0.32500  Biso   1.000  H
  H166     1.0000 0.61110  0.88920  0.82500  Biso   1.000  H
  H167     1.0000 0.88890  0.38920  0.32500  Biso   1.000  H
  H168     1.0000 0.11110  0.61080  0.82500  Biso   1.000  H
  H169     1.0000 0.35280  0.09590  0.41460  Biso   1.000  H
  H170     1.0000 0.64720  0.90410  0.91460  Biso   1.000  H
  H171     1.0000 0.85280  0.40410  0.41460  Biso   1.000  H
  H172     1.0000 0.14720  0.59590  0.91460  Biso   1.000  H
  C165     1.0000 0.34590  0.45990  0.09280  Biso   1.000  C
  C166     1.0000 0.65410  0.54010  0.59280  Biso   1.000  C
  C167     1.0000 0.84590  0.04010  0.09280  Biso   1.000  C
  C168     1.0000 0.15410  0.95990  0.59280  Biso   1.000  C
  H173     1.0000 0.34300  0.41860  0.07810  Biso   1.000  H
  H174     1.0000 0.65700  0.58140  0.57810  Biso   1.000  H
  H175     1.0000 0.84300  0.08140  0.07810  Biso   1.000  H
  H176     1.0000 0.15700  0.91860  0.57810  Biso   1.000  H
  H177     1.0000 0.31270  0.47620  0.10390  Biso   1.000  H
  H178     1.0000 0.68730  0.52380  0.60390  Biso   1.000  H
  H179     1.0000 0.81270  0.02380  0.10390  Biso   1.000  H
  H180     1.0000 0.18730  0.97620  0.60390  Biso   1.000  H
  H181     1.0000 0.36630  0.46510  0.15170  Biso   1.000  H
  H182     1.0000 0.63370  0.53490  0.65170  Biso   1.000  H
  H183     1.0000 0.86630  0.03490  0.15170  Biso   1.000  H
  H184     1.0000 0.13370  0.96510  0.65170  Biso   1.000  H
  C169     1.0000 0.98400  0.44170  0.14910  Biso   1.000  C
  C170     1.0000 0.01600  0.55830  0.64910  Biso   1.000  C
  C171     1.0000 0.48400  0.05830  0.14910  Biso   1.000  C
  C172     1.0000 0.51600  0.94170  0.64910  Biso   1.000  C
  H185     1.0000 0.95110  0.45100  0.17550  Biso   1.000  H
  H186     1.0000 0.04890  0.54900  0.67550  Biso   1.000  H
  H187     1.0000 0.45110  0.04900  0.17550  Biso   1.000  H
  H188     1.0000 0.54890  0.95100  0.67550  Biso   1.000  H
  H189     1.0000 0.98790  0.39970  0.14520  Biso   1.000  H
  H190     1.0000 0.01210  0.60030  0.64520  Biso   1.000  H
  H191     1.0000 0.48790  0.10030  0.14520  Biso   1.000  H
  H192     1.0000 0.51210  0.89970  0.64520  Biso   1.000  H
  H193     1.0000 0.98740  0.45840  0.08350  Biso   1.000  H
  H194     1.0000 0.01260  0.54160  0.58350  Biso   1.000  H
  H195     1.0000 0.48740  0.04160  0.08350  Biso   1.000  H
  H196     1.0000 0.51260  0.95840  0.58350  Biso   1.000  H
  C173     1.0000 0.04730  0.10750  0.10800  Biso   1.000  C
  C174     1.0000 0.95270  0.89250  0.60800  Biso   1.000  C
  C175     1.0000 0.54730  0.39250  0.10800  Biso   1.000  C
  C176     1.0000 0.45270  0.60750  0.60800  Biso   1.000  C
  H197     1.0000 0.05970  0.14700  0.11640  Biso   1.000  H
  H198     1.0000 0.94030  0.85300  0.61640  Biso   1.000  H
  H199     1.0000 0.55970  0.35300  0.11640  Biso   1.000  H
  H200     1.0000 0.44030  0.64700  0.61640  Biso   1.000  H
  H201     1.0000 0.03870  0.09130  0.17200  Biso   1.000  H
  H202     1.0000 0.96130  0.90870  0.67200  Biso   1.000  H
  H203     1.0000 0.53870  0.40870  0.17200  Biso   1.000  H
  H204     1.0000 0.46130  0.59130  0.67200  Biso   1.000  H
  H205     1.0000 0.01770  0.10800  0.06620  Biso   1.000  H
  H206     1.0000 0.98230  0.89200  0.56620  Biso   1.000  H
  H207     1.0000 0.51770  0.39200  0.06620  Biso   1.000  H
  H208     1.0000 0.48230  0.60800  0.56620  Biso   1.000  H
  C177     1.0000 0.34870  0.88960  0.46140  Biso   1.000  C
  C178     1.0000 0.65130  0.11040  0.96140  Biso   1.000  C
  C179     1.0000 0.84870  0.61040  0.46140  Biso   1.000  C
  C180     1.0000 0.15130  0.38960  0.96140  Biso   1.000  C
  H209     1.0000 0.38420  0.88360  0.47830  Biso   1.000  H
  H210     1.0000 0.61580  0.11640  0.97830  Biso   1.000  H
  H211     1.0000 0.88420  0.61640  0.47830  Biso   1.000  H
  H212     1.0000 0.11580  0.38360  0.97830  Biso   1.000  H
  H213     1.0000 0.33430  0.91510  0.51220  Biso   1.000  H
  H214     1.0000 0.66570  0.08490  0.01220  Biso   1.000  H
  H215     1.0000 0.83430  0.58490  0.51220  Biso   1.000  H
  H216     1.0000 0.16570  0.41510  0.01220  Biso   1.000  H
  C181     1.0000 0.42270  0.68890  0.87700  Biso   1.000  C
  C182     1.0000 0.57730  0.31110  0.37700  Biso   1.000  C
  C183     1.0000 0.92270  0.81110  0.87700  Biso   1.000  C
  C184     1.0000 0.07730  0.18890  0.37700  Biso   1.000  C
  H217     1.0000 0.45780  0.69960  0.89000  Biso   1.000  H
  H218     1.0000 0.54220  0.30040  0.39000  Biso   1.000  H
  H219     1.0000 0.95780  0.80040  0.89000  Biso   1.000  H
  H220     1.0000 0.04220  0.19960  0.39000  Biso   1.000  H
  H221     1.0000 0.42210  0.66520  0.81670  Biso   1.000  H
  H222     1.0000 0.57790  0.33480  0.31670  Biso   1.000  H
  H223     1.0000 0.92210  0.83480  0.81670  Biso   1.000  H
  H224     1.0000 0.07790  0.16520  0.31670  Biso   1.000  H
  C185     1.0000 0.98080  0.65980  0.39660  Biso   1.000  C
  C186     1.0000 0.01920  0.34020  0.89660  Biso   1.000  C
  C187     1.0000 0.48080  0.84020  0.39660  Biso   1.000  C
  C188     1.0000 0.51920  0.15980  0.89660  Biso   1.000  C
  H225     1.0000 0.94610  0.67320  0.38770  Biso   1.000  H
  H226     1.0000 0.05390  0.32680  0.88770  Biso   1.000  H
  H227     1.0000 0.44610  0.82680  0.38770  Biso   1.000  H
  H228     1.0000 0.55390  0.17320  0.88770  Biso   1.000  H
  H229     1.0000 0.98110  0.63200  0.45150  Biso   1.000  H
  H230     1.0000 0.01890  0.36800  0.95150  Biso   1.000  H
  H231     1.0000 0.48110  0.86800  0.45150  Biso   1.000  H
  H232     1.0000 0.51890  0.13200  0.95150  Biso   1.000  H
  C189     1.0000 0.04050  0.89270  0.84240  Biso   1.000  C
  C190     1.0000 0.95950  0.10730  0.34240  Biso   1.000  C
  C191     1.0000 0.54050  0.60730  0.84240  Biso   1.000  C
  C192     1.0000 0.45950  0.39270  0.34240  Biso   1.000  C
  H233     1.0000 0.00480  0.88350  0.83340  Biso   1.000  H
  H234     1.0000 0.99520  0.11650  0.33340  Biso   1.000  H
  H235     1.0000 0.50480  0.61650  0.83340  Biso   1.000  H
  H236     1.0000 0.49520  0.38350  0.33340  Biso   1.000  H
  H237     1.0000 0.04960  0.92190  0.79260  Biso   1.000  H
  H238     1.0000 0.95040  0.07810  0.29260  Biso   1.000  H
  H239     1.0000 0.54960  0.57810  0.79260  Biso   1.000  H
  H240     1.0000 0.45040  0.42190  0.29260  Biso   1.000  H
  N17      1.0000 0.32300  0.83270  0.46690  Biso   1.000  N
  N18      1.0000 0.67700  0.16730  0.96690  Biso   1.000  N
  N19      1.0000 0.82300  0.66730  0.46690  Biso   1.000  N
  N20      1.0000 0.17700  0.33270  0.96690  Biso   1.000  N
  N21      1.0000 0.39350  0.74270  0.85970  Biso   1.000  N
  N22      1.0000 0.60650  0.25730  0.35970  Biso   1.000  N
  N23      1.0000 0.89350  0.75730  0.85970  Biso   1.000  N
  N24      1.0000 0.10650  0.24270  0.35970  Biso   1.000  N
  N25      1.0000 0.01250  0.71020  0.42280  Biso   1.000  N
  N26      1.0000 0.98750  0.28980  0.92280  Biso   1.000  N
  N27      1.0000 0.51250  0.78980  0.42280  Biso   1.000  N
  N28      1.0000 0.48750  0.21020  0.92280  Biso   1.000  N
  N29      1.0000 0.07050  0.83870  0.82420  Biso   1.000  N
  N30      1.0000 0.92950  0.16130  0.32420  Biso   1.000  N
  N31      1.0000 0.57050  0.66130  0.82420  Biso   1.000  N
  N32      1.0000 0.42950  0.33870  0.32420  Biso   1.000  N
  C193     1.0000 0.33870  0.80450  0.56130  Biso   1.000  C
  C194     1.0000 0.66130  0.19550  0.06130  Biso   1.000  C
  C195     1.0000 0.83870  0.69550  0.56130  Biso   1.000  C
  C196     1.0000 0.16130  0.30450  0.06130  Biso   1.000  C
  H241     1.0000 0.32250  0.76680  0.56720  Biso   1.000  H
  H242     1.0000 0.67750  0.23320  0.06720  Biso   1.000  H
  H243     1.0000 0.82250  0.73320  0.56720  Biso   1.000  H
  H244     1.0000 0.17750  0.26680  0.06720  Biso   1.000  H
  H245     1.0000 0.32890  0.82900  0.61660  Biso   1.000  H
  H246     1.0000 0.67110  0.17100  0.11660  Biso   1.000  H
  H247     1.0000 0.82890  0.67100  0.61660  Biso   1.000  H
  H248     1.0000 0.17110  0.32900  0.11660  Biso   1.000  H
  H249     1.0000 0.37490  0.79940  0.56160  Biso   1.000  H
  H250     1.0000 0.62510  0.20060  0.06160  Biso   1.000  H
  H251     1.0000 0.87490  0.70060  0.56160  Biso   1.000  H
  H252     1.0000 0.12510  0.29940  0.06160  Biso   1.000  H
  C197     1.0000 0.41890  0.77560  0.77940  Biso   1.000  C
  C198     1.0000 0.58110  0.22440  0.27940  Biso   1.000  C
  C199     1.0000 0.91890  0.72440  0.77940  Biso   1.000  C
  C200     1.0000 0.08110  0.27560  0.27940  Biso   1.000  C
  H253     1.0000 0.45340  0.78340  0.79810  Biso   1.000  H
  H254     1.0000 0.54660  0.21660  0.29810  Biso   1.000  H
  H255     1.0000 0.95340  0.71660  0.79810  Biso   1.000  H
  H256     1.0000 0.04660  0.28340  0.29810  Biso   1.000  H
  H257     1.0000 0.40140  0.81210  0.76840  Biso   1.000  H
  H258     1.0000 0.59860  0.18790  0.26840  Biso   1.000  H
  H259     1.0000 0.90140  0.68790  0.76840  Biso   1.000  H
  H260     1.0000 0.09860  0.31210  0.26840  Biso   1.000  H
  H261     1.0000 0.41840  0.75260  0.71910  Biso   1.000  H
  H262     1.0000 0.58160  0.24740  0.21910  Biso   1.000  H
  H263     1.0000 0.91840  0.74740  0.71910  Biso   1.000  H
  H264     1.0000 0.08160  0.25260  0.21910  Biso   1.000  H
  C201     1.0000 0.99040  0.73820  0.51090  Biso   1.000  C
  C202     1.0000 0.00960  0.26180  0.01090  Biso   1.000  C
  C203     1.0000 0.49040  0.76180  0.51090  Biso   1.000  C
  C204     1.0000 0.50960  0.23820  0.01090  Biso   1.000  C
  H265     1.0000 0.01030  0.77190  0.52920  Biso   1.000  H
  H266     1.0000 0.98970  0.22810  0.02920  Biso   1.000  H
  H267     1.0000 0.51030  0.72810  0.52920  Biso   1.000  H
  H268     1.0000 0.48970  0.27190  0.02920  Biso   1.000  H
  H269     1.0000 0.98990  0.71050  0.56520  Biso   1.000  H
  H270     1.0000 0.01010  0.28950  0.06520  Biso   1.000  H
  H271     1.0000 0.48990  0.78950  0.56520  Biso   1.000  H
  H272     1.0000 0.51010  0.21050  0.06520  Biso   1.000  H
  H273     1.0000 0.95630  0.75040  0.49610  Biso   1.000  H
  H274     1.0000 0.04370  0.24960  0.99610  Biso   1.000  H
  H275     1.0000 0.45630  0.74960  0.49610  Biso   1.000  H
  H276     1.0000 0.54370  0.25040  0.99610  Biso   1.000  H
  C205     1.0000 0.05460  0.81250  0.72950  Biso   1.000  C
  C206     1.0000 0.94540  0.18750  0.22950  Biso   1.000  C
  C207     1.0000 0.55460  0.68750  0.72950  Biso   1.000  C
  C208     1.0000 0.44540  0.31250  0.22950  Biso   1.000  C
  H277     1.0000 0.01900  0.80340  0.73220  Biso   1.000  H
  H278     1.0000 0.98100  0.19660  0.23220  Biso   1.000  H
  H279     1.0000 0.51900  0.69660  0.73220  Biso   1.000  H
  H280     1.0000 0.48100  0.30340  0.23220  Biso   1.000  H
  H281     1.0000 0.07360  0.77700  0.71780  Biso   1.000  H
  H282     1.0000 0.92640  0.22300  0.21780  Biso   1.000  H
  H283     1.0000 0.57360  0.72300  0.71780  Biso   1.000  H
  H284     1.0000 0.42640  0.27700  0.21780  Biso   1.000  H
  H285     1.0000 0.06090  0.83980  0.67610  Biso   1.000  H
  H286     1.0000 0.93910  0.16020  0.17610  Biso   1.000  H
  H287     1.0000 0.56090  0.66020  0.67610  Biso   1.000  H
  H288     1.0000 0.43910  0.33980  0.17610  Biso   1.000  H
  C209     1.0000 0.26930  0.84200  0.46150  Biso   1.000  C
  C210     1.0000 0.73070  0.15800  0.96150  Biso   1.000  C
  C211     1.0000 0.76930  0.65800  0.46150  Biso   1.000  C
  C212     1.0000 0.23070  0.34200  0.96150  Biso   1.000  C
  H289     1.0000 0.26180  0.86680  0.40440  Biso   1.000  H
  H290     1.0000 0.73820  0.13320  0.90440  Biso   1.000  H
  H291     1.0000 0.76180  0.63320  0.40440  Biso   1.000  H
  H292     1.0000 0.23820  0.36680  0.90440  Biso   1.000  H
  H293     1.0000 0.25830  0.86270  0.52100  Biso   1.000  H
  H294     1.0000 0.74170  0.13730  0.02100  Biso   1.000  H
  H295     1.0000 0.75830  0.63730  0.52100  Biso   1.000  H
  H296     1.0000 0.24170  0.36270  0.02100  Biso   1.000  H
  C213     1.0000 0.34080  0.73080  0.83260  Biso   1.000  C
  C214     1.0000 0.65920  0.26920  0.33260  Biso   1.000  C
  C215     1.0000 0.84080  0.76920  0.83260  Biso   1.000  C
  C216     1.0000 0.15920  0.23080  0.33260  Biso   1.000  C
  H297     1.0000 0.32760  0.70040  0.87650  Biso   1.000  H
  H298     1.0000 0.67240  0.29960  0.37650  Biso   1.000  H
  H299     1.0000 0.82760  0.79960  0.87650  Biso   1.000  H
  H300     1.0000 0.17240  0.20040  0.37650  Biso   1.000  H
  H301     1.0000 0.33990  0.71560  0.76500  Biso   1.000  H
  H302     1.0000 0.66010  0.28440  0.26500  Biso   1.000  H
  H303     1.0000 0.83990  0.78440  0.76500  Biso   1.000  H
  H304     1.0000 0.16010  0.21560  0.26500  Biso   1.000  H
  C217     1.0000 0.06430  0.69440  0.43640  Biso   1.000  C
  C218     1.0000 0.93570  0.30560  0.93640  Biso   1.000  C
  C219     1.0000 0.56430  0.80560  0.43640  Biso   1.000  C
  C220     1.0000 0.43570  0.19440  0.93640  Biso   1.000  C
  H305     1.0000 0.07580  0.67160  0.37940  Biso   1.000  H
  H306     1.0000 0.92420  0.32840  0.87940  Biso   1.000  H
  H307     1.0000 0.57580  0.82840  0.37940  Biso   1.000  H
  H308     1.0000 0.42420  0.17160  0.87940  Biso   1.000  H
  H309     1.0000 0.06750  0.66990  0.49540  Biso   1.000  H
  H310     1.0000 0.93250  0.33010  0.99540  Biso   1.000  H
  H311     1.0000 0.56750  0.83010  0.49540  Biso   1.000  H
  H312     1.0000 0.43250  0.16990  0.99540  Biso   1.000  H
  C221     1.0000 0.12360  0.85300  0.82290  Biso   1.000  C
  C222     1.0000 0.87640  0.14700  0.32290  Biso   1.000  C
  C223     1.0000 0.62360  0.64700  0.82290  Biso   1.000  C
  C224     1.0000 0.37640  0.35300  0.32290  Biso   1.000  C
  H313     1.0000 0.13160  0.87480  0.88320  Biso   1.000  H
  H314     1.0000 0.86840  0.12520  0.38320  Biso   1.000  H
  H315     1.0000 0.63160  0.62520  0.88320  Biso   1.000  H
  H316     1.0000 0.36840  0.37480  0.38320  Biso   1.000  H
  H317     1.0000 0.12990  0.87910  0.76670  Biso   1.000  H
  H318     1.0000 0.87010  0.12090  0.26670  Biso   1.000  H
  H319     1.0000 0.62990  0.62090  0.76670  Biso   1.000  H
  H320     1.0000 0.37010  0.37910  0.26670  Biso   1.000  H
  C225     1.0000 0.23950  0.78550  0.45230  Biso   1.000  C
  C226     1.0000 0.76050  0.21450  0.95230  Biso   1.000  C
  C227     1.0000 0.73950  0.71450  0.45230  Biso   1.000  C
  C228     1.0000 0.26050  0.28550  0.95230  Biso   1.000  C
  H321     1.0000 0.24780  0.76680  0.38920  Biso   1.000  H
  H322     1.0000 0.75220  0.23320  0.88920  Biso   1.000  H
  H323     1.0000 0.74780  0.73320  0.38920  Biso   1.000  H
  H324     1.0000 0.25220  0.26680  0.88920  Biso   1.000  H
  H325     1.0000 0.24960  0.75900  0.50550  Biso   1.000  H
  H326     1.0000 0.75040  0.24100  0.00550  Biso   1.000  H
  H327     1.0000 0.74960  0.74100  0.50550  Biso   1.000  H
  H328     1.0000 0.25040  0.25900  0.00550  Biso   1.000  H
  C229     1.0000 0.30680  0.78410  0.83890  Biso   1.000  C
  C230     1.0000 0.69320  0.21590  0.33890  Biso   1.000  C
  C231     1.0000 0.80680  0.71590  0.83890  Biso   1.000  C
  C232     1.0000 0.19320  0.28410  0.33890  Biso   1.000  C
  H329     1.0000 0.31760  0.81320  0.79030  Biso   1.000  H
  H330     1.0000 0.68240  0.18680  0.29030  Biso   1.000  H
  H331     1.0000 0.81760  0.68680  0.79030  Biso   1.000  H
  H332     1.0000 0.18240  0.31320  0.29030  Biso   1.000  H
  H333     1.0000 0.30960  0.80150  0.90480  Biso   1.000  H
  H334     1.0000 0.69040  0.19850  0.40480  Biso   1.000  H
  H335     1.0000 0.80960  0.69850  0.90480  Biso   1.000  H
  H336     1.0000 0.19040  0.30150  0.40480  Biso   1.000  H
  C233     1.0000 0.09860  0.74990  0.44810  Biso   1.000  C
  C234     1.0000 0.90140  0.25010  0.94810  Biso   1.000  C
  C235     1.0000 0.59860  0.75010  0.44810  Biso   1.000  C
  C236     1.0000 0.40140  0.24990  0.94810  Biso   1.000  C
  H337     1.0000 0.09110  0.77730  0.39450  Biso   1.000  H
  H338     1.0000 0.90890  0.22270  0.89450  Biso   1.000  H
  H339     1.0000 0.59110  0.72270  0.39450  Biso   1.000  H
  H340     1.0000 0.40890  0.27730  0.89450  Biso   1.000  H
  H341     1.0000 0.09060  0.76920  0.51070  Biso   1.000  H
  H342     1.0000 0.90940  0.23080  0.01070  Biso   1.000  H
  H343     1.0000 0.59060  0.73080  0.51070  Biso   1.000  H
  H344     1.0000 0.40940  0.26920  0.01070  Biso   1.000  H
  C237     1.0000 0.15970  0.80140  0.81550  Biso   1.000  C
  C238     1.0000 0.84030  0.19860  0.31550  Biso   1.000  C
  C239     1.0000 0.65970  0.69860  0.81550  Biso   1.000  C
  C240     1.0000 0.34030  0.30140  0.31550  Biso   1.000  C
  H345     1.0000 0.15120  0.77320  0.86740  Biso   1.000  H
  H346     1.0000 0.84880  0.22680  0.36740  Biso   1.000  H
  H347     1.0000 0.65120  0.72680  0.86740  Biso   1.000  H
  H348     1.0000 0.34880  0.27320  0.36740  Biso   1.000  H
  H349     1.0000 0.15450  0.78210  0.75160  Biso   1.000  H
  H350     1.0000 0.84550  0.21790  0.25160  Biso   1.000  H
  H351     1.0000 0.65450  0.71790  0.75160  Biso   1.000  H
  H352     1.0000 0.34550  0.28210  0.25160  Biso   1.000  H
  C241     1.0000 0.18470  0.79520  0.45740  Biso   1.000  C
  C242     1.0000 0.81530  0.20480  0.95740  Biso   1.000  C
  C243     1.0000 0.68470  0.70480  0.45740  Biso   1.000  C
  C244     1.0000 0.31530  0.29520  0.95740  Biso   1.000  C
  H353     1.0000 0.17480  0.82230  0.40490  Biso   1.000  H
  H354     1.0000 0.82520  0.17770  0.90490  Biso   1.000  H
  H355     1.0000 0.67480  0.67770  0.40490  Biso   1.000  H
  H356     1.0000 0.32520  0.32230  0.90490  Biso   1.000  H
  H357     1.0000 0.17640  0.81340  0.52090  Biso   1.000  H
  H358     1.0000 0.82360  0.18660  0.02090  Biso   1.000  H
  H359     1.0000 0.67640  0.68660  0.52090  Biso   1.000  H
  H360     1.0000 0.32360  0.31340  0.02090  Biso   1.000  H
  C245     1.0000 0.25070  0.76680  0.81860  Biso   1.000  C
  C246     1.0000 0.74930  0.23320  0.31860  Biso   1.000  C
  C247     1.0000 0.75070  0.73320  0.81860  Biso   1.000  C
  C248     1.0000 0.24930  0.26680  0.31860  Biso   1.000  C
  H361     1.0000 0.24830  0.74960  0.75250  Biso   1.000  H
  H362     1.0000 0.75170  0.25040  0.25250  Biso   1.000  H
  H363     1.0000 0.74830  0.75040  0.75250  Biso   1.000  H
  H364     1.0000 0.25170  0.24960  0.25250  Biso   1.000  H
  H365     1.0000 0.24050  0.73700  0.86650  Biso   1.000  H
  H366     1.0000 0.75950  0.26300  0.36650  Biso   1.000  H
  H367     1.0000 0.74050  0.76300  0.86650  Biso   1.000  H
  H368     1.0000 0.25950  0.23700  0.36650  Biso   1.000  H
  C249     1.0000 0.15260  0.73610  0.44620  Biso   1.000  C
  C250     1.0000 0.84740  0.26390  0.94620  Biso   1.000  C
  C251     1.0000 0.65260  0.76390  0.44620  Biso   1.000  C
  C252     1.0000 0.34740  0.23610  0.94620  Biso   1.000  C
  H369     1.0000 0.16120  0.71690  0.38370  Biso   1.000  H
  H370     1.0000 0.83880  0.28310  0.88370  Biso   1.000  H
  H371     1.0000 0.66120  0.78310  0.38370  Biso   1.000  H
  H372     1.0000 0.33880  0.21690  0.88370  Biso   1.000  H
  H373     1.0000 0.16080  0.70940  0.50040  Biso   1.000  H
  H374     1.0000 0.83920  0.29060  0.00040  Biso   1.000  H
  H375     1.0000 0.66080  0.79060  0.50040  Biso   1.000  H
  H376     1.0000 0.33920  0.20940  0.00040  Biso   1.000  H
  C253     1.0000 0.21475  0.81746  0.82510  Biso   1.000  C
  C254     1.0000 0.78525  0.18254  0.32510  Biso   1.000  C
  C255     1.0000 0.71475  0.68254  0.82510  Biso   1.000  C
  C256     1.0000 0.28525  0.31746  0.32510  Biso   1.000  C
  H377     1.0000 0.22320  0.84550  0.77290  Biso   1.000  H
  H378     1.0000 0.77680  0.15450  0.27290  Biso   1.000  H
  H379     1.0000 0.72320  0.65450  0.77290  Biso   1.000  H
  H380     1.0000 0.27680  0.34550  0.27290  Biso   1.000  H
  H381     1.0000 0.21980  0.83710  0.88870  Biso   1.000  H
  H382     1.0000 0.78020  0.16290  0.38870  Biso   1.000  H
  H383     1.0000 0.71980  0.66290  0.88870  Biso   1.000  H
  H384     1.0000 0.28020  0.33710  0.38870  Biso   1.000  H
  Cl1      1.0000 0.22364  0.93693  0.16550  Biso   1.000  Cl
  Cl2      1.0000 0.77636  0.06307  0.66550  Biso   1.000  Cl
  Cl3      1.0000 0.72364  0.56307  0.16550  Biso   1.000  Cl
  Cl4      1.0000 0.27636  0.43693  0.66550  Biso   1.000  Cl
  Cl5      1.0000 0.13143  0.78261  0.13050  Biso   1.000  Cl
  Cl6      1.0000 0.86857  0.21739  0.63050  Biso   1.000  Cl
  Cl7      1.0000 0.63143  0.71739  0.13050  Biso   1.000  Cl
  Cl8      1.0000 0.36857  0.28261  0.63050  Biso   1.000  Cl
  C257     1.0000 0.17978  0.88888  0.11510  Biso   1.000  C
  C258     1.0000 0.82022  0.11112  0.61510  Biso   1.000  C
  C259     1.0000 0.67978  0.61112  0.11510  Biso   1.000  C
  C260     1.0000 0.32022  0.38888  0.61510  Biso   1.000  C
  H385     1.0000 0.15100  0.91140  0.09070  Biso   1.000  H
  H386     1.0000 0.84900  0.08860  0.59070  Biso   1.000  H
  H387     1.0000 0.65100  0.58860  0.09070  Biso   1.000  H
  H388     1.0000 0.34900  0.41140  0.59070  Biso   1.000  H
  H389     1.0000 0.19510  0.86910  0.05830  Biso   1.000  H
  H390     1.0000 0.80490  0.13090  0.55830  Biso   1.000  H
  H391     1.0000 0.69510  0.63090  0.05830  Biso   1.000  H
  H392     1.0000 0.30490  0.36910  0.55830  Biso   1.000  H
  C261     1.0000 0.16190  0.84570  0.18330  Biso   1.000  C
  C262     1.0000 0.83810  0.15430  0.68330  Biso   1.000  C
  C263     1.0000 0.66190  0.65430  0.18330  Biso   1.000  C
  C264     1.0000 0.33810  0.34570  0.68330  Biso   1.000  C
  H393     1.0000 0.13820  0.86450  0.22860  Biso   1.000  H
  H394     1.0000 0.86180  0.13550  0.72860  Biso   1.000  H
  H395     1.0000 0.63820  0.63550  0.22860  Biso   1.000  H
  H396     1.0000 0.36180  0.36450  0.72860  Biso   1.000  H
  H397     1.0000 0.19050  0.83220  0.22280  Biso   1.000  H
  H398     1.0000 0.80950  0.16780  0.72280  Biso   1.000  H
  H399     1.0000 0.69050  0.66780  0.22280  Biso   1.000  H
  H400     1.0000 0.30950  0.33220  0.72280  Biso   1.000  H
  C265     1.0000 0.24210  0.69130  0.15530  Biso   1.000  C
  C266     1.0000 0.75790  0.30870  0.65530  Biso   1.000  C
  C267     1.0000 0.74210  0.80870  0.15530  Biso   1.000  C
  C268     1.0000 0.25790  0.19130  0.65530  Biso   1.000  C
  H401     1.0000 0.26130  0.67680  0.21200  Biso   1.000  H
  H402     1.0000 0.73870  0.32320  0.71200  Biso   1.000  H
  H403     1.0000 0.76130  0.82320  0.21200  Biso   1.000  H
  H404     1.0000 0.23870  0.17680  0.71200  Biso   1.000  H
  H405     1.0000 0.20820  0.70130  0.17820  Biso   1.000  H
  H406     1.0000 0.79180  0.29870  0.67820  Biso   1.000  H
  H407     1.0000 0.70820  0.79870  0.17820  Biso   1.000  H
  H408     1.0000 0.29180  0.20130  0.67820  Biso   1.000  H
  C269     1.0000 0.23920  0.64800  0.08290  Biso   1.000  C
  C270     1.0000 0.76080  0.35200  0.58290  Biso   1.000  C
  C271     1.0000 0.73920  0.85200  0.08290  Biso   1.000  C
  C272     1.0000 0.26080  0.14800  0.58290  Biso   1.000  C
  H409     1.0000 0.27330  0.63830  0.06090  Biso   1.000  H
  H410     1.0000 0.72670  0.36170  0.56090  Biso   1.000  H
  H411     1.0000 0.77330  0.86170  0.06090  Biso   1.000  H
  H412     1.0000 0.22670  0.13830  0.56090  Biso   1.000  H
  H413     1.0000 0.22080  0.66350  0.02580  Biso   1.000  H
  H414     1.0000 0.77920  0.33650  0.52580  Biso   1.000  H
  H415     1.0000 0.72080  0.83650  0.02580  Biso   1.000  H
  H416     1.0000 0.27920  0.16350  0.52580  Biso   1.000  H
  Cl9      1.0000 0.20810  0.58130  0.12500  Biso   1.000  Cl
  Cl10     1.0000 0.79190  0.41870  0.62500  Biso   1.000  Cl
  Cl11     1.0000 0.70810  0.91870  0.12500  Biso   1.000  Cl
  Cl12     1.0000 0.29190  0.08130  0.62500  Biso   1.000  Cl
  Cl13     1.0000 0.27290  0.75666  0.10440  Biso   1.000  Cl
  Cl14     1.0000 0.72710  0.24334  0.60440  Biso   1.000  Cl
  Cl15     1.0000 0.77290  0.74334  0.10440  Biso   1.000  Cl
  Cl16     1.0000 0.22710  0.25666  0.60440  Biso   1.000  Cl
  Cl17     1.0000 0.14020  0.54590  0.41330  Biso   1.000  Cl
  Cl18     1.0000 0.85980  0.45410  0.91330  Biso   1.000  Cl
  Cl19     1.0000 0.64020  0.95410  0.41330  Biso   1.000  Cl
  Cl20     1.0000 0.35980  0.04590  0.91330  Biso   1.000  Cl
  Cl21     1.0000 0.29320  0.48470  0.36790  Biso   1.000  Cl
  Cl22     1.0000 0.70680  0.51530  0.86790  Biso   1.000  Cl
  Cl23     1.0000 0.79320  0.01530  0.36790  Biso   1.000  Cl
  Cl24     1.0000 0.20680  0.98470  0.86790  Biso   1.000  Cl
  C273     1.0000 0.20840  0.54610  0.40200  Biso   1.000  C
  C274     1.0000 0.79160  0.45390  0.90200  Biso   1.000  C
  C275     1.0000 0.70840  0.95390  0.40200  Biso   1.000  C
  C276     1.0000 0.29160  0.04610  0.90200  Biso   1.000  C
  H417     1.0000 0.21840  0.57470  0.35210  Biso   1.000  H
  H418     1.0000 0.78160  0.42530  0.85210  Biso   1.000  H
  H419     1.0000 0.71840  0.92530  0.35210  Biso   1.000  H
  H420     1.0000 0.28160  0.07470  0.85210  Biso   1.000  H
  H421     1.0000 0.22310  0.55820  0.46550  Biso   1.000  H
  H422     1.0000 0.77690  0.44180  0.96550  Biso   1.000  H
  H423     1.0000 0.72310  0.94180  0.46550  Biso   1.000  H
  H424     1.0000 0.27690  0.05820  0.96550  Biso   1.000  H
  C277     1.0000 0.22720  0.49160  0.37700  Biso   1.000  C
  C278     1.0000 0.77280  0.50840  0.87700  Biso   1.000  C
  C279     1.0000 0.72720  0.00840  0.37700  Biso   1.000  C
  C280     1.0000 0.27280  0.99160  0.87700  Biso   1.000  C
  H425     1.0000 0.21270  0.48070  0.31270  Biso   1.000  H
  H426     1.0000 0.78730  0.51930  0.81270  Biso   1.000  H
  H427     1.0000 0.71270  0.01930  0.31270  Biso   1.000  H
  H428     1.0000 0.28730  0.98070  0.81270  Biso   1.000  H
  H429     1.0000 0.21520  0.46330  0.42550  Biso   1.000  H
  H430     1.0000 0.78480  0.53670  0.92550  Biso   1.000  H
  H431     1.0000 0.71520  0.03670  0.42550  Biso   1.000  H
  H432     1.0000 0.28480  0.96330  0.92550  Biso   1.000  H
  Cl25     1.0000 0.25260  0.62020  0.40560  Biso   1.000  Cl
  Cl26     1.0000 0.74740  0.37980  0.90560  Biso   1.000  Cl
  Cl27     1.0000 0.75260  0.87980  0.40560  Biso   1.000  Cl
  Cl28     1.0000 0.24740  0.12020  0.90560  Biso   1.000  Cl
  Cl29     1.0000 0.19260  0.45500  0.37500  Biso   1.000  Cl
  Cl30     1.0000 0.80740  0.54500  0.87500  Biso   1.000  Cl
  Cl31     1.0000 0.69260  0.04500  0.37500  Biso   1.000  Cl
  Cl32     1.0000 0.30740  0.95500  0.87500  Biso   1.000  Cl
  C281     1.0000 0.20140  0.57000  0.41100  Biso   1.000  C
  C282     1.0000 0.79860  0.43000  0.91100  Biso   1.000  C
  C283     1.0000 0.70140  0.93000  0.41100  Biso   1.000  C
  C284     1.0000 0.29860  0.07000  0.91100  Biso   1.000  C
  H433     1.0000 0.17520  0.58560  0.45460  Biso   1.000  H
  H434     1.0000 0.82480  0.41440  0.95460  Biso   1.000  H
  H435     1.0000 0.67520  0.91440  0.45460  Biso   1.000  H
  H436     1.0000 0.32480  0.08560  0.95460  Biso   1.000  H
  H437     1.0000 0.18690  0.56540  0.34500  Biso   1.000  H
  H438     1.0000 0.81310  0.43460  0.84500  Biso   1.000  H
  H439     1.0000 0.68690  0.93460  0.34500  Biso   1.000  H
  H440     1.0000 0.31310  0.06540  0.84500  Biso   1.000  H
  C285     1.0000 0.21600  0.51400  0.44700  Biso   1.000  C
  C286     1.0000 0.78400  0.48600  0.94700  Biso   1.000  C
  C287     1.0000 0.71600  0.98600  0.44700  Biso   1.000  C
  C288     1.0000 0.28400  0.01400  0.94700  Biso   1.000  C
  H441     1.0000 0.20430  0.50990  0.51490  Biso   1.000  H
  H442     1.0000 0.79570  0.49010  0.01490  Biso   1.000  H
  H443     1.0000 0.70430  0.99010  0.51490  Biso   1.000  H
  H444     1.0000 0.29570  0.00990  0.01490  Biso   1.000  H
  H445     1.0000 0.25300  0.51240  0.44760  Biso   1.000  H
  H446     1.0000 0.74700  0.48760  0.94760  Biso   1.000  H
  H447     1.0000 0.75300  0.98760  0.44760  Biso   1.000  H
  H448     1.0000 0.24700  0.01240  0.94760  Biso   1.000  H
  C289     1.0000 0.09320  0.09360  0.14700  Biso   1.000  C
  C290     1.0000 0.90680  0.90640  0.64700  Biso   1.000  C
  C291     1.0000 0.59320  0.40640  0.14700  Biso   1.000  C
  C292     1.0000 0.40680  0.59360  0.64700  Biso   1.000  C
  C293     1.0000 0.14620  0.07020  0.99900  Biso   1.000  C
  C294     1.0000 0.85380  0.92980  0.49900  Biso   1.000  C
  C295     1.0000 0.64620  0.42980  0.99900  Biso   1.000  C
  C296     1.0000 0.35380  0.57020  0.49900  Biso   1.000  C
  C297     1.0000 0.05930  0.10620  0.98200  Biso   1.000  C
  C298     1.0000 0.94070  0.89380  0.48200  Biso   1.000  C
  C299     1.0000 0.55930  0.39380  0.98200  Biso   1.000  C
  C300     1.0000 0.44070  0.60620  0.48200  Biso   1.000  C
  H449     1.0000 0.02540  0.11180  0.00660  Biso   1.000  H
  H450     1.0000 0.97460  0.88820  0.50660  Biso   1.000  H
  H451     1.0000 0.52540  0.38820  0.00660  Biso   1.000  H
  H452     1.0000 0.47460  0.61180  0.50660  Biso   1.000  H
  H453     1.0000 0.05810  0.08630  0.91880  Biso   1.000  H
  H454     1.0000 0.94190  0.91370  0.41880  Biso   1.000  H
  H455     1.0000 0.55810  0.41370  0.91880  Biso   1.000  H
  H456     1.0000 0.44190  0.58630  0.41880  Biso   1.000  H
  H457     1.0000 0.07550  0.14380  0.97410  Biso   1.000  H
  H458     1.0000 0.92450  0.85620  0.47410  Biso   1.000  H
  H459     1.0000 0.57550  0.35620  0.97410  Biso   1.000  H
  H460     1.0000 0.42450  0.64380  0.47410  Biso   1.000  H
  H461     1.0000 0.11370  0.06960  0.19030  Biso   1.000  H
  H462     1.0000 0.88630  0.93040  0.69030  Biso   1.000  H
  H463     1.0000 0.61370  0.43040  0.19030  Biso   1.000  H
  H464     1.0000 0.38630  0.56960  0.69030  Biso   1.000  H
  H465     1.0000 0.05980  0.09770  0.17510  Biso   1.000  H
  H466     1.0000 0.94020  0.90230  0.67510  Biso   1.000  H
  H467     1.0000 0.55980  0.40230  0.17510  Biso   1.000  H
  H468     1.0000 0.44020  0.59770  0.67510  Biso   1.000  H
  H469     1.0000 0.10850  0.13180  0.14050  Biso   1.000  H
  H470     1.0000 0.89150  0.86820  0.64050  Biso   1.000  H
  H471     1.0000 0.60850  0.36820  0.14050  Biso   1.000  H
  H472     1.0000 0.39150  0.63180  0.64050  Biso   1.000  H
  H473     1.0000 0.14290  0.05240  0.93400  Biso   1.000  H
  H474     1.0000 0.85710  0.94760  0.43400  Biso   1.000  H
  H475     1.0000 0.64290  0.44760  0.93400  Biso   1.000  H
  H476     1.0000 0.35710  0.55240  0.43400  Biso   1.000  H
  H477     1.0000 0.17090  0.04880  0.03720  Biso   1.000  H
  H478     1.0000 0.82910  0.95120  0.53720  Biso   1.000  H
  H479     1.0000 0.67090  0.45120  0.03720  Biso   1.000  H
  H480     1.0000 0.32910  0.54880  0.53720  Biso   1.000  H
  H481     1.0000 0.15700  0.11040  0.99150  Biso   1.000  H
  H482     1.0000 0.84300  0.88960  0.49150  Biso   1.000  H
  H483     1.0000 0.65700  0.38960  0.99150  Biso   1.000  H
  H484     1.0000 0.34300  0.61040  0.49150  Biso   1.000  H
