data_image0
_cell_length_a       25.262
_cell_length_b       25.262
_cell_length_c       32.106
_cell_angle_alpha    90
_cell_angle_beta     90
_cell_angle_gamma    120

_symmetry_space_group_name_H-M    "P 1"
_symmetry_int_tables_number       1

loop_
  _symmetry_equiv_pos_as_xyz
  'x, y, z'

loop_
  _atom_site_label
  _atom_site_occupancy
  _atom_site_fract_x
  _atom_site_fract_y
  _atom_site_fract_z
  _atom_site_thermal_displace_type
  _atom_site_B_iso_or_equiv
  _atom_site_type_symbol
  Gd1      1.0000 0.44704  0.37943  0.71077  Biso   1.000  Gd
  Gd2      1.0000 0.62057  0.06761  0.37744  Biso   1.000  Gd
  Gd3      1.0000 0.93239  0.55296  0.04410  Biso   1.000  Gd
  Gd4      1.0000 0.37943  0.44704  0.28923  Biso   1.000  Gd
  Gd5      1.0000 0.06761  0.62057  0.62256  Biso   1.000  Gd
  Gd6      1.0000 0.55296  0.93239  0.95590  Biso   1.000  Gd
  Gd7      1.0000 0.30684  0.07132  0.88395  Biso   1.000  Gd
  Gd8      1.0000 0.92868  0.23552  0.55062  Biso   1.000  Gd
  Gd9      1.0000 0.76448  0.69316  0.21728  Biso   1.000  Gd
  Gd10     1.0000 0.07132  0.30684  0.11605  Biso   1.000  Gd
  Gd11     1.0000 0.23552  0.92868  0.44938  Biso   1.000  Gd
  Gd12     1.0000 0.69316  0.76448  0.78272  Biso   1.000  Gd
  Cu1      1.0000 0.48633  0.30234  0.77954  Biso   1.000  Cu
  Cu2      1.0000 0.69766  0.18399  0.44621  Biso   1.000  Cu
  Cu3      1.0000 0.81601  0.51367  0.11287  Biso   1.000  Cu
  Cu4      1.0000 0.30234  0.48633  0.22046  Biso   1.000  Cu
  Cu5      1.0000 0.18399  0.69766  0.55379  Biso   1.000  Cu
  Cu6      1.0000 0.51367  0.81601  0.88713  Biso   1.000  Cu
  Cu7      1.0000 0.60815  0.61663  0.81798  Biso   1.000  Cu
  Cu8      1.0000 0.38337  0.99152  0.48465  Biso   1.000  Cu
  Cu9      1.0000 0.00848  0.39185  0.15131  Biso   1.000  Cu
  Cu10     1.0000 0.61663  0.60815  0.18202  Biso   1.000  Cu
  Cu11     1.0000 0.99152  0.38337  0.51535  Biso   1.000  Cu
  Cu12     1.0000 0.39185  0.00848  0.84869  Biso   1.000  Cu
  O1       1.0000 0.35980  0.16340  0.85230  Biso   1.000  O
  O2       1.0000 0.83660  0.19640  0.51897  Biso   1.000  O
  O3       1.0000 0.80360  0.64020  0.18563  Biso   1.000  O
  O4       1.0000 0.16340  0.35980  0.14770  Biso   1.000  O
  O5       1.0000 0.19640  0.83660  0.48103  Biso   1.000  O
  O6       1.0000 0.64020  0.80360  0.81437  Biso   1.000  O
  O7       1.0000 0.42380  0.32520  0.77840  Biso   1.000  O
  O8       1.0000 0.67480  0.09860  0.44507  Biso   1.000  O
  O9       1.0000 0.90140  0.57620  0.11173  Biso   1.000  O
  O10      1.0000 0.32520  0.42380  0.22160  Biso   1.000  O
  O11      1.0000 0.09860  0.67480  0.55493  Biso   1.000  O
  O12      1.0000 0.57620  0.90140  0.88827  Biso   1.000  O
  O13      1.0000 0.52880  0.36390  0.73760  Biso   1.000  O
  O14      1.0000 0.63610  0.16490  0.40427  Biso   1.000  O
  O15      1.0000 0.83510  0.47120  0.07093  Biso   1.000  O
  O16      1.0000 0.36390  0.52880  0.26240  Biso   1.000  O
  O17      1.0000 0.16490  0.63610  0.59573  Biso   1.000  O
  O18      1.0000 0.47120  0.83510  0.92907  Biso   1.000  O
  O19      1.0000 0.55970  0.43780  0.67810  Biso   1.000  O
  O20      1.0000 0.56220  0.12190  0.34477  Biso   1.000  O
  O21      1.0000 0.87810  0.44030  0.01143  Biso   1.000  O
  O22      1.0000 0.43780  0.55970  0.32190  Biso   1.000  O
  O23      1.0000 0.12190  0.56220  0.65523  Biso   1.000  O
  O24      1.0000 0.44030  0.87810  0.98857  Biso   1.000  O
  O25      1.0000 0.46480  0.32470  0.66200  Biso   1.000  O
  O26      1.0000 0.67530  0.14010  0.32867  Biso   1.000  O
  O27      1.0000 0.85990  0.53520  0.99533  Biso   1.000  O
  O28      1.0000 0.32470  0.46480  0.33800  Biso   1.000  O
  O29      1.0000 0.14010  0.67530  0.67133  Biso   1.000  O
  O30      1.0000 0.53520  0.85990  0.00467  Biso   1.000  O
  O31      1.0000 0.35970  0.29690  0.69840  Biso   1.000  O
  O32      1.0000 0.70310  0.06280  0.36507  Biso   1.000  O
  O33      1.0000 0.93720  0.64030  0.03173  Biso   1.000  O
  O34      1.0000 0.29690  0.35970  0.30160  Biso   1.000  O
  O35      1.0000 0.06280  0.70310  0.63493  Biso   1.000  O
  O36      1.0000 0.64030  0.93720  0.96827  Biso   1.000  O
  O37      1.0000 0.43460  0.41840  0.65030  Biso   1.000  O
  O38      1.0000 0.58160  0.01620  0.31697  Biso   1.000  O
  O39      1.0000 0.98380  0.56540  0.98363  Biso   1.000  O
  O40      1.0000 0.41840  0.43460  0.34970  Biso   1.000  O
  O41      1.0000 0.01620  0.58160  0.68303  Biso   1.000  O
  O42      1.0000 0.56540  0.98380  0.01637  Biso   1.000  O
  O43      1.0000 0.37140  0.40340  0.72160  Biso   1.000  O
  O44      1.0000 0.59660  0.96800  0.38827  Biso   1.000  O
  O45      1.0000 0.03200  0.62860  0.05493  Biso   1.000  O
  O46      1.0000 0.40340  0.37140  0.27840  Biso   1.000  O
  O47      1.0000 0.96800  0.59660  0.61173  Biso   1.000  O
  O48      1.0000 0.62860  0.03200  0.94507  Biso   1.000  O
  O49      1.0000 0.49720  0.47220  0.74050  Biso   1.000  O
  O50      1.0000 0.52780  0.02500  0.40717  Biso   1.000  O
  O51      1.0000 0.97500  0.50280  0.07383  Biso   1.000  O
  O52      1.0000 0.47220  0.49720  0.25950  Biso   1.000  O
  O53      1.0000 0.02500  0.52780  0.59283  Biso   1.000  O
  O54      1.0000 0.50280  0.97500  0.92617  Biso   1.000  O
  O55      1.0000 0.59710  0.66250  0.77510  Biso   1.000  O
  O56      1.0000 0.33750  0.93460  0.44177  Biso   1.000  O
  O57      1.0000 0.06540  0.40290  0.10843  Biso   1.000  O
  O58      1.0000 0.66250  0.59710  0.22490  Biso   1.000  O
  O59      1.0000 0.93460  0.33750  0.55823  Biso   1.000  O
  O60      1.0000 0.40290  0.06540  0.89157  Biso   1.000  O
  O61      1.0000 0.66650  0.69610  0.84060  Biso   1.000  O
  O62      1.0000 0.30390  0.97040  0.50727  Biso   1.000  O
  O63      1.0000 0.02960  0.33350  0.17393  Biso   1.000  O
  O64      1.0000 0.69610  0.66650  0.15940  Biso   1.000  O
  O65      1.0000 0.97040  0.30390  0.49273  Biso   1.000  O
  O66      1.0000 0.33350  0.02960  0.82607  Biso   1.000  O
  O67      1.0000 0.73870  0.80580  0.85730  Biso   1.000  O
  O68      1.0000 0.19420  0.93290  0.52397  Biso   1.000  O
  O69      1.0000 0.06710  0.26130  0.19063  Biso   1.000  O
  O70      1.0000 0.80580  0.73870  0.14270  Biso   1.000  O
  O71      1.0000 0.93290  0.19420  0.47603  Biso   1.000  O
  O72      1.0000 0.26130  0.06710  0.80937  Biso   1.000  O
  O73      1.0000 0.23230  0.97230  0.87370  Biso   1.000  O
  O74      1.0000 0.02770  0.26000  0.54037  Biso   1.000  O
  O75      1.0000 0.74000  0.76770  0.20703  Biso   1.000  O
  O76      1.0000 0.97230  0.23230  0.12630  Biso   1.000  O
  O77      1.0000 0.26000  0.02770  0.45963  Biso   1.000  O
  O78      1.0000 0.76770  0.74000  0.79297  Biso   1.000  O
  O79      1.0000 0.22090  0.07520  0.89410  Biso   1.000  O
  O80      1.0000 0.92480  0.14570  0.56077  Biso   1.000  O
  O81      1.0000 0.85430  0.77910  0.22743  Biso   1.000  O
  O82      1.0000 0.07520  0.22090  0.10590  Biso   1.000  O
  O83      1.0000 0.14570  0.92480  0.43923  Biso   1.000  O
  O84      1.0000 0.77910  0.85430  0.77257  Biso   1.000  O
  O85      1.0000 0.29200  0.02040  0.94320  Biso   1.000  O
  O86      1.0000 0.97960  0.27160  0.60987  Biso   1.000  O
  O87      1.0000 0.72840  0.70800  0.27653  Biso   1.000  O
  O88      1.0000 0.02040  0.29200  0.05680  Biso   1.000  O
  O89      1.0000 0.27160  0.97960  0.39013  Biso   1.000  O
  O90      1.0000 0.70800  0.72840  0.72347  Biso   1.000  O
  O91      1.0000 0.33310  0.14410  0.93460  Biso   1.000  O
  O92      1.0000 0.85590  0.18900  0.60127  Biso   1.000  O
  O93      1.0000 0.81100  0.66690  0.26793  Biso   1.000  O
  O94      1.0000 0.14410  0.33310  0.06540  Biso   1.000  O
  O95      1.0000 0.18900  0.85590  0.39873  Biso   1.000  O
  O96      1.0000 0.66690  0.81100  0.73207  Biso   1.000  O
  N1       1.0000 0.44180  0.23190  0.81320  Biso   1.000  N
  N2       1.0000 0.76810  0.20990  0.47987  Biso   1.000  N
  N3       1.0000 0.79010  0.55820  0.14653  Biso   1.000  N
  N4       1.0000 0.23190  0.44180  0.18680  Biso   1.000  N
  N5       1.0000 0.20990  0.76810  0.52013  Biso   1.000  N
  N6       1.0000 0.55820  0.79010  0.85347  Biso   1.000  N
  N7       1.0000 0.54980  0.28280  0.78010  Biso   1.000  N
  N8       1.0000 0.71720  0.26700  0.44677  Biso   1.000  N
  N9       1.0000 0.73300  0.45020  0.11343  Biso   1.000  N
  N10      1.0000 0.28280  0.54980  0.21990  Biso   1.000  N
  N11      1.0000 0.26700  0.71720  0.55323  Biso   1.000  N
  N12      1.0000 0.45020  0.73300  0.88657  Biso   1.000  N
  N13      1.0000 0.56050  0.53890  0.79020  Biso   1.000  N
  N14      1.0000 0.46110  0.02160  0.45687  Biso   1.000  N
  N15      1.0000 0.97840  0.43950  0.12353  Biso   1.000  N
  N16      1.0000 0.53890  0.56050  0.20980  Biso   1.000  N
  N17      1.0000 0.02160  0.46110  0.54313  Biso   1.000  N
  N18      1.0000 0.43950  0.97840  0.87647  Biso   1.000  N
  N19      1.0000 0.61540  0.57010  0.86370  Biso   1.000  N
  N20      1.0000 0.42990  0.04530  0.53037  Biso   1.000  N
  N21      1.0000 0.95470  0.38460  0.19703  Biso   1.000  N
  N22      1.0000 0.57010  0.61540  0.13630  Biso   1.000  N
  N23      1.0000 0.04530  0.42990  0.46963  Biso   1.000  N
  N24      1.0000 0.38460  0.95470  0.80297  Biso   1.000  N
  C1       1.0000 0.37950  0.30610  0.80690  Biso   1.000  C
  C2       1.0000 0.69390  0.07340  0.47357  Biso   1.000  C
  C3       1.0000 0.92660  0.62050  0.14023  Biso   1.000  C
  C4       1.0000 0.30610  0.37950  0.19310  Biso   1.000  C
  C5       1.0000 0.07340  0.69390  0.52643  Biso   1.000  C
  C6       1.0000 0.62050  0.92660  0.85977  Biso   1.000  C
  C7       1.0000 0.35530  0.34500  0.81260  Biso   1.000  C
  C8       1.0000 0.65500  0.01030  0.47927  Biso   1.000  C
  C9       1.0000 0.98970  0.64470  0.14593  Biso   1.000  C
  C10      1.0000 0.34500  0.35530  0.18740  Biso   1.000  C
  C11      1.0000 0.01030  0.65500  0.52073  Biso   1.000  C
  C12      1.0000 0.64470  0.98970  0.85407  Biso   1.000  C
  C13      1.0000 0.30760  0.32740  0.83740  Biso   1.000  C
  C14      1.0000 0.67260  0.98020  0.50407  Biso   1.000  C
  C15      1.0000 0.01980  0.69240  0.17073  Biso   1.000  C
  C16      1.0000 0.32740  0.30760  0.16260  Biso   1.000  C
  C17      1.0000 0.98020  0.67260  0.49593  Biso   1.000  C
  C18      1.0000 0.69240  0.01980  0.82927  Biso   1.000  C
  C19      1.0000 0.28020  0.27100  0.86920  Biso   1.000  C
  C20      1.0000 0.72900  0.00920  0.53587  Biso   1.000  C
  C21      1.0000 0.99080  0.71980  0.20253  Biso   1.000  C
  C22      1.0000 0.27100  0.28020  0.13080  Biso   1.000  C
  C23      1.0000 0.00920  0.72900  0.46413  Biso   1.000  C
  C24      1.0000 0.71980  0.99080  0.79747  Biso   1.000  C
  C25      1.0000 0.31140  0.23280  0.85790  Biso   1.000  C
  C26      1.0000 0.76720  0.07860  0.52457  Biso   1.000  C
  C27      1.0000 0.92140  0.68860  0.19123  Biso   1.000  C
  C28      1.0000 0.23280  0.31140  0.14210  Biso   1.000  C
  C29      1.0000 0.07860  0.76720  0.47543  Biso   1.000  C
  C30      1.0000 0.68860  0.92140  0.80877  Biso   1.000  C
  C31      1.0000 0.36320  0.25310  0.83230  Biso   1.000  C
  C32      1.0000 0.74690  0.11010  0.49897  Biso   1.000  C
  C33      1.0000 0.88990  0.63680  0.16563  Biso   1.000  C
  C34      1.0000 0.25310  0.36320  0.16770  Biso   1.000  C
  C35      1.0000 0.11010  0.74690  0.50103  Biso   1.000  C
  C36      1.0000 0.63680  0.88990  0.83437  Biso   1.000  C
  C37      1.0000 0.38870  0.21520  0.83050  Biso   1.000  C
  C38      1.0000 0.78480  0.17350  0.49717  Biso   1.000  C
  C39      1.0000 0.82650  0.61130  0.16383  Biso   1.000  C
  C40      1.0000 0.21520  0.38870  0.16950  Biso   1.000  C
  C41      1.0000 0.17350  0.78480  0.50283  Biso   1.000  C
  C42      1.0000 0.61130  0.82650  0.83617  Biso   1.000  C
  C43      1.0000 0.46800  0.19080  0.81140  Biso   1.000  C
  C44      1.0000 0.80920  0.27720  0.47807  Biso   1.000  C
  C45      1.0000 0.72280  0.53200  0.14473  Biso   1.000  C
  C46      1.0000 0.19080  0.46800  0.18860  Biso   1.000  C
  C47      1.0000 0.27720  0.80920  0.52193  Biso   1.000  C
  C48      1.0000 0.53200  0.72280  0.85527  Biso   1.000  C
  C49      1.0000 0.44960  0.15600  0.77760  Biso   1.000  C
  C50      1.0000 0.84400  0.29360  0.44427  Biso   1.000  C
  C51      1.0000 0.70640  0.55040  0.11093  Biso   1.000  C
  C52      1.0000 0.15600  0.44960  0.22240  Biso   1.000  C
  C53      1.0000 0.29360  0.84400  0.55573  Biso   1.000  C
  C54      1.0000 0.55040  0.70640  0.88907  Biso   1.000  C
  C55      1.0000 0.47770  0.11240  0.77040  Biso   1.000  C
  C56      1.0000 0.88760  0.36530  0.43707  Biso   1.000  C
  C57      1.0000 0.63470  0.52230  0.10373  Biso   1.000  C
  C58      1.0000 0.11240  0.47770  0.22960  Biso   1.000  C
  C59      1.0000 0.36530  0.88760  0.56293  Biso   1.000  C
  C60      1.0000 0.52230  0.63470  0.89627  Biso   1.000  C
  C61      1.0000 0.46280  0.07990  0.73480  Biso   1.000  C
  C62      1.0000 0.92010  0.38290  0.40147  Biso   1.000  C
  C63      1.0000 0.61710  0.53720  0.06813  Biso   1.000  C
  C64      1.0000 0.07990  0.46280  0.26520  Biso   1.000  C
  C65      1.0000 0.38290  0.92010  0.59853  Biso   1.000  C
  C66      1.0000 0.53720  0.61710  0.93187  Biso   1.000  C
  C67      1.0000 0.42800  0.08500  0.70990  Biso   1.000  C
  C68      1.0000 0.91500  0.34300  0.37657  Biso   1.000  C
  C69      1.0000 0.65700  0.57200  0.04323  Biso   1.000  C
  C70      1.0000 0.08500  0.42800  0.29010  Biso   1.000  C
  C71      1.0000 0.34300  0.91500  0.62343  Biso   1.000  C
  C72      1.0000 0.57200  0.65700  0.95677  Biso   1.000  C
  C73      1.0000 0.39400  0.11620  0.70750  Biso   1.000  C
  C74      1.0000 0.88380  0.27780  0.37417  Biso   1.000  C
  C75      1.0000 0.72220  0.60600  0.04083  Biso   1.000  C
  C76      1.0000 0.11620  0.39400  0.29250  Biso   1.000  C
  C77      1.0000 0.27780  0.88380  0.62583  Biso   1.000  C
  C78      1.0000 0.60600  0.72220  0.95917  Biso   1.000  C
  C79      1.0000 0.40540  0.15720  0.74820  Biso   1.000  C
  C80      1.0000 0.84280  0.24820  0.41487  Biso   1.000  C
  C81      1.0000 0.75180  0.59460  0.08153  Biso   1.000  C
  C82      1.0000 0.15720  0.40540  0.25180  Biso   1.000  C
  C83      1.0000 0.24820  0.84280  0.58513  Biso   1.000  C
  C84      1.0000 0.59460  0.75180  0.91847  Biso   1.000  C
  C85      1.0000 0.53850  0.23300  0.81580  Biso   1.000  C
  C86      1.0000 0.76700  0.30550  0.48247  Biso   1.000  C
  C87      1.0000 0.69450  0.46150  0.14913  Biso   1.000  C
  C88      1.0000 0.23300  0.53850  0.18420  Biso   1.000  C
  C89      1.0000 0.30550  0.76700  0.51753  Biso   1.000  C
  C90      1.0000 0.46150  0.69450  0.85087  Biso   1.000  C
  C91      1.0000 0.56000  0.26510  0.85700  Biso   1.000  C
  C92      1.0000 0.73490  0.29490  0.52367  Biso   1.000  C
  C93      1.0000 0.70510  0.44000  0.19033  Biso   1.000  C
  C94      1.0000 0.26510  0.56000  0.14300  Biso   1.000  C
  C95      1.0000 0.29490  0.73490  0.47633  Biso   1.000  C
  C96      1.0000 0.44000  0.70510  0.80967  Biso   1.000  C
  C97      1.0000 0.61400  0.26300  0.86790  Biso   1.000  C
  C98      1.0000 0.73700  0.35100  0.53457  Biso   1.000  C
  C99      1.0000 0.64900  0.38600  0.20123  Biso   1.000  C
  C100     1.0000 0.26300  0.61400  0.13210  Biso   1.000  C
  C101     1.0000 0.35100  0.73700  0.46543  Biso   1.000  C
  C102     1.0000 0.38600  0.64900  0.79877  Biso   1.000  C
  C103     1.0000 0.64300  0.30100  0.90030  Biso   1.000  C
  C104     1.0000 0.69900  0.34200  0.56697  Biso   1.000  C
  C105     1.0000 0.65800  0.35700  0.23363  Biso   1.000  C
  C106     1.0000 0.30100  0.64300  0.09970  Biso   1.000  C
  C107     1.0000 0.34200  0.69900  0.43303  Biso   1.000  C
  C108     1.0000 0.35700  0.65800  0.76637  Biso   1.000  C
  C109     1.0000 0.62500  0.33200  0.92860  Biso   1.000  C
  C110     1.0000 0.66800  0.29300  0.59527  Biso   1.000  C
  C111     1.0000 0.70700  0.37500  0.26193  Biso   1.000  C
  C112     1.0000 0.33200  0.62500  0.07140  Biso   1.000  C
  C113     1.0000 0.29300  0.66800  0.40473  Biso   1.000  C
  C114     1.0000 0.37500  0.70700  0.73807  Biso   1.000  C
  C115     1.0000 0.56800  0.33100  0.92110  Biso   1.000  C
  C116     1.0000 0.66900  0.23700  0.58777  Biso   1.000  C
  C117     1.0000 0.76300  0.43200  0.25443  Biso   1.000  C
  C118     1.0000 0.33100  0.56800  0.07890  Biso   1.000  C
  C119     1.0000 0.23700  0.66900  0.41223  Biso   1.000  C
  C120     1.0000 0.43200  0.76300  0.74557  Biso   1.000  C
  C121     1.0000 0.53770  0.29140  0.87820  Biso   1.000  C
  C122     1.0000 0.70860  0.24630  0.54487  Biso   1.000  C
  C123     1.0000 0.75370  0.46230  0.21153  Biso   1.000  C
  C124     1.0000 0.29140  0.53770  0.12180  Biso   1.000  C
  C125     1.0000 0.24630  0.70860  0.45513  Biso   1.000  C
  C126     1.0000 0.46230  0.75370  0.78847  Biso   1.000  C
  C127     1.0000 0.59880  0.30310  0.75590  Biso   1.000  C
  C128     1.0000 0.69690  0.29570  0.42257  Biso   1.000  C
  C129     1.0000 0.70430  0.40120  0.08923  Biso   1.000  C
  C130     1.0000 0.30310  0.59880  0.24410  Biso   1.000  C
  C131     1.0000 0.29570  0.69690  0.57743  Biso   1.000  C
  C132     1.0000 0.40120  0.70430  0.91077  Biso   1.000  C
  C133     1.0000 0.60750  0.34500  0.72580  Biso   1.000  C
  C134     1.0000 0.65500  0.26250  0.39247  Biso   1.000  C
  C135     1.0000 0.73750  0.39250  0.05913  Biso   1.000  C
  C136     1.0000 0.34500  0.60750  0.27420  Biso   1.000  C
  C137     1.0000 0.26250  0.65500  0.60753  Biso   1.000  C
  C138     1.0000 0.39250  0.73750  0.94087  Biso   1.000  C
  C139     1.0000 0.66720  0.36170  0.70150  Biso   1.000  C
  C140     1.0000 0.63830  0.30550  0.36817  Biso   1.000  C
  C141     1.0000 0.69450  0.33280  0.03483  Biso   1.000  C
  C142     1.0000 0.36170  0.66720  0.29850  Biso   1.000  C
  C143     1.0000 0.30550  0.63830  0.63183  Biso   1.000  C
  C144     1.0000 0.33280  0.69450  0.96517  Biso   1.000  C
  C145     1.0000 0.68610  0.40660  0.66880  Biso   1.000  C
  C146     1.0000 0.59340  0.27950  0.33547  Biso   1.000  C
  C147     1.0000 0.72050  0.31390  0.00213  Biso   1.000  C
  C148     1.0000 0.40660  0.68610  0.33120  Biso   1.000  C
  C149     1.0000 0.27950  0.59340  0.66453  Biso   1.000  C
  C150     1.0000 0.31390  0.72050  0.99787  Biso   1.000  C
  C151     1.0000 0.65130  0.43110  0.66490  Biso   1.000  C
  C152     1.0000 0.56890  0.22020  0.33157  Biso   1.000  C
  C153     1.0000 0.77980  0.34870  0.99823  Biso   1.000  C
  C154     1.0000 0.43110  0.65130  0.33510  Biso   1.000  C
  C155     1.0000 0.22020  0.56890  0.66843  Biso   1.000  C
  C156     1.0000 0.34870  0.77980  0.00177  Biso   1.000  C
  C157     1.0000 0.59480  0.41450  0.68730  Biso   1.000  C
  C158     1.0000 0.58550  0.18030  0.35397  Biso   1.000  C
  C159     1.0000 0.81970  0.40520  0.02063  Biso   1.000  C
  C160     1.0000 0.41450  0.59480  0.31270  Biso   1.000  C
  C161     1.0000 0.18030  0.58550  0.64603  Biso   1.000  C
  C162     1.0000 0.40520  0.81970  0.97937  Biso   1.000  C
  C163     1.0000 0.58210  0.37400  0.71790  Biso   1.000  C
  C164     1.0000 0.62600  0.20810  0.38457  Biso   1.000  C
  C165     1.0000 0.79190  0.41790  0.05123  Biso   1.000  C
  C166     1.0000 0.37400  0.58210  0.28210  Biso   1.000  C
  C167     1.0000 0.20810  0.62600  0.61543  Biso   1.000  C
  C168     1.0000 0.41790  0.79190  0.94877  Biso   1.000  C
  C169     1.0000 0.58300  0.49700  0.65600  Biso   1.000  C
  C170     1.0000 0.50300  0.08600  0.32267  Biso   1.000  C
  C171     1.0000 0.91400  0.41700  0.98933  Biso   1.000  C
  C172     1.0000 0.49700  0.58300  0.34400  Biso   1.000  C
  C173     1.0000 0.08600  0.50300  0.67733  Biso   1.000  C
  C174     1.0000 0.41700  0.91400  0.01067  Biso   1.000  C
  C175     1.0000 0.44030  0.28350  0.63520  Biso   1.000  C
  C176     1.0000 0.71650  0.15680  0.30187  Biso   1.000  C
  C177     1.0000 0.84320  0.55970  0.96853  Biso   1.000  C
  C178     1.0000 0.28350  0.44030  0.36480  Biso   1.000  C
  C179     1.0000 0.15680  0.71650  0.69813  Biso   1.000  C
  C180     1.0000 0.55970  0.84320  0.03147  Biso   1.000  C
  C181     1.0000 0.47800  0.27060  0.60390  Biso   1.000  C
  C182     1.0000 0.72940  0.20740  0.27057  Biso   1.000  C
  C183     1.0000 0.79260  0.52200  0.93723  Biso   1.000  C
  C184     1.0000 0.27060  0.47800  0.39610  Biso   1.000  C
  C185     1.0000 0.20740  0.72940  0.72943  Biso   1.000  C
  C186     1.0000 0.52200  0.79260  0.06277  Biso   1.000  C
  C187     1.0000 0.54080  0.28950  0.62260  Biso   1.000  C
  C188     1.0000 0.71050  0.25130  0.28927  Biso   1.000  C
  C189     1.0000 0.74870  0.45920  0.95593  Biso   1.000  C
  C190     1.0000 0.28950  0.54080  0.37740  Biso   1.000  C
  C191     1.0000 0.25130  0.71050  0.71073  Biso   1.000  C
  C192     1.0000 0.45920  0.74870  0.04407  Biso   1.000  C
  C193     1.0000 0.44490  0.20230  0.59370  Biso   1.000  C
  C194     1.0000 0.79770  0.24260  0.26037  Biso   1.000  C
  C195     1.0000 0.75740  0.55510  0.92703  Biso   1.000  C
  C196     1.0000 0.20230  0.44490  0.40630  Biso   1.000  C
  C197     1.0000 0.24260  0.79770  0.73963  Biso   1.000  C
  C198     1.0000 0.55510  0.75740  0.07297  Biso   1.000  C
  C199     1.0000 0.48620  0.30700  0.56400  Biso   1.000  C
  C200     1.0000 0.69300  0.17920  0.23067  Biso   1.000  C
  C201     1.0000 0.82080  0.51380  0.89733  Biso   1.000  C
  C202     1.0000 0.30700  0.48620  0.43600  Biso   1.000  C
  C203     1.0000 0.17920  0.69300  0.76933  Biso   1.000  C
  C204     1.0000 0.51380  0.82080  0.10267  Biso   1.000  C
  C205     1.0000 0.37130  0.24480  0.63630  Biso   1.000  C
  C206     1.0000 0.75520  0.12650  0.30297  Biso   1.000  C
  C207     1.0000 0.87350  0.62870  0.96963  Biso   1.000  C
  C208     1.0000 0.24480  0.37130  0.36370  Biso   1.000  C
  C209     1.0000 0.12650  0.75520  0.69703  Biso   1.000  C
  C210     1.0000 0.62870  0.87350  0.03037  Biso   1.000  C
  C211     1.0000 0.33530  0.24950  0.66660  Biso   1.000  C
  C212     1.0000 0.75050  0.08580  0.33327  Biso   1.000  C
  C213     1.0000 0.91420  0.66470  0.99993  Biso   1.000  C
  C214     1.0000 0.24950  0.33530  0.33340  Biso   1.000  C
  C215     1.0000 0.08580  0.75050  0.66673  Biso   1.000  C
  C216     1.0000 0.66470  0.91420  0.00007  Biso   1.000  C
  C217     1.0000 0.26660  0.20390  0.66560  Biso   1.000  C
  C218     1.0000 0.79610  0.06270  0.33227  Biso   1.000  C
  C219     1.0000 0.93730  0.73340  0.99893  Biso   1.000  C
  C220     1.0000 0.20390  0.26660  0.33440  Biso   1.000  C
  C221     1.0000 0.06270  0.79610  0.66773  Biso   1.000  C
  C222     1.0000 0.73340  0.93730  0.00107  Biso   1.000  C
  C223     1.0000 0.23200  0.23390  0.68380  Biso   1.000  C
  C224     1.0000 0.76610  0.99810  0.35047  Biso   1.000  C
  C225     1.0000 0.00190  0.76800  0.01713  Biso   1.000  C
  C226     1.0000 0.23390  0.23200  0.31620  Biso   1.000  C
  C227     1.0000 0.99810  0.76610  0.64953  Biso   1.000  C
  C228     1.0000 0.76800  0.00190  0.98287  Biso   1.000  C
  C229     1.0000 0.25290  0.14760  0.69150  Biso   1.000  C
  C230     1.0000 0.85240  0.10530  0.35817  Biso   1.000  C
  C231     1.0000 0.89470  0.74710  0.02483  Biso   1.000  C
  C232     1.0000 0.14760  0.25290  0.30850  Biso   1.000  C
  C233     1.0000 0.10530  0.85240  0.64183  Biso   1.000  C
  C234     1.0000 0.74710  0.89470  0.97517  Biso   1.000  C
  C235     1.0000 0.24630  0.18470  0.62060  Biso   1.000  C
  C236     1.0000 0.81530  0.06160  0.28727  Biso   1.000  C
  C237     1.0000 0.93840  0.75370  0.95393  Biso   1.000  C
  C238     1.0000 0.18470  0.24630  0.37940  Biso   1.000  C
  C239     1.0000 0.06160  0.81530  0.71273  Biso   1.000  C
  C240     1.0000 0.75370  0.93840  0.04607  Biso   1.000  C
  C241     1.0000 0.39560  0.42400  0.63510  Biso   1.000  C
  C242     1.0000 0.57600  0.97160  0.30177  Biso   1.000  C
  C243     1.0000 0.02840  0.60440  0.96843  Biso   1.000  C
  C244     1.0000 0.42400  0.39560  0.36490  Biso   1.000  C
  C245     1.0000 0.97160  0.57600  0.69823  Biso   1.000  C
  C246     1.0000 0.60440  0.02840  0.03157  Biso   1.000  C
  C247     1.0000 0.39720  0.42730  0.58840  Biso   1.000  C
  C248     1.0000 0.57270  0.96990  0.25507  Biso   1.000  C
  C249     1.0000 0.03010  0.60280  0.92173  Biso   1.000  C
  C250     1.0000 0.42730  0.39720  0.41160  Biso   1.000  C
  C251     1.0000 0.96990  0.57270  0.74493  Biso   1.000  C
  C252     1.0000 0.60280  0.03010  0.07827  Biso   1.000  C
  C253     1.0000 0.42260  0.38800  0.57120  Biso   1.000  C
  C254     1.0000 0.61200  0.03460  0.23787  Biso   1.000  C
  C255     1.0000 0.96540  0.57740  0.90453  Biso   1.000  C
  C256     1.0000 0.38800  0.42260  0.42880  Biso   1.000  C
  C257     1.0000 0.03460  0.61200  0.76213  Biso   1.000  C
  C258     1.0000 0.57740  0.96540  0.09547  Biso   1.000  C
  C259     1.0000 0.43810  0.49360  0.57460  Biso   1.000  C
  C260     1.0000 0.50640  0.94450  0.24127  Biso   1.000  C
  C261     1.0000 0.05550  0.56190  0.90793  Biso   1.000  C
  C262     1.0000 0.49360  0.43810  0.42540  Biso   1.000  C
  C263     1.0000 0.94450  0.50640  0.75873  Biso   1.000  C
  C264     1.0000 0.56190  0.05550  0.09207  Biso   1.000  C
  C265     1.0000 0.33240  0.40350  0.57180  Biso   1.000  C
  C266     1.0000 0.59650  0.92890  0.23847  Biso   1.000  C
  C267     1.0000 0.07110  0.66760  0.90513  Biso   1.000  C
  C268     1.0000 0.40350  0.33240  0.42820  Biso   1.000  C
  C269     1.0000 0.92890  0.59650  0.76153  Biso   1.000  C
  C270     1.0000 0.66760  0.07110  0.09487  Biso   1.000  C
  C271     1.0000 0.35060  0.43030  0.65520  Biso   1.000  C
  C272     1.0000 0.56970  0.92030  0.32187  Biso   1.000  C
  C273     1.0000 0.07970  0.64940  0.98853  Biso   1.000  C
  C274     1.0000 0.43030  0.35060  0.34480  Biso   1.000  C
  C275     1.0000 0.92030  0.56970  0.67813  Biso   1.000  C
  C276     1.0000 0.64940  0.07970  0.01147  Biso   1.000  C
  C277     1.0000 0.33890  0.41940  0.69810  Biso   1.000  C
  C278     1.0000 0.58060  0.91950  0.36477  Biso   1.000  C
  C279     1.0000 0.08050  0.66110  0.03143  Biso   1.000  C
  C280     1.0000 0.41940  0.33890  0.30190  Biso   1.000  C
  C281     1.0000 0.91950  0.58060  0.63523  Biso   1.000  C
  C282     1.0000 0.66110  0.08050  0.96857  Biso   1.000  C
  C283     1.0000 0.28650  0.42370  0.71640  Biso   1.000  C
  C284     1.0000 0.57630  0.86280  0.38307  Biso   1.000  C
  C285     1.0000 0.13720  0.71350  0.04973  Biso   1.000  C
  C286     1.0000 0.42370  0.28650  0.28360  Biso   1.000  C
  C287     1.0000 0.86280  0.57630  0.61693  Biso   1.000  C
  C288     1.0000 0.71350  0.13720  0.95027  Biso   1.000  C
  C289     1.0000 0.22840  0.36110  0.71430  Biso   1.000  C
  C290     1.0000 0.63890  0.86730  0.38097  Biso   1.000  C
  C291     1.0000 0.13270  0.77160  0.04763  Biso   1.000  C
  C292     1.0000 0.36110  0.22840  0.28570  Biso   1.000  C
  C293     1.0000 0.86730  0.63890  0.61903  Biso   1.000  C
  C294     1.0000 0.77160  0.13270  0.95237  Biso   1.000  C
  C295     1.0000 0.30070  0.44430  0.76180  Biso   1.000  C
  C296     1.0000 0.55570  0.85640  0.42847  Biso   1.000  C
  C297     1.0000 0.14360  0.69930  0.09513  Biso   1.000  C
  C298     1.0000 0.44430  0.30070  0.23820  Biso   1.000  C
  C299     1.0000 0.85640  0.55570  0.57153  Biso   1.000  C
  C300     1.0000 0.69930  0.14360  0.90487  Biso   1.000  C
  C301     1.0000 0.27710  0.47010  0.69170  Biso   1.000  C
  C302     1.0000 0.52990  0.80700  0.35837  Biso   1.000  C
  C303     1.0000 0.19300  0.72290  0.02503  Biso   1.000  C
  C304     1.0000 0.47010  0.27710  0.30830  Biso   1.000  C
  C305     1.0000 0.80700  0.52990  0.64163  Biso   1.000  C
  C306     1.0000 0.72290  0.19300  0.97497  Biso   1.000  C
  C307     1.0000 0.55580  0.63730  0.74500  Biso   1.000  C
  C308     1.0000 0.36270  0.91850  0.41167  Biso   1.000  C
  C309     1.0000 0.08150  0.44420  0.07833  Biso   1.000  C
  C310     1.0000 0.63730  0.55580  0.25500  Biso   1.000  C
  C311     1.0000 0.91850  0.36270  0.58833  Biso   1.000  C
  C312     1.0000 0.44420  0.08150  0.92167  Biso   1.000  C
  C313     1.0000 0.53800  0.67940  0.73220  Biso   1.000  C
  C314     1.0000 0.32060  0.85860  0.39887  Biso   1.000  C
  C315     1.0000 0.14140  0.46200  0.06553  Biso   1.000  C
  C316     1.0000 0.67940  0.53800  0.26780  Biso   1.000  C
  C317     1.0000 0.85860  0.32060  0.60113  Biso   1.000  C
  C318     1.0000 0.46200  0.14140  0.93447  Biso   1.000  C
  C319     1.0000 0.48800  0.66100  0.69970  Biso   1.000  C
  C320     1.0000 0.33900  0.82700  0.36637  Biso   1.000  C
  C321     1.0000 0.17300  0.51200  0.03303  Biso   1.000  C
  C322     1.0000 0.66100  0.48800  0.30030  Biso   1.000  C
  C323     1.0000 0.82700  0.33900  0.63363  Biso   1.000  C
  C324     1.0000 0.51200  0.17300  0.96697  Biso   1.000  C
  C325     1.0000 0.46600  0.59700  0.68120  Biso   1.000  C
  C326     1.0000 0.40300  0.86900  0.34787  Biso   1.000  C
  C327     1.0000 0.13100  0.53400  0.01453  Biso   1.000  C
  C328     1.0000 0.59700  0.46600  0.31880  Biso   1.000  C
  C329     1.0000 0.86900  0.40300  0.65213  Biso   1.000  C
  C330     1.0000 0.53400  0.13100  0.98547  Biso   1.000  C
  C331     1.0000 0.47510  0.55000  0.70780  Biso   1.000  C
  C332     1.0000 0.45000  0.92510  0.37447  Biso   1.000  C
  C333     1.0000 0.07490  0.52490  0.04113  Biso   1.000  C
  C334     1.0000 0.55000  0.47510  0.29220  Biso   1.000  C
  C335     1.0000 0.92510  0.45000  0.62553  Biso   1.000  C
  C336     1.0000 0.52490  0.07490  0.95887  Biso   1.000  C
  C337     1.0000 0.52500  0.57540  0.73620  Biso   1.000  C
  C338     1.0000 0.42460  0.94960  0.40287  Biso   1.000  C
  C339     1.0000 0.05040  0.47500  0.06953  Biso   1.000  C
  C340     1.0000 0.57540  0.52500  0.26380  Biso   1.000  C
  C341     1.0000 0.94960  0.42460  0.59713  Biso   1.000  C
  C342     1.0000 0.47500  0.05040  0.93047  Biso   1.000  C
  C343     1.0000 0.52690  0.52300  0.75590  Biso   1.000  C
  C344     1.0000 0.47700  0.00390  0.42257  Biso   1.000  C
  C345     1.0000 0.99610  0.47310  0.08923  Biso   1.000  C
  C346     1.0000 0.52300  0.52690  0.24410  Biso   1.000  C
  C347     1.0000 0.00390  0.47700  0.57743  Biso   1.000  C
  C348     1.0000 0.47310  0.99610  0.91077  Biso   1.000  C
  C349     1.0000 0.57260  0.49340  0.81010  Biso   1.000  C
  C350     1.0000 0.50660  0.07920  0.47677  Biso   1.000  C
  C351     1.0000 0.92080  0.42740  0.14343  Biso   1.000  C
  C352     1.0000 0.49340  0.57260  0.18990  Biso   1.000  C
  C353     1.0000 0.07920  0.50660  0.52323  Biso   1.000  C
  C354     1.0000 0.42740  0.92080  0.85657  Biso   1.000  C
  C355     1.0000 0.62590  0.49090  0.79620  Biso   1.000  C
  C356     1.0000 0.50910  0.13500  0.46287  Biso   1.000  C
  C357     1.0000 0.86500  0.37410  0.12953  Biso   1.000  C
  C358     1.0000 0.49090  0.62590  0.20380  Biso   1.000  C
  C359     1.0000 0.13500  0.50910  0.53713  Biso   1.000  C
  C360     1.0000 0.37410  0.86500  0.87047  Biso   1.000  C
  C361     1.0000 0.64190  0.44990  0.81340  Biso   1.000  C
  C362     1.0000 0.55010  0.19200  0.48007  Biso   1.000  C
  C363     1.0000 0.80800  0.35810  0.14673  Biso   1.000  C
  C364     1.0000 0.44990  0.64190  0.18660  Biso   1.000  C
  C365     1.0000 0.19200  0.55010  0.51993  Biso   1.000  C
  C366     1.0000 0.35810  0.80800  0.85327  Biso   1.000  C
  C367     1.0000 0.69410  0.44940  0.79930  Biso   1.000  C
  C368     1.0000 0.55060  0.24470  0.46597  Biso   1.000  C
  C369     1.0000 0.75530  0.30590  0.13263  Biso   1.000  C
  C370     1.0000 0.44940  0.69410  0.20070  Biso   1.000  C
  C371     1.0000 0.24470  0.55060  0.53403  Biso   1.000  C
  C372     1.0000 0.30590  0.75530  0.86737  Biso   1.000  C
  C373     1.0000 0.73030  0.48980  0.76810  Biso   1.000  C
  C374     1.0000 0.51020  0.24050  0.43477  Biso   1.000  C
  C375     1.0000 0.75950  0.26970  0.10143  Biso   1.000  C
  C376     1.0000 0.48980  0.73030  0.23190  Biso   1.000  C
  C377     1.0000 0.24050  0.51020  0.56523  Biso   1.000  C
  C378     1.0000 0.26970  0.75950  0.89857  Biso   1.000  C
  C379     1.0000 0.71440  0.53080  0.75080  Biso   1.000  C
  C380     1.0000 0.46920  0.18360  0.41747  Biso   1.000  C
  C381     1.0000 0.81640  0.28560  0.08413  Biso   1.000  C
  C382     1.0000 0.53080  0.71440  0.24920  Biso   1.000  C
  C383     1.0000 0.18360  0.46920  0.58253  Biso   1.000  C
  C384     1.0000 0.28560  0.81640  0.91587  Biso   1.000  C
  C385     1.0000 0.66220  0.53140  0.76490  Biso   1.000  C
  C386     1.0000 0.46860  0.13080  0.43157  Biso   1.000  C
  C387     1.0000 0.86920  0.33780  0.09823  Biso   1.000  C
  C388     1.0000 0.53140  0.66220  0.23510  Biso   1.000  C
  C389     1.0000 0.13080  0.46860  0.56843  Biso   1.000  C
  C390     1.0000 0.33780  0.86920  0.90177  Biso   1.000  C
  C391     1.0000 0.58130  0.50340  0.85990  Biso   1.000  C
  C392     1.0000 0.49660  0.07790  0.52657  Biso   1.000  C
  C393     1.0000 0.92210  0.41870  0.19323  Biso   1.000  C
  C394     1.0000 0.50340  0.58130  0.14010  Biso   1.000  C
  C395     1.0000 0.07790  0.49660  0.47343  Biso   1.000  C
  C396     1.0000 0.41870  0.92210  0.80677  Biso   1.000  C
  C397     1.0000 0.65250  0.59570  0.89290  Biso   1.000  C
  C398     1.0000 0.40430  0.05680  0.55957  Biso   1.000  C
  C399     1.0000 0.94320  0.34750  0.22623  Biso   1.000  C
  C400     1.0000 0.59570  0.65250  0.10710  Biso   1.000  C
  C401     1.0000 0.05680  0.40430  0.44043  Biso   1.000  C
  C402     1.0000 0.34750  0.94320  0.77377  Biso   1.000  C
  C403     1.0000 0.48430  0.47980  0.85010  Biso   1.000  C
  C404     1.0000 0.52020  0.00450  0.51677  Biso   1.000  C
  C405     1.0000 0.99550  0.51570  0.18343  Biso   1.000  C
  C406     1.0000 0.47980  0.48430  0.14990  Biso   1.000  C
  C407     1.0000 0.00450  0.52020  0.48323  Biso   1.000  C
  C408     1.0000 0.51570  0.99550  0.81657  Biso   1.000  C
  C409     1.0000 0.42470  0.45280  0.86580  Biso   1.000  C
  C410     1.0000 0.54720  0.97190  0.53247  Biso   1.000  C
  C411     1.0000 0.02810  0.57530  0.19913  Biso   1.000  C
  C412     1.0000 0.45280  0.42470  0.13420  Biso   1.000  C
  C413     1.0000 0.97190  0.54720  0.46753  Biso   1.000  C
  C414     1.0000 0.57530  0.02810  0.80087  Biso   1.000  C
  C415     1.0000 0.41170  0.42660  0.90560  Biso   1.000  C
  C416     1.0000 0.57340  0.98510  0.57227  Biso   1.000  C
  C417     1.0000 0.01490  0.58830  0.23893  Biso   1.000  C
  C418     1.0000 0.42660  0.41170  0.09440  Biso   1.000  C
  C419     1.0000 0.98510  0.57340  0.42773  Biso   1.000  C
  C420     1.0000 0.58830  0.01490  0.76107  Biso   1.000  C
  C421     1.0000 0.45930  0.42740  0.93020  Biso   1.000  C
  C422     1.0000 0.57260  0.03190  0.59687  Biso   1.000  C
  C423     1.0000 0.96810  0.54070  0.26353  Biso   1.000  C
  C424     1.0000 0.42740  0.45930  0.06980  Biso   1.000  C
  C425     1.0000 0.03190  0.57260  0.40313  Biso   1.000  C
  C426     1.0000 0.54070  0.96810  0.73647  Biso   1.000  C
  C427     1.0000 0.51860  0.45450  0.91400  Biso   1.000  C
  C428     1.0000 0.54550  0.06410  0.58067  Biso   1.000  C
  C429     1.0000 0.93590  0.48140  0.24733  Biso   1.000  C
  C430     1.0000 0.45450  0.51860  0.08600  Biso   1.000  C
  C431     1.0000 0.06410  0.54550  0.41933  Biso   1.000  C
  C432     1.0000 0.48140  0.93590  0.75267  Biso   1.000  C
  C433     1.0000 0.53090  0.48060  0.87420  Biso   1.000  C
  C434     1.0000 0.51940  0.05030  0.54087  Biso   1.000  C
  C435     1.0000 0.94970  0.46910  0.20753  Biso   1.000  C
  C436     1.0000 0.48060  0.53090  0.12580  Biso   1.000  C
  C437     1.0000 0.05030  0.51940  0.45913  Biso   1.000  C
  C438     1.0000 0.46910  0.94970  0.79247  Biso   1.000  C
  C439     1.0000 0.69350  0.65990  0.90020  Biso   1.000  C
  C440     1.0000 0.34010  0.03360  0.56687  Biso   1.000  C
  C441     1.0000 0.96640  0.30650  0.23353  Biso   1.000  C
  C442     1.0000 0.65990  0.69350  0.09980  Biso   1.000  C
  C443     1.0000 0.03360  0.34010  0.43313  Biso   1.000  C
  C444     1.0000 0.30650  0.96640  0.76647  Biso   1.000  C
  C445     1.0000 0.72860  0.67680  0.93850  Biso   1.000  C
  C446     1.0000 0.32320  0.05180  0.60517  Biso   1.000  C
  C447     1.0000 0.94820  0.27140  0.27183  Biso   1.000  C
  C448     1.0000 0.67680  0.72860  0.06150  Biso   1.000  C
  C449     1.0000 0.05180  0.32320  0.39483  Biso   1.000  C
  C450     1.0000 0.27140  0.94820  0.72817  Biso   1.000  C
  C451     1.0000 0.76070  0.73150  0.94850  Biso   1.000  C
  C452     1.0000 0.26850  0.02920  0.61517  Biso   1.000  C
  C453     1.0000 0.97080  0.23930  0.28183  Biso   1.000  C
  C454     1.0000 0.73150  0.76070  0.05150  Biso   1.000  C
  C455     1.0000 0.02920  0.26850  0.38483  Biso   1.000  C
  C456     1.0000 0.23930  0.97080  0.71817  Biso   1.000  C
  C457     1.0000 0.77490  0.78330  0.92010  Biso   1.000  C
  C458     1.0000 0.21670  0.99160  0.58677  Biso   1.000  C
  C459     1.0000 0.00840  0.22510  0.25343  Biso   1.000  C
  C460     1.0000 0.78330  0.77490  0.07990  Biso   1.000  C
  C461     1.0000 0.99160  0.21670  0.41323  Biso   1.000  C
  C462     1.0000 0.22510  0.00840  0.74657  Biso   1.000  C
  C463     1.0000 0.73930  0.76570  0.88680  Biso   1.000  C
  C464     1.0000 0.23430  0.97360  0.55347  Biso   1.000  C
  C465     1.0000 0.02640  0.26070  0.22013  Biso   1.000  C
  C466     1.0000 0.76570  0.73930  0.11320  Biso   1.000  C
  C467     1.0000 0.97360  0.23430  0.44653  Biso   1.000  C
  C468     1.0000 0.26070  0.02640  0.77987  Biso   1.000  C
  C469     1.0000 0.69640  0.70160  0.87810  Biso   1.000  C
  C470     1.0000 0.29840  0.99480  0.54477  Biso   1.000  C
  C471     1.0000 0.00520  0.30360  0.21143  Biso   1.000  C
  C472     1.0000 0.70160  0.69640  0.12190  Biso   1.000  C
  C473     1.0000 0.99480  0.29840  0.45523  Biso   1.000  C
  C474     1.0000 0.30360  0.00520  0.78857  Biso   1.000  C
  C475     1.0000 0.78050  0.87050  0.86580  Biso   1.000  C
  C476     1.0000 0.12950  0.91000  0.53247  Biso   1.000  C
  C477     1.0000 0.09000  0.21950  0.19913  Biso   1.000  C
  C478     1.0000 0.87050  0.78050  0.13420  Biso   1.000  C
  C479     1.0000 0.91000  0.12950  0.46753  Biso   1.000  C
  C480     1.0000 0.21950  0.09000  0.80087  Biso   1.000  C
  C481     1.0000 0.18130  0.94400  0.87670  Biso   1.000  C
  C482     1.0000 0.05600  0.23730  0.54337  Biso   1.000  C
  C483     1.0000 0.76270  0.81870  0.21003  Biso   1.000  C
  C484     1.0000 0.94400  0.18130  0.12330  Biso   1.000  C
  C485     1.0000 0.23730  0.05600  0.45663  Biso   1.000  C
  C486     1.0000 0.81870  0.76270  0.78997  Biso   1.000  C
  C487     1.0000 0.15650  0.87500  0.87670  Biso   1.000  C
  C488     1.0000 0.12500  0.28150  0.54337  Biso   1.000  C
  C489     1.0000 0.71850  0.84350  0.21003  Biso   1.000  C
  C490     1.0000 0.87500  0.15650  0.12330  Biso   1.000  C
  C491     1.0000 0.28150  0.12500  0.45663  Biso   1.000  C
  C492     1.0000 0.84350  0.71850  0.78997  Biso   1.000  C
  C493     1.0000 0.20540  0.86180  0.89360  Biso   1.000  C
  C494     1.0000 0.13820  0.34360  0.56027  Biso   1.000  C
  C495     1.0000 0.65640  0.79460  0.22693  Biso   1.000  C
  C496     1.0000 0.86180  0.20540  0.10640  Biso   1.000  C
  C497     1.0000 0.34360  0.13820  0.43973  Biso   1.000  C
  C498     1.0000 0.79460  0.65640  0.77307  Biso   1.000  C
  C499     1.0000 0.13980  0.85050  0.83220  Biso   1.000  C
  C500     1.0000 0.14950  0.28930  0.49887  Biso   1.000  C
  C501     1.0000 0.71070  0.86020  0.16553  Biso   1.000  C
  C502     1.0000 0.85050  0.13980  0.16780  Biso   1.000  C
  C503     1.0000 0.28930  0.14950  0.50113  Biso   1.000  C
  C504     1.0000 0.86020  0.71070  0.83447  Biso   1.000  C
  C505     1.0000 0.09960  0.84360  0.90430  Biso   1.000  C
  C506     1.0000 0.15640  0.25600  0.57097  Biso   1.000  C
  C507     1.0000 0.74400  0.90040  0.23763  Biso   1.000  C
  C508     1.0000 0.84360  0.09960  0.09570  Biso   1.000  C
  C509     1.0000 0.25600  0.15640  0.42903  Biso   1.000  C
  C510     1.0000 0.90040  0.74400  0.76237  Biso   1.000  C
  C511     1.0000 0.13290  0.96570  0.88270  Biso   1.000  C
  C512     1.0000 0.03430  0.16720  0.54937  Biso   1.000  C
  C513     1.0000 0.83280  0.86710  0.21603  Biso   1.000  C
  C514     1.0000 0.96570  0.13290  0.11730  Biso   1.000  C
  C515     1.0000 0.16720  0.03430  0.45063  Biso   1.000  C
  C516     1.0000 0.86710  0.83280  0.78397  Biso   1.000  C
  C517     1.0000 0.16140  0.02910  0.89780  Biso   1.000  C
  C518     1.0000 0.97090  0.13230  0.56447  Biso   1.000  C
  C519     1.0000 0.86770  0.83860  0.23113  Biso   1.000  C
  C520     1.0000 0.02910  0.16140  0.10220  Biso   1.000  C
  C521     1.0000 0.13230  0.97090  0.43553  Biso   1.000  C
  C522     1.0000 0.83860  0.86770  0.76887  Biso   1.000  C
  C523     1.0000 0.11740  0.04540  0.91940  Biso   1.000  C
  C524     1.0000 0.95460  0.07200  0.58607  Biso   1.000  C
  C525     1.0000 0.92800  0.88260  0.25273  Biso   1.000  C
  C526     1.0000 0.04540  0.11740  0.08060  Biso   1.000  C
  C527     1.0000 0.07200  0.95460  0.41393  Biso   1.000  C
  C528     1.0000 0.88260  0.92800  0.74727  Biso   1.000  C
  C529     1.0000 0.11550  0.03220  0.96600  Biso   1.000  C
  C530     1.0000 0.96780  0.08330  0.63267  Biso   1.000  C
  C531     1.0000 0.91670  0.88450  0.29933  Biso   1.000  C
  C532     1.0000 0.03220  0.11550  0.03400  Biso   1.000  C
  C533     1.0000 0.08330  0.96780  0.36733  Biso   1.000  C
  C534     1.0000 0.88450  0.91670  0.70067  Biso   1.000  C
  C535     1.0000 0.05340  0.00700  0.90080  Biso   1.000  C
  C536     1.0000 0.99300  0.04640  0.56747  Biso   1.000  C
  C537     1.0000 0.95360  0.94660  0.23413  Biso   1.000  C
  C538     1.0000 0.00700  0.05340  0.09920  Biso   1.000  C
  C539     1.0000 0.04640  0.99300  0.43253  Biso   1.000  C
  C540     1.0000 0.94660  0.95360  0.76587  Biso   1.000  C
  C541     1.0000 0.13950  0.11330  0.91280  Biso   1.000  C
  C542     1.0000 0.88670  0.02620  0.57947  Biso   1.000  C
  C543     1.0000 0.97380  0.86050  0.24613  Biso   1.000  C
  C544     1.0000 0.11330  0.13950  0.08720  Biso   1.000  C
  C545     1.0000 0.02620  0.88670  0.42053  Biso   1.000  C
  C546     1.0000 0.86050  0.97380  0.75387  Biso   1.000  C
  C547     1.0000 0.29040  0.03390  0.98120  Biso   1.000  C
  C548     1.0000 0.96610  0.25650  0.64787  Biso   1.000  C
  C549     1.0000 0.74350  0.70960  0.31453  Biso   1.000  C
  C550     1.0000 0.03390  0.29040  0.01880  Biso   1.000  C
  C551     1.0000 0.25650  0.96610  0.35213  Biso   1.000  C
  C552     1.0000 0.70960  0.74350  0.68547  Biso   1.000  C
  C553     1.0000 0.27430  0.98090  0.01110  Biso   1.000  C
  C554     1.0000 0.01910  0.29340  0.67777  Biso   1.000  C
  C555     1.0000 0.70660  0.72570  0.34443  Biso   1.000  C
  C556     1.0000 0.98090  0.27430  0.98890  Biso   1.000  C
  C557     1.0000 0.29340  0.01910  0.32223  Biso   1.000  C
  C558     1.0000 0.72570  0.70660  0.65557  Biso   1.000  C
  C559     1.0000 0.29750  0.94000  0.99340  Biso   1.000  C
  C560     1.0000 0.06000  0.35750  0.66007  Biso   1.000  C
  C561     1.0000 0.64250  0.70250  0.32673  Biso   1.000  C
  C562     1.0000 0.94000  0.29750  0.00660  Biso   1.000  C
  C563     1.0000 0.35750  0.06000  0.33993  Biso   1.000  C
  C564     1.0000 0.70250  0.64250  0.67327  Biso   1.000  C
  C565     1.0000 0.30440  0.00620  0.05340  Biso   1.000  C
  C566     1.0000 0.99380  0.29820  0.72007  Biso   1.000  C
  C567     1.0000 0.70180  0.69560  0.38673  Biso   1.000  C
  C568     1.0000 0.00620  0.30440  0.94660  Biso   1.000  C
  C569     1.0000 0.29820  0.99380  0.27993  Biso   1.000  C
  C570     1.0000 0.69560  0.70180  0.61327  Biso   1.000  C
  C571     1.0000 0.20490  0.94350  0.01660  Biso   1.000  C
  C572     1.0000 0.05650  0.26140  0.68327  Biso   1.000  C
  C573     1.0000 0.73860  0.79510  0.34993  Biso   1.000  C
  C574     1.0000 0.94350  0.20490  0.98340  Biso   1.000  C
  C575     1.0000 0.26140  0.05650  0.31673  Biso   1.000  C
  C576     1.0000 0.79510  0.73860  0.65007  Biso   1.000  C
  C577     1.0000 0.29990  0.08810  0.00220  Biso   1.000  C
  C578     1.0000 0.91190  0.21180  0.66887  Biso   1.000  C
  C579     1.0000 0.78820  0.70010  0.33553  Biso   1.000  C
  C580     1.0000 0.08810  0.29990  0.99780  Biso   1.000  C
  C581     1.0000 0.21180  0.91190  0.33113  Biso   1.000  C
  C582     1.0000 0.70010  0.78820  0.66447  Biso   1.000  C
  C583     1.0000 0.32160  0.14460  0.97520  Biso   1.000  C
  C584     1.0000 0.85540  0.17700  0.64187  Biso   1.000  C
  C585     1.0000 0.82300  0.67840  0.30853  Biso   1.000  C
  C586     1.0000 0.14460  0.32160  0.02480  Biso   1.000  C
  C587     1.0000 0.17700  0.85540  0.35813  Biso   1.000  C
  C588     1.0000 0.67840  0.82300  0.69147  Biso   1.000  C
  C589     1.0000 0.32930  0.20320  0.99500  Biso   1.000  C
  C590     1.0000 0.79680  0.12610  0.66167  Biso   1.000  C
  C591     1.0000 0.87390  0.67070  0.32833  Biso   1.000  C
  C592     1.0000 0.20320  0.32930  0.00500  Biso   1.000  C
  C593     1.0000 0.12610  0.79680  0.33833  Biso   1.000  C
  C594     1.0000 0.67070  0.87390  0.67167  Biso   1.000  C
  C595     1.0000 0.39450  0.24140  0.01180  Biso   1.000  C
  C596     1.0000 0.75860  0.15310  0.67847  Biso   1.000  C
  C597     1.0000 0.84690  0.60550  0.34513  Biso   1.000  C
  C598     1.0000 0.24140  0.39450  0.98820  Biso   1.000  C
  C599     1.0000 0.15310  0.75860  0.32153  Biso   1.000  C
  C600     1.0000 0.60550  0.84690  0.65487  Biso   1.000  C
  C601     1.0000 0.31750  0.24010  0.96230  Biso   1.000  C
  C602     1.0000 0.75990  0.07740  0.62897  Biso   1.000  C
  C603     1.0000 0.92260  0.68250  0.29563  Biso   1.000  C
  C604     1.0000 0.24010  0.31750  0.03770  Biso   1.000  C
  C605     1.0000 0.07740  0.75990  0.37103  Biso   1.000  C
  C606     1.0000 0.68250  0.92260  0.70437  Biso   1.000  C
  C607     1.0000 0.28370  0.18660  0.03080  Biso   1.000  C
  C608     1.0000 0.81340  0.09710  0.69747  Biso   1.000  C
  C609     1.0000 0.90290  0.71630  0.36413  Biso   1.000  C
  C610     1.0000 0.18660  0.28370  0.96920  Biso   1.000  C
  C611     1.0000 0.09710  0.81340  0.30253  Biso   1.000  C
  C612     1.0000 0.71630  0.90290  0.63587  Biso   1.000  C
