data_image0
_cell_length_a       25.27
_cell_length_b       16.41
_cell_length_c       18.57
_cell_angle_alpha    90
_cell_angle_beta     90
_cell_angle_gamma    90

_symmetry_space_group_name_H-M    "P 1"
_symmetry_int_tables_number       1

loop_
  _symmetry_equiv_pos_as_xyz
  'x, y, z'

loop_
  _atom_site_label
  _atom_site_occupancy
  _atom_site_fract_x
  _atom_site_fract_y
  _atom_site_fract_z
  _atom_site_thermal_displace_type
  _atom_site_B_iso_or_equiv
  _atom_site_type_symbol
  C1       1.0000 0.11558  0.66110  0.90180  Biso   1.000  C
  C2       1.0000 0.38442  0.33890  0.40180  Biso   1.000  C
  C3       1.0000 0.88442  0.16110  0.59820  Biso   1.000  C
  C4       1.0000 0.61558  0.83890  0.09820  Biso   1.000  C
  C5       1.0000 0.11770  0.42400  0.84420  Biso   1.000  C
  C6       1.0000 0.38230  0.57600  0.34420  Biso   1.000  C
  C7       1.0000 0.88230  0.92400  0.65580  Biso   1.000  C
  C8       1.0000 0.61770  0.07600  0.15580  Biso   1.000  C
  C9       1.0000 0.26428  0.31470  0.81270  Biso   1.000  C
  C10      1.0000 0.23572  0.68530  0.31270  Biso   1.000  C
  C11      1.0000 0.73572  0.81470  0.68730  Biso   1.000  C
  C12      1.0000 0.76428  0.18530  0.18730  Biso   1.000  C
  C13      1.0000 0.39108  0.43830  0.84170  Biso   1.000  C
  C14      1.0000 0.10892  0.56170  0.34170  Biso   1.000  C
  C15      1.0000 0.60892  0.93830  0.65830  Biso   1.000  C
  C16      1.0000 0.89108  0.06170  0.15830  Biso   1.000  C
  C17      1.0000 0.38350  0.66340  0.90380  Biso   1.000  C
  C18      1.0000 0.11650  0.33660  0.40380  Biso   1.000  C
  C19      1.0000 0.61650  0.16340  0.59620  Biso   1.000  C
  C20      1.0000 0.88350  0.83660  0.09620  Biso   1.000  C
  C21      1.0000 0.24336  0.78490  0.93320  Biso   1.000  C
  C22      1.0000 0.25664  0.21510  0.43320  Biso   1.000  C
  C23      1.0000 0.75664  0.28490  0.56680  Biso   1.000  C
  C24      1.0000 0.74336  0.71510  0.06680  Biso   1.000  C
  C25      1.0000 0.12105  0.71450  0.70820  Biso   1.000  C
  C26      1.0000 0.37895  0.28550  0.20820  Biso   1.000  C
  C27      1.0000 0.87895  0.21450  0.79180  Biso   1.000  C
  C28      1.0000 0.62105  0.78550  0.29180  Biso   1.000  C
  C29      1.0000 0.11889  0.48250  0.63980  Biso   1.000  C
  C30      1.0000 0.38111  0.51750  0.13980  Biso   1.000  C
  C31      1.0000 0.88111  0.98250  0.86020  Biso   1.000  C
  C32      1.0000 0.61889  0.01750  0.36020  Biso   1.000  C
  C33      1.0000 0.26197  0.37440  0.61720  Biso   1.000  C
  C34      1.0000 0.23803  0.62560  0.11720  Biso   1.000  C
  C35      1.0000 0.73803  0.87440  0.88280  Biso   1.000  C
  C36      1.0000 0.76197  0.12560  0.38280  Biso   1.000  C
  C37      1.0000 0.39514  0.49930  0.64220  Biso   1.000  C
  C38      1.0000 0.10486  0.50070  0.14220  Biso   1.000  C
  C39      1.0000 0.60486  0.99930  0.85780  Biso   1.000  C
  C40      1.0000 0.89514  0.00070  0.35780  Biso   1.000  C
  C41      1.0000 0.37777  0.73320  0.71130  Biso   1.000  C
  C42      1.0000 0.12223  0.26680  0.21130  Biso   1.000  C
  C43      1.0000 0.62223  0.23320  0.78870  Biso   1.000  C
  C44      1.0000 0.87777  0.76680  0.28870  Biso   1.000  C
  C45      1.0000 0.24810  0.85560  0.73420  Biso   1.000  C
  C46      1.0000 0.25190  0.14440  0.23420  Biso   1.000  C
  C47      1.0000 0.75190  0.35560  0.76580  Biso   1.000  C
  C48      1.0000 0.74810  0.64440  0.26580  Biso   1.000  C
  C49      1.0000 0.08968  0.76320  0.81460  Biso   1.000  C
  C50      1.0000 0.41032  0.23680  0.31460  Biso   1.000  C
  C51      1.0000 0.91032  0.26320  0.68540  Biso   1.000  C
  C52      1.0000 0.58968  0.73680  0.18540  Biso   1.000  C
  H1       1.0000 0.06540  0.80890  0.82240  Biso   1.000  H
  H2       1.0000 0.43460  0.19110  0.32240  Biso   1.000  H
  H3       1.0000 0.93460  0.30890  0.67760  Biso   1.000  H
  H4       1.0000 0.56540  0.69110  0.17760  Biso   1.000  H
  C53      1.0000 0.06453  0.68230  0.79810  Biso   1.000  C
  C54      1.0000 0.43547  0.31770  0.29810  Biso   1.000  C
  C55      1.0000 0.93547  0.18230  0.70190  Biso   1.000  C
  C56      1.0000 0.56453  0.81770  0.20190  Biso   1.000  C
  H5       1.0000 0.02580  0.68590  0.79960  Biso   1.000  H
  H6       1.0000 0.47420  0.31410  0.29960  Biso   1.000  H
  H7       1.0000 0.97420  0.18590  0.70040  Biso   1.000  H
  H8       1.0000 0.52580  0.81410  0.20040  Biso   1.000  H
  C57      1.0000 0.06917  0.45500  0.74030  Biso   1.000  C
  C58      1.0000 0.43083  0.54500  0.24030  Biso   1.000  C
  C59      1.0000 0.93083  0.95500  0.75970  Biso   1.000  C
  C60      1.0000 0.56917  0.04500  0.25970  Biso   1.000  C
  H9       1.0000 0.03090  0.44610  0.73750  Biso   1.000  H
  H10      1.0000 0.46910  0.55390  0.23750  Biso   1.000  H
  H11      1.0000 0.96910  0.94610  0.76250  Biso   1.000  H
  H12      1.0000 0.53090  0.05390  0.26250  Biso   1.000  H
  C61      1.0000 0.10251  0.38070  0.72790  Biso   1.000  C
  C62      1.0000 0.39749  0.61930  0.22790  Biso   1.000  C
  C63      1.0000 0.89749  0.88070  0.77210  Biso   1.000  C
  C64      1.0000 0.60251  0.11930  0.27210  Biso   1.000  C
  H13      1.0000 0.08160  0.33100  0.72140  Biso   1.000  H
  H14      1.0000 0.41840  0.66900  0.22140  Biso   1.000  H
  H15      1.0000 0.91840  0.83100  0.77860  Biso   1.000  H
  H16      1.0000 0.58160  0.16900  0.27860  Biso   1.000  H
  C65      1.0000 0.23250  0.27890  0.69930  Biso   1.000  C
  C66      1.0000 0.26750  0.72110  0.19930  Biso   1.000  C
  C67      1.0000 0.76750  0.77890  0.80070  Biso   1.000  C
  C68      1.0000 0.73250  0.22110  0.30070  Biso   1.000  C
  H17      1.0000 0.21920  0.22550  0.68400  Biso   1.000  H
  H18      1.0000 0.28080  0.77450  0.18400  Biso   1.000  H
  H19      1.0000 0.78080  0.72550  0.81600  Biso   1.000  H
  H20      1.0000 0.71920  0.27450  0.31600  Biso   1.000  H
  C69      1.0000 0.29196  0.28050  0.70240  Biso   1.000  C
  C70      1.0000 0.20804  0.71950  0.20240  Biso   1.000  C
  C71      1.0000 0.70804  0.78050  0.79760  Biso   1.000  C
  C72      1.0000 0.79196  0.21950  0.29760  Biso   1.000  C
  H21      1.0000 0.30600  0.22700  0.68900  Biso   1.000  H
  H22      1.0000 0.19400  0.77300  0.18900  Biso   1.000  H
  H23      1.0000 0.69400  0.72700  0.81100  Biso   1.000  H
  H24      1.0000 0.80600  0.27300  0.31100  Biso   1.000  H
  C73      1.0000 0.41756  0.39540  0.72290  Biso   1.000  C
  C74      1.0000 0.08244  0.60460  0.22290  Biso   1.000  C
  C75      1.0000 0.58244  0.89540  0.77710  Biso   1.000  C
  C76      1.0000 0.91756  0.10460  0.27710  Biso   1.000  C
  H25      1.0000 0.44530  0.35520  0.71290  Biso   1.000  H
  H26      1.0000 0.05470  0.64480  0.21290  Biso   1.000  H
  H27      1.0000 0.55470  0.85520  0.78710  Biso   1.000  H
  H28      1.0000 0.94530  0.14480  0.28710  Biso   1.000  H
  C77      1.0000 0.43733  0.47740  0.74680  Biso   1.000  C
  C78      1.0000 0.06267  0.52260  0.24680  Biso   1.000  C
  C79      1.0000 0.56267  0.97740  0.75320  Biso   1.000  C
  C80      1.0000 0.93733  0.02260  0.25320  Biso   1.000  C
  H29      1.0000 0.47590  0.47190  0.74610  Biso   1.000  H
  H30      1.0000 0.02410  0.52810  0.24610  Biso   1.000  H
  H31      1.0000 0.52410  0.97190  0.75390  Biso   1.000  H
  H32      1.0000 0.97590  0.02810  0.25390  Biso   1.000  H
  C81      1.0000 0.42904  0.69920  0.80370  Biso   1.000  C
  C82      1.0000 0.07096  0.30080  0.30370  Biso   1.000  C
  C83      1.0000 0.57096  0.19920  0.69630  Biso   1.000  C
  C84      1.0000 0.92904  0.80080  0.19630  Biso   1.000  C
  H33      1.0000 0.46680  0.71290  0.80360  Biso   1.000  H
  H34      1.0000 0.03320  0.28710  0.30360  Biso   1.000  H
  H35      1.0000 0.53320  0.21290  0.69640  Biso   1.000  H
  H36      1.0000 0.96680  0.78710  0.19640  Biso   1.000  H
  C85      1.0000 0.40008  0.77510  0.82600  Biso   1.000  C
  C86      1.0000 0.09992  0.22490  0.32600  Biso   1.000  C
  C87      1.0000 0.59992  0.27510  0.67400  Biso   1.000  C
  C88      1.0000 0.90008  0.72490  0.17400  Biso   1.000  C
  H37      1.0000 0.42520  0.81940  0.83550  Biso   1.000  H
  H38      1.0000 0.07480  0.18060  0.33550  Biso   1.000  H
  H39      1.0000 0.57480  0.31940  0.66450  Biso   1.000  H
  H40      1.0000 0.92520  0.68060  0.16450  Biso   1.000  H
  C89      1.0000 0.28184  0.87660  0.85080  Biso   1.000  C
  C90      1.0000 0.21816  0.12340  0.35080  Biso   1.000  C
  C91      1.0000 0.71816  0.37660  0.64920  Biso   1.000  C
  C92      1.0000 0.78184  0.62340  0.14920  Biso   1.000  C
  H41      1.0000 0.29530  0.92880  0.86870  Biso   1.000  H
  H42      1.0000 0.20470  0.07120  0.36870  Biso   1.000  H
  H43      1.0000 0.70470  0.42880  0.63130  Biso   1.000  H
  H44      1.0000 0.79530  0.57120  0.13130  Biso   1.000  H
  C93      1.0000 0.22224  0.87180  0.85350  Biso   1.000  C
  C94      1.0000 0.27776  0.12820  0.35350  Biso   1.000  C
  C95      1.0000 0.77776  0.37180  0.64650  Biso   1.000  C
  C96      1.0000 0.72224  0.62820  0.14650  Biso   1.000  C
  H45      1.0000 0.20860  0.92470  0.86950  Biso   1.000  H
  H46      1.0000 0.29140  0.07530  0.36950  Biso   1.000  H
  H47      1.0000 0.79140  0.42470  0.63050  Biso   1.000  H
  H48      1.0000 0.70860  0.57530  0.13050  Biso   1.000  H
  C97      1.0000 0.06491  0.54190  0.85860  Biso   1.000  C
  C98      1.0000 0.43509  0.45810  0.35860  Biso   1.000  C
  C99      1.0000 0.93509  0.04190  0.64140  Biso   1.000  C
  C100     1.0000 0.56491  0.95810  0.14140  Biso   1.000  C
  H49      1.0000 0.02710  0.54260  0.84980  Biso   1.000  H
  H50      1.0000 0.47290  0.45740  0.34980  Biso   1.000  H
  H51      1.0000 0.97290  0.04260  0.65020  Biso   1.000  H
  H52      1.0000 0.52710  0.95740  0.15020  Biso   1.000  H
  H53      1.0000 0.07030  0.52470  0.90800  Biso   1.000  H
  H54      1.0000 0.42970  0.47530  0.40800  Biso   1.000  H
  H55      1.0000 0.92970  0.02470  0.59200  Biso   1.000  H
  H56      1.0000 0.57030  0.97530  0.09200  Biso   1.000  H
  C101     1.0000 0.16802  0.30200  0.80510  Biso   1.000  C
  C102     1.0000 0.33198  0.69800  0.30510  Biso   1.000  C
  C103     1.0000 0.83198  0.80200  0.69490  Biso   1.000  C
  C104     1.0000 0.66802  0.19800  0.19490  Biso   1.000  C
  H57      1.0000 0.14770  0.25540  0.78890  Biso   1.000  H
  H58      1.0000 0.35230  0.74460  0.28890  Biso   1.000  H
  H59      1.0000 0.85230  0.75540  0.71110  Biso   1.000  H
  H60      1.0000 0.64770  0.24460  0.21110  Biso   1.000  H
  H61      1.0000 0.17160  0.29700  0.85700  Biso   1.000  H
  H62      1.0000 0.32840  0.70300  0.35700  Biso   1.000  H
  H63      1.0000 0.82840  0.79700  0.64300  Biso   1.000  H
  H64      1.0000 0.67160  0.20300  0.14300  Biso   1.000  H
  C105     1.0000 0.36208  0.30410  0.80430  Biso   1.000  C
  C106     1.0000 0.13792  0.69590  0.30430  Biso   1.000  C
  C107     1.0000 0.63792  0.80410  0.69570  Biso   1.000  C
  C108     1.0000 0.86208  0.19590  0.19570  Biso   1.000  C
  H65      1.0000 0.38290  0.26030  0.78380  Biso   1.000  H
  H66      1.0000 0.11710  0.73970  0.28380  Biso   1.000  H
  H67      1.0000 0.61710  0.76030  0.71620  Biso   1.000  H
  H68      1.0000 0.88290  0.23970  0.21620  Biso   1.000  H
  H69      1.0000 0.36050  0.29580  0.85600  Biso   1.000  H
  H70      1.0000 0.13950  0.70420  0.35600  Biso   1.000  H
  H71      1.0000 0.63950  0.79580  0.64400  Biso   1.000  H
  H72      1.0000 0.86050  0.20420  0.14400  Biso   1.000  H
  C109     1.0000 0.45017  0.55960  0.86550  Biso   1.000  C
  C110     1.0000 0.04983  0.44040  0.36550  Biso   1.000  C
  C111     1.0000 0.54983  0.05960  0.63450  Biso   1.000  C
  C112     1.0000 0.95017  0.94040  0.13450  Biso   1.000  C
  H73      1.0000 0.48670  0.56650  0.85080  Biso   1.000  H
  H74      1.0000 0.01330  0.43350  0.35080  Biso   1.000  H
  H75      1.0000 0.51330  0.06650  0.64920  Biso   1.000  H
  H76      1.0000 0.98670  0.93350  0.14920  Biso   1.000  H
  H77      1.0000 0.44970  0.54230  0.91540  Biso   1.000  H
  H78      1.0000 0.05030  0.45770  0.41540  Biso   1.000  H
  H79      1.0000 0.55030  0.04230  0.58460  Biso   1.000  H
  H80      1.0000 0.94970  0.95770  0.08460  Biso   1.000  H
  C113     1.0000 0.34299  0.80200  0.93010  Biso   1.000  C
  C114     1.0000 0.15701  0.19800  0.43010  Biso   1.000  C
  C115     1.0000 0.65701  0.30200  0.56990  Biso   1.000  C
  C116     1.0000 0.84299  0.69800  0.06990  Biso   1.000  C
  H81      1.0000 0.35970  0.85530  0.92960  Biso   1.000  H
  H82      1.0000 0.14030  0.14470  0.42960  Biso   1.000  H
  H83      1.0000 0.64030  0.35530  0.57040  Biso   1.000  H
  H84      1.0000 0.85970  0.64470  0.07040  Biso   1.000  H
  H85      1.0000 0.34040  0.78500  0.98000  Biso   1.000  H
  H86      1.0000 0.15960  0.21500  0.48000  Biso   1.000  H
  H87      1.0000 0.65960  0.28500  0.52000  Biso   1.000  H
  H88      1.0000 0.84040  0.71500  0.02000  Biso   1.000  H
  C117     1.0000 0.14854  0.78870  0.92870  Biso   1.000  C
  C118     1.0000 0.35146  0.21130  0.42870  Biso   1.000  C
  C119     1.0000 0.85146  0.28870  0.57130  Biso   1.000  C
  C120     1.0000 0.64854  0.71130  0.07130  Biso   1.000  C
  H89      1.0000 0.12830  0.83790  0.93790  Biso   1.000  H
  H90      1.0000 0.37170  0.16210  0.43790  Biso   1.000  H
  H91      1.0000 0.87170  0.33790  0.56210  Biso   1.000  H
  H92      1.0000 0.62830  0.66210  0.06210  Biso   1.000  H
  H93      1.0000 0.15300  0.75970  0.97380  Biso   1.000  H
  H94      1.0000 0.34700  0.24030  0.47380  Biso   1.000  H
  H95      1.0000 0.84700  0.25970  0.52620  Biso   1.000  H
  H96      1.0000 0.65300  0.74030  0.02620  Biso   1.000  H
  C121     1.0000 0.06505  0.59560  0.67790  Biso   1.000  C
  C122     1.0000 0.43495  0.40440  0.17790  Biso   1.000  C
  C123     1.0000 0.93495  0.09560  0.82210  Biso   1.000  C
  C124     1.0000 0.56505  0.90440  0.32210  Biso   1.000  C
  H97      1.0000 0.02700  0.58990  0.68220  Biso   1.000  H
  H98      1.0000 0.47300  0.41010  0.18220  Biso   1.000  H
  H99      1.0000 0.97300  0.08990  0.81780  Biso   1.000  H
  H100     1.0000 0.52700  0.91010  0.31780  Biso   1.000  H
  H101     1.0000 0.07290  0.61160  0.62880  Biso   1.000  H
  H102     1.0000 0.42710  0.38840  0.12880  Biso   1.000  H
  H103     1.0000 0.92710  0.11160  0.87120  Biso   1.000  H
  H104     1.0000 0.57290  0.88840  0.37120  Biso   1.000  H
  C125     1.0000 0.16329  0.34650  0.62420  Biso   1.000  C
  C126     1.0000 0.33671  0.65350  0.12420  Biso   1.000  C
  C127     1.0000 0.83671  0.84650  0.87580  Biso   1.000  C
  C128     1.0000 0.66329  0.15350  0.37580  Biso   1.000  C
  H105     1.0000 0.16370  0.35950  0.57330  Biso   1.000  H
  H106     1.0000 0.33630  0.64050  0.07330  Biso   1.000  H
  H107     1.0000 0.83630  0.85950  0.92670  Biso   1.000  H
  H108     1.0000 0.66370  0.14050  0.42670  Biso   1.000  H
  H109     1.0000 0.14820  0.29240  0.62890  Biso   1.000  H
  H110     1.0000 0.35180  0.70760  0.12890  Biso   1.000  H
  H111     1.0000 0.85180  0.79240  0.87110  Biso   1.000  H
  H112     1.0000 0.64820  0.20760  0.37110  Biso   1.000  H
  C129     1.0000 0.35992  0.35550  0.62140  Biso   1.000  C
  C130     1.0000 0.14008  0.64450  0.12140  Biso   1.000  C
  C131     1.0000 0.64008  0.85550  0.87860  Biso   1.000  C
  C132     1.0000 0.85992  0.14450  0.37860  Biso   1.000  C
  H113     1.0000 0.38040  0.30580  0.62610  Biso   1.000  H
  H114     1.0000 0.11960  0.69420  0.12610  Biso   1.000  H
  H115     1.0000 0.61960  0.80580  0.87390  Biso   1.000  H
  H116     1.0000 0.88040  0.19420  0.37390  Biso   1.000  H
  H117     1.0000 0.35850  0.36940  0.57070  Biso   1.000  H
  H118     1.0000 0.14150  0.63060  0.07070  Biso   1.000  H
  H119     1.0000 0.64150  0.86940  0.92930  Biso   1.000  H
  H120     1.0000 0.85850  0.13060  0.42930  Biso   1.000  H
  C133     1.0000 0.43769  0.62250  0.67480  Biso   1.000  C
  C134     1.0000 0.06231  0.37750  0.17480  Biso   1.000  C
  C135     1.0000 0.56231  0.12250  0.82520  Biso   1.000  C
  C136     1.0000 0.93769  0.87750  0.32520  Biso   1.000  C
  H121     1.0000 0.42310  0.63560  0.62790  Biso   1.000  H
  H122     1.0000 0.07690  0.36440  0.12790  Biso   1.000  H
  H123     1.0000 0.57690  0.13560  0.87210  Biso   1.000  H
  H124     1.0000 0.92310  0.86440  0.37210  Biso   1.000  H
  H125     1.0000 0.47570  0.63040  0.67260  Biso   1.000  H
  H126     1.0000 0.02430  0.36960  0.17260  Biso   1.000  H
  H127     1.0000 0.52430  0.13040  0.82740  Biso   1.000  H
  H128     1.0000 0.97570  0.86960  0.32740  Biso   1.000  H
  C137     1.0000 0.34843  0.87450  0.75430  Biso   1.000  C
  C138     1.0000 0.15157  0.12550  0.25430  Biso   1.000  C
  C139     1.0000 0.65157  0.37450  0.74570  Biso   1.000  C
  C140     1.0000 0.84843  0.62550  0.24570  Biso   1.000  C
  H129     1.0000 0.35160  0.89350  0.70500  Biso   1.000  H
  H130     1.0000 0.14840  0.10650  0.20500  Biso   1.000  H
  H131     1.0000 0.64840  0.39350  0.79500  Biso   1.000  H
  H132     1.0000 0.85160  0.60650  0.29500  Biso   1.000  H
  H133     1.0000 0.36650  0.91230  0.78600  Biso   1.000  H
  H134     1.0000 0.13350  0.08770  0.28600  Biso   1.000  H
  H135     1.0000 0.63350  0.41230  0.71400  Biso   1.000  H
  H136     1.0000 0.86650  0.58770  0.21400  Biso   1.000  H
  C141     1.0000 0.15088  0.85310  0.74360  Biso   1.000  C
  C142     1.0000 0.34912  0.14690  0.24360  Biso   1.000  C
  C143     1.0000 0.84912  0.35310  0.75640  Biso   1.000  C
  C144     1.0000 0.65088  0.64690  0.25640  Biso   1.000  C
  H137     1.0000 0.12880  0.89470  0.76550  Biso   1.000  H
  H138     1.0000 0.37120  0.10530  0.26550  Biso   1.000  H
  H139     1.0000 0.87120  0.39470  0.73450  Biso   1.000  H
  H140     1.0000 0.62880  0.60530  0.23450  Biso   1.000  H
  H141     1.0000 0.15210  0.86310  0.69210  Biso   1.000  H
  H142     1.0000 0.34790  0.13690  0.19210  Biso   1.000  H
  H143     1.0000 0.84790  0.36310  0.80790  Biso   1.000  H
  H144     1.0000 0.65210  0.63690  0.30790  Biso   1.000  H
  C145     1.0000 0.78994  0.54030  0.91240  Biso   1.000  C
  C146     1.0000 0.71006  0.45970  0.41240  Biso   1.000  C
  C147     1.0000 0.21006  0.04030  0.58760  Biso   1.000  C
  C148     1.0000 0.28994  0.95970  0.08760  Biso   1.000  C
  H145     1.0000 0.81860  0.53470  0.94350  Biso   1.000  H
  H146     1.0000 0.68140  0.46530  0.44350  Biso   1.000  H
  H147     1.0000 0.18140  0.03470  0.55650  Biso   1.000  H
  H148     1.0000 0.31860  0.96530  0.05650  Biso   1.000  H
  C149     1.0000 0.73955  0.53880  0.93800  Biso   1.000  C
  C150     1.0000 0.76045  0.46120  0.43800  Biso   1.000  C
  C151     1.0000 0.26045  0.03880  0.56200  Biso   1.000  C
  C152     1.0000 0.23955  0.96120  0.06200  Biso   1.000  C
  H149     1.0000 0.73470  0.53010  0.98710  Biso   1.000  H
  H150     1.0000 0.76530  0.46990  0.48710  Biso   1.000  H
  H151     1.0000 0.26530  0.03010  0.51290  Biso   1.000  H
  H152     1.0000 0.23470  0.96990  0.01290  Biso   1.000  H
  C153     1.0000 0.69469  0.54930  0.89540  Biso   1.000  C
  C154     1.0000 0.80531  0.45070  0.39540  Biso   1.000  C
  C155     1.0000 0.30531  0.04930  0.60460  Biso   1.000  C
  C156     1.0000 0.19469  0.95070  0.10460  Biso   1.000  C
  H153     1.0000 0.66090  0.54370  0.91470  Biso   1.000  H
  H154     1.0000 0.83910  0.45630  0.41470  Biso   1.000  H
  H155     1.0000 0.33910  0.04370  0.58530  Biso   1.000  H
  H156     1.0000 0.16090  0.95630  0.08530  Biso   1.000  H
  C157     1.0000 0.70173  0.56760  0.82640  Biso   1.000  C
  C158     1.0000 0.79827  0.43240  0.32640  Biso   1.000  C
  C159     1.0000 0.29827  0.06760  0.67360  Biso   1.000  C
  C160     1.0000 0.20173  0.93240  0.17360  Biso   1.000  C
  C161     1.0000 0.66199  0.58130  0.77570  Biso   1.000  C
  C162     1.0000 0.83801  0.41870  0.27570  Biso   1.000  C
  C163     1.0000 0.33801  0.08130  0.72430  Biso   1.000  C
  C164     1.0000 0.16199  0.91870  0.22430  Biso   1.000  C
  C165     1.0000 0.67207  0.59970  0.70210  Biso   1.000  C
  C166     1.0000 0.82793  0.40030  0.20210  Biso   1.000  C
  C167     1.0000 0.32793  0.09970  0.79790  Biso   1.000  C
  C168     1.0000 0.17207  0.90030  0.29790  Biso   1.000  C
  H157     1.0000 0.64390  0.61480  0.67280  Biso   1.000  H
  H158     1.0000 0.85610  0.38520  0.17280  Biso   1.000  H
  H159     1.0000 0.35610  0.11480  0.82720  Biso   1.000  H
  H160     1.0000 0.14390  0.88520  0.32720  Biso   1.000  H
  C169     1.0000 0.72614  0.59580  0.67010  Biso   1.000  C
  C170     1.0000 0.77386  0.40420  0.17010  Biso   1.000  C
  C171     1.0000 0.27386  0.09580  0.82990  Biso   1.000  C
  C172     1.0000 0.22614  0.90420  0.32990  Biso   1.000  C
  H161     1.0000 0.73210  0.60150  0.62100  Biso   1.000  H
  H162     1.0000 0.76790  0.39850  0.12100  Biso   1.000  H
  H163     1.0000 0.26790  0.10150  0.87900  Biso   1.000  H
  H164     1.0000 0.23210  0.89850  0.37900  Biso   1.000  H
  C173     1.0000 0.76801  0.58260  0.72030  Biso   1.000  C
  C174     1.0000 0.73199  0.41740  0.22030  Biso   1.000  C
  C175     1.0000 0.23199  0.08260  0.77970  Biso   1.000  C
  C176     1.0000 0.26801  0.91740  0.27970  Biso   1.000  C
  C177     1.0000 0.75399  0.56190  0.79430  Biso   1.000  C
  C178     1.0000 0.74601  0.43810  0.29430  Biso   1.000  C
  C179     1.0000 0.24601  0.06190  0.70570  Biso   1.000  C
  C180     1.0000 0.25399  0.93810  0.20570  Biso   1.000  C
  C181     1.0000 0.92288  0.64320  0.87110  Biso   1.000  C
  C182     1.0000 0.57712  0.35680  0.37110  Biso   1.000  C
  C183     1.0000 0.07712  0.14320  0.62890  Biso   1.000  C
  C184     1.0000 0.42288  0.85680  0.12890  Biso   1.000  C
  C185     1.0000 0.95322  0.67790  0.93350  Biso   1.000  C
  C186     1.0000 0.54678  0.32210  0.43350  Biso   1.000  C
  C187     1.0000 0.04678  0.17790  0.56650  Biso   1.000  C
  C188     1.0000 0.45322  0.82210  0.06650  Biso   1.000  C
  C189     1.0000 0.96444  0.76240  0.91920  Biso   1.000  C
  C190     1.0000 0.53556  0.23760  0.41920  Biso   1.000  C
  C191     1.0000 0.03556  0.26240  0.58080  Biso   1.000  C
  C192     1.0000 0.46444  0.73760  0.08080  Biso   1.000  C
  H165     1.0000 0.95100  0.79080  0.88000  Biso   1.000  H
  H166     1.0000 0.54900  0.20920  0.38000  Biso   1.000  H
  H167     1.0000 0.04900  0.29080  0.62000  Biso   1.000  H
  H168     1.0000 0.45100  0.70920  0.12000  Biso   1.000  H
  C193     1.0000 0.99781  0.79830  0.97140  Biso   1.000  C
  C194     1.0000 0.50219  0.20170  0.47140  Biso   1.000  C
  C195     1.0000 0.00219  0.29830  0.52860  Biso   1.000  C
  C196     1.0000 0.49781  0.70170  0.02860  Biso   1.000  C
  C197     1.0000 0.01981  0.75060  0.03260  Biso   1.000  C
  C198     1.0000 0.48019  0.24940  0.53260  Biso   1.000  C
  C199     1.0000 0.98019  0.25060  0.46740  Biso   1.000  C
  C200     1.0000 0.51981  0.74940  0.96740  Biso   1.000  C
  H169     1.0000 0.04200  0.77520  0.06610  Biso   1.000  H
  H170     1.0000 0.45800  0.22480  0.56610  Biso   1.000  H
  H171     1.0000 0.95800  0.27520  0.43390  Biso   1.000  H
  H172     1.0000 0.54200  0.72480  0.93390  Biso   1.000  H
  C201     1.0000 0.00675  0.66900  0.03870  Biso   1.000  C
  C202     1.0000 0.49325  0.33100  0.53870  Biso   1.000  C
  C203     1.0000 0.99325  0.16900  0.46130  Biso   1.000  C
  C204     1.0000 0.50675  0.83100  0.96130  Biso   1.000  C
  H173     1.0000 0.01910  0.63900  0.07770  Biso   1.000  H
  H174     1.0000 0.48090  0.36100  0.57770  Biso   1.000  H
  H175     1.0000 0.98090  0.13900  0.42230  Biso   1.000  H
  H176     1.0000 0.51910  0.86100  0.92230  Biso   1.000  H
  C205     1.0000 0.97306  0.62900  0.98340  Biso   1.000  C
  C206     1.0000 0.52694  0.37100  0.48340  Biso   1.000  C
  C207     1.0000 0.02694  0.12900  0.51660  Biso   1.000  C
  C208     1.0000 0.47306  0.87100  0.01660  Biso   1.000  C
  H177     1.0000 0.96630  0.57330  0.98390  Biso   1.000  H
  H178     1.0000 0.53370  0.42670  0.48390  Biso   1.000  H
  H179     1.0000 0.03370  0.07330  0.51610  Biso   1.000  H
  H180     1.0000 0.46630  0.92670  0.01610  Biso   1.000  H
  Cl1      1.0000 0.93264  0.52493  0.71346  Biso   1.000  Cl
  Cl2      1.0000 0.56736  0.47507  0.21346  Biso   1.000  Cl
  Cl3      1.0000 0.06736  0.02493  0.78654  Biso   1.000  Cl
  Cl4      1.0000 0.43264  0.97507  0.28654  Biso   1.000  Cl
  Cu1      1.0000 0.86507  0.55926  0.78521  Biso   1.000  Cu
  Cu2      1.0000 0.63493  0.44074  0.28521  Biso   1.000  Cu
  Cu3      1.0000 0.13493  0.05926  0.71479  Biso   1.000  Cu
  Cu4      1.0000 0.36507  0.94074  0.21479  Biso   1.000  Cu
  I1       1.0000 0.02025  0.91925  0.96037  Biso   1.000  I
  I2       1.0000 0.47975  0.08075  0.46037  Biso   1.000  I
  I3       1.0000 0.97975  0.41925  0.53963  Biso   1.000  I
  I4       1.0000 0.52025  0.58075  0.03963  Biso   1.000  I
  N1       1.0000 0.12100  0.73770  0.87680  Biso   1.000  N
  N2       1.0000 0.37900  0.26230  0.37680  Biso   1.000  N
  N3       1.0000 0.87900  0.23770  0.62320  Biso   1.000  N
  N4       1.0000 0.62100  0.76230  0.12320  Biso   1.000  N
  N5       1.0000 0.08462  0.62290  0.85100  Biso   1.000  N
  N6       1.0000 0.41538  0.37710  0.35100  Biso   1.000  N
  N7       1.0000 0.91538  0.12290  0.64900  Biso   1.000  N
  N8       1.0000 0.58462  0.87710  0.14900  Biso   1.000  N
  N9       1.0000 0.08891  0.48150  0.81110  Biso   1.000  N
  N10      1.0000 0.41109  0.51850  0.31110  Biso   1.000  N
  N11      1.0000 0.91109  0.98150  0.68890  Biso   1.000  N
  N12      1.0000 0.58891  0.01850  0.18890  Biso   1.000  N
  N13      1.0000 0.13678  0.37400  0.79110  Biso   1.000  N
  N14      1.0000 0.36322  0.62600  0.29110  Biso   1.000  N
  N15      1.0000 0.86322  0.87400  0.70890  Biso   1.000  N
  N16      1.0000 0.63678  0.12600  0.20890  Biso   1.000  N
  N17      1.0000 0.22043  0.29500  0.77438  Biso   1.000  N
  N18      1.0000 0.27957  0.70500  0.27438  Biso   1.000  N
  N19      1.0000 0.77957  0.79500  0.72562  Biso   1.000  N
  N20      1.0000 0.72043  0.20500  0.22562  Biso   1.000  N
  N21      1.0000 0.30896  0.30130  0.77480  Biso   1.000  N
  N22      1.0000 0.19104  0.69870  0.27480  Biso   1.000  N
  N23      1.0000 0.69104  0.80130  0.72520  Biso   1.000  N
  N24      1.0000 0.80896  0.19870  0.22520  Biso   1.000  N
  N25      1.0000 0.38795  0.38170  0.78940  Biso   1.000  N
  N26      1.0000 0.11205  0.61830  0.28940  Biso   1.000  N
  N27      1.0000 0.61205  0.88170  0.71060  Biso   1.000  N
  N28      1.0000 0.88795  0.11830  0.21060  Biso   1.000  N
  N29      1.0000 0.42510  0.49890  0.82112  Biso   1.000  N
  N30      1.0000 0.07490  0.50110  0.32112  Biso   1.000  N
  N31      1.0000 0.57490  0.99890  0.67888  Biso   1.000  N
  N32      1.0000 0.92510  0.00110  0.17888  Biso   1.000  N
  N33      1.0000 0.42190  0.63620  0.85800  Biso   1.000  N
  N34      1.0000 0.07810  0.36380  0.35800  Biso   1.000  N
  N35      1.0000 0.57810  0.13620  0.64200  Biso   1.000  N
  N36      1.0000 0.92190  0.86380  0.14200  Biso   1.000  N
  N37      1.0000 0.37766  0.74530  0.89290  Biso   1.000  N
  N38      1.0000 0.12234  0.25470  0.39290  Biso   1.000  N
  N39      1.0000 0.62234  0.24530  0.60710  Biso   1.000  N
  N40      1.0000 0.87766  0.75470  0.10710  Biso   1.000  N
  N41      1.0000 0.28961  0.81080  0.90180  Biso   1.000  N
  N42      1.0000 0.21039  0.18920  0.40180  Biso   1.000  N
  N43      1.0000 0.71039  0.31080  0.59820  Biso   1.000  N
  N44      1.0000 0.78961  0.68920  0.09820  Biso   1.000  N
  N45      1.0000 0.19963  0.80920  0.89830  Biso   1.000  N
  N46      1.0000 0.30037  0.19080  0.39830  Biso   1.000  N
  N47      1.0000 0.80037  0.30920  0.60170  Biso   1.000  N
  N48      1.0000 0.69963  0.69080  0.10170  Biso   1.000  N
  N49      1.0000 0.12891  0.77380  0.75740  Biso   1.000  N
  N50      1.0000 0.37109  0.22620  0.25740  Biso   1.000  N
  N51      1.0000 0.87109  0.27380  0.74260  Biso   1.000  N
  N52      1.0000 0.62891  0.72620  0.24260  Biso   1.000  N
  N53      1.0000 0.08301  0.65970  0.72700  Biso   1.000  N
  N54      1.0000 0.41699  0.34030  0.22700  Biso   1.000  N
  N55      1.0000 0.91699  0.15970  0.77300  Biso   1.000  N
  N56      1.0000 0.58301  0.84030  0.27300  Biso   1.000  N
  N57      1.0000 0.08976  0.51760  0.69250  Biso   1.000  N
  N58      1.0000 0.41024  0.48240  0.19250  Biso   1.000  N
  N59      1.0000 0.91024  0.01760  0.80750  Biso   1.000  N
  N60      1.0000 0.58976  0.98240  0.30750  Biso   1.000  N
  N61      1.0000 0.12778  0.40280  0.65890  Biso   1.000  N
  N62      1.0000 0.37222  0.59720  0.15890  Biso   1.000  N
  N63      1.0000 0.87222  0.90280  0.84110  Biso   1.000  N
  N64      1.0000 0.62778  0.09720  0.34110  Biso   1.000  N
  N65      1.0000 0.21806  0.34250  0.64870  Biso   1.000  N
  N66      1.0000 0.28194  0.65750  0.14870  Biso   1.000  N
  N67      1.0000 0.78194  0.84250  0.85130  Biso   1.000  N
  N68      1.0000 0.71806  0.15750  0.35130  Biso   1.000  N
  N69      1.0000 0.30623  0.34060  0.64738  Biso   1.000  N
  N70      1.0000 0.19377  0.65940  0.14738  Biso   1.000  N
  N71      1.0000 0.69377  0.84060  0.85262  Biso   1.000  N
  N72      1.0000 0.80623  0.15940  0.35262  Biso   1.000  N
  N73      1.0000 0.38684  0.42060  0.66010  Biso   1.000  N
  N74      1.0000 0.11316  0.57940  0.16010  Biso   1.000  N
  N75      1.0000 0.61316  0.92060  0.83990  Biso   1.000  N
  N76      1.0000 0.88684  0.07940  0.33990  Biso   1.000  N
  N77      1.0000 0.42620  0.53860  0.69219  Biso   1.000  N
  N78      1.0000 0.07380  0.46140  0.19219  Biso   1.000  N
  N79      1.0000 0.57380  0.03860  0.80781  Biso   1.000  N
  N80      1.0000 0.92620  0.96140  0.30781  Biso   1.000  N
  N81      1.0000 0.41518  0.67660  0.72870  Biso   1.000  N
  N82      1.0000 0.08482  0.32340  0.22870  Biso   1.000  N
  N83      1.0000 0.58482  0.17660  0.77130  Biso   1.000  N
  N84      1.0000 0.91518  0.82340  0.27130  Biso   1.000  N
  N85      1.0000 0.36896  0.79290  0.76210  Biso   1.000  N
  N86      1.0000 0.13104  0.20710  0.26210  Biso   1.000  N
  N87      1.0000 0.63104  0.29290  0.73790  Biso   1.000  N
  N88      1.0000 0.86896  0.70710  0.23790  Biso   1.000  N
  N89      1.0000 0.29309  0.86450  0.77480  Biso   1.000  N
  N90      1.0000 0.20691  0.13550  0.27480  Biso   1.000  N
  N91      1.0000 0.70691  0.36450  0.72520  Biso   1.000  N
  N92      1.0000 0.79309  0.63550  0.22520  Biso   1.000  N
  N93      1.0000 0.20351  0.85710  0.77320  Biso   1.000  N
  N94      1.0000 0.29649  0.14290  0.27320  Biso   1.000  N
  N95      1.0000 0.79649  0.35710  0.72680  Biso   1.000  N
  N96      1.0000 0.70351  0.64290  0.22680  Biso   1.000  N
  N97      1.0000 0.79725  0.54960  0.84420  Biso   1.000  N
  N98      1.0000 0.70275  0.45040  0.34420  Biso   1.000  N
  N99      1.0000 0.20275  0.04960  0.65580  Biso   1.000  N
  N100     1.0000 0.29725  0.95040  0.15580  Biso   1.000  N
  Na1      1.0000 0.18517  0.50514  0.98774  Biso   1.000  Na
  Na2      1.0000 0.31483  0.49486  0.48774  Biso   1.000  Na
  Na3      1.0000 0.81483  0.00514  0.51226  Biso   1.000  Na
  Na4      1.0000 0.68517  0.99486  0.01226  Biso   1.000  Na
  Na5      1.0000 0.31395  0.50813  0.98684  Biso   1.000  Na
  Na6      1.0000 0.18605  0.49187  0.48684  Biso   1.000  Na
  Na7      1.0000 0.68605  0.00813  0.51316  Biso   1.000  Na
  Na8      1.0000 0.81395  0.99187  0.01316  Biso   1.000  Na
  O1       1.0000 0.13289  0.61853  0.95205  Biso   1.000  O
  O2       1.0000 0.36711  0.38147  0.45205  Biso   1.000  O
  O3       1.0000 0.86711  0.11853  0.54795  Biso   1.000  O
  O4       1.0000 0.63289  0.88147  0.04795  Biso   1.000  O
  O5       1.0000 0.13708  0.42931  0.90685  Biso   1.000  O
  O6       1.0000 0.36292  0.57069  0.40685  Biso   1.000  O
  O7       1.0000 0.86292  0.92931  0.59315  Biso   1.000  O
  O8       1.0000 0.63708  0.07069  0.09315  Biso   1.000  O
  O9       1.0000 0.25876  0.31207  0.87968  Biso   1.000  O
  O10      1.0000 0.24124  0.68793  0.37968  Biso   1.000  O
  O11      1.0000 0.74124  0.81207  0.62032  Biso   1.000  O
  O12      1.0000 0.75876  0.18793  0.12032  Biso   1.000  O
  O13      1.0000 0.36910  0.43362  0.90180  Biso   1.000  O
  O14      1.0000 0.13090  0.56638  0.40180  Biso   1.000  O
  O15      1.0000 0.63090  0.93362  0.59820  Biso   1.000  O
  O16      1.0000 0.86910  0.06638  0.09820  Biso   1.000  O
  O17      1.0000 0.36710  0.62692  0.95826  Biso   1.000  O
  O18      1.0000 0.13290  0.37308  0.45826  Biso   1.000  O
  O19      1.0000 0.63290  0.12692  0.54174  Biso   1.000  O
  O20      1.0000 0.86710  0.87308  0.04174  Biso   1.000  O
  O21      1.0000 0.24716  0.72460  0.97350  Biso   1.000  O
  O22      1.0000 0.25284  0.27540  0.47350  Biso   1.000  O
  O23      1.0000 0.75284  0.22460  0.52650  Biso   1.000  O
  O24      1.0000 0.74716  0.77540  0.02650  Biso   1.000  O
  O25      1.0000 0.13934  0.70820  0.64610  Biso   1.000  O
  O26      1.0000 0.36066  0.29180  0.14610  Biso   1.000  O
  O27      1.0000 0.86066  0.20820  0.85390  Biso   1.000  O
  O28      1.0000 0.63934  0.79180  0.35390  Biso   1.000  O
  O29      1.0000 0.14056  0.51290  0.58574  Biso   1.000  O
  O30      1.0000 0.35944  0.48710  0.08574  Biso   1.000  O
  O31      1.0000 0.85944  0.01290  0.91426  Biso   1.000  O
  O32      1.0000 0.64056  0.98710  0.41426  Biso   1.000  O
  O33      1.0000 0.26109  0.42784  0.56983  Biso   1.000  O
  O34      1.0000 0.23891  0.57216  0.06983  Biso   1.000  O
  O35      1.0000 0.73891  0.92784  0.93017  Biso   1.000  O
  O36      1.0000 0.76109  0.07216  0.43017  Biso   1.000  O
  O37      1.0000 0.37053  0.52220  0.58871  Biso   1.000  O
  O38      1.0000 0.12947  0.47780  0.08871  Biso   1.000  O
  O39      1.0000 0.62947  0.02220  0.91129  Biso   1.000  O
  O40      1.0000 0.87053  0.97780  0.41129  Biso   1.000  O
  O41      1.0000 0.36003  0.73462  0.64897  Biso   1.000  O
  O42      1.0000 0.13997  0.26538  0.14897  Biso   1.000  O
  O43      1.0000 0.63997  0.23462  0.85103  Biso   1.000  O
  O44      1.0000 0.86003  0.76538  0.35103  Biso   1.000  O
  O45      1.0000 0.25266  0.84058  0.66803  Biso   1.000  O
  O46      1.0000 0.24734  0.15942  0.16803  Biso   1.000  O
  O47      1.0000 0.74734  0.34058  0.83197  Biso   1.000  O
  O48      1.0000 0.75266  0.65942  0.33197  Biso   1.000  O
  O49      1.0000 0.81913  0.57519  0.70201  Biso   1.000  O
  O50      1.0000 0.68087  0.42481  0.20201  Biso   1.000  O
  O51      1.0000 0.18087  0.07519  0.79799  Biso   1.000  O
  O52      1.0000 0.31913  0.92481  0.29799  Biso   1.000  O
  O53      1.0000 0.57920  0.51828  0.83697  Biso   1.000  O
  O54      1.0000 0.92080  0.48172  0.33697  Biso   1.000  O
  O55      1.0000 0.42080  0.01828  0.66303  Biso   1.000  O
  O56      1.0000 0.07920  0.98172  0.16303  Biso   1.000  O
  O57      1.0000 0.59384  0.65740  0.84439  Biso   1.000  O
  O58      1.0000 0.90616  0.34260  0.34439  Biso   1.000  O
  O59      1.0000 0.40616  0.15740  0.65561  Biso   1.000  O
  O60      1.0000 0.09384  0.84260  0.15561  Biso   1.000  O
  O61      1.0000 0.56742  0.60700  0.73096  Biso   1.000  O
  O62      1.0000 0.93258  0.39300  0.23096  Biso   1.000  O
  O63      1.0000 0.43258  0.10700  0.76904  Biso   1.000  O
  O64      1.0000 0.06742  0.89300  0.26904  Biso   1.000  O
  O65      1.0000 0.91057  0.56411  0.87428  Biso   1.000  O
  O66      1.0000 0.58943  0.43589  0.37428  Biso   1.000  O
  O67      1.0000 0.08943  0.06411  0.62572  Biso   1.000  O
  O68      1.0000 0.41057  0.93589  0.12572  Biso   1.000  O
  O69      1.0000 0.89802  0.68678  0.82849  Biso   1.000  O
  O70      1.0000 0.60198  0.31322  0.32849  Biso   1.000  O
  O71      1.0000 0.10198  0.18678  0.67151  Biso   1.000  O
  O72      1.0000 0.39802  0.81322  0.17151  Biso   1.000  O
  O73      1.0000 0.24825  0.56551  0.90580  Biso   1.000  O
  O74      1.0000 0.25175  0.43449  0.40580  Biso   1.000  O
  O75      1.0000 0.75175  0.06551  0.59420  Biso   1.000  O
  O76      1.0000 0.74825  0.93449  0.09420  Biso   1.000  O
  H181     1.0000 0.24780  0.61730  0.90530  Biso   1.000  H
  H182     1.0000 0.25220  0.38270  0.40530  Biso   1.000  H
  H183     1.0000 0.75220  0.11730  0.59470  Biso   1.000  H
  H184     1.0000 0.74780  0.88270  0.09470  Biso   1.000  H
  H185     1.0000 0.24850  0.54600  0.86340  Biso   1.000  H
  H186     1.0000 0.25150  0.45400  0.36340  Biso   1.000  H
  H187     1.0000 0.75150  0.04600  0.63660  Biso   1.000  H
  H188     1.0000 0.74850  0.95400  0.13660  Biso   1.000  H
  O77      1.0000 0.24990  0.39816  0.00057  Biso   1.000  O
  O78      1.0000 0.25010  0.60184  0.50057  Biso   1.000  O
  O79      1.0000 0.75010  0.89816  0.49943  Biso   1.000  O
  O80      1.0000 0.74990  0.10184  0.99943  Biso   1.000  O
  H189     1.0000 0.25000  0.35860  0.96180  Biso   1.000  H
  H190     1.0000 0.25000  0.64140  0.46180  Biso   1.000  H
  H191     1.0000 0.75000  0.85860  0.53820  Biso   1.000  H
  H192     1.0000 0.75000  0.14140  0.03820  Biso   1.000  H
  H193     1.0000 0.25020  0.37200  0.04740  Biso   1.000  H
  H194     1.0000 0.24980  0.62800  0.54740  Biso   1.000  H
  H195     1.0000 0.74980  0.87200  0.45260  Biso   1.000  H
  H196     1.0000 0.75020  0.12800  0.95260  Biso   1.000  H
  O81      1.0000 0.24222  0.54750  0.75790  Biso   1.000  O
  O82      1.0000 0.25778  0.45250  0.25790  Biso   1.000  O
  O83      1.0000 0.75778  0.04750  0.74210  Biso   1.000  O
  O84      1.0000 0.74222  0.95250  0.24210  Biso   1.000  O
  H197     1.0000 0.26750  0.57230  0.73710  Biso   1.000  H
  H198     1.0000 0.23250  0.42770  0.23710  Biso   1.000  H
  H199     1.0000 0.73250  0.07230  0.76290  Biso   1.000  H
  H200     1.0000 0.76750  0.92770  0.26290  Biso   1.000  H
  H201     1.0000 0.21290  0.56720  0.74380  Biso   1.000  H
  H202     1.0000 0.28710  0.43280  0.24380  Biso   1.000  H
  H203     1.0000 0.78710  0.06720  0.75620  Biso   1.000  H
  H204     1.0000 0.71290  0.93280  0.25620  Biso   1.000  H
  O85      1.0000 0.05305  0.19810  0.88360  Biso   1.000  O
  O86      1.0000 0.44695  0.80190  0.38360  Biso   1.000  O
  O87      1.0000 0.94695  0.69810  0.61640  Biso   1.000  O
  O88      1.0000 0.55305  0.30190  0.11640  Biso   1.000  O
  H205     1.0000 0.04030  0.17360  0.84710  Biso   1.000  H
  H206     1.0000 0.45970  0.82640  0.34710  Biso   1.000  H
  H207     1.0000 0.95970  0.67360  0.65290  Biso   1.000  H
  H208     1.0000 0.54030  0.32640  0.15290  Biso   1.000  H
  H209     1.0000 0.07050  0.16450  0.90910  Biso   1.000  H
  H210     1.0000 0.42950  0.83550  0.40910  Biso   1.000  H
  H211     1.0000 0.92950  0.66450  0.59090  Biso   1.000  H
  H212     1.0000 0.57050  0.33550  0.09090  Biso   1.000  H
  O89      1.0000 0.72590  0.33730  0.98480  Biso   1.000  O
  O90      1.0000 0.77410  0.66270  0.48480  Biso   1.000  O
  O91      1.0000 0.27410  0.83730  0.51520  Biso   1.000  O
  O92      1.0000 0.22590  0.16270  0.01520  Biso   1.000  O
  H213     1.0000 0.74030  0.34010  0.94350  Biso   1.000  H
  H214     1.0000 0.75970  0.65990  0.44350  Biso   1.000  H
  H215     1.0000 0.25970  0.84010  0.55650  Biso   1.000  H
  H216     1.0000 0.24030  0.15990  0.05650  Biso   1.000  H
  H217     1.0000 0.73170  0.38110  0.00780  Biso   1.000  H
  H218     1.0000 0.76830  0.61890  0.50780  Biso   1.000  H
  H219     1.0000 0.26830  0.88110  0.49220  Biso   1.000  H
  H220     1.0000 0.23170  0.11890  0.99220  Biso   1.000  H
  O93      1.0000 0.89080  0.19110  0.99730  Biso   1.000  O
  O94      1.0000 0.60920  0.80890  0.49730  Biso   1.000  O
  O95      1.0000 0.10920  0.69110  0.50270  Biso   1.000  O
  O96      1.0000 0.39080  0.30890  0.00270  Biso   1.000  O
  H221     1.0000 0.86130  0.21570  0.99420  Biso   1.000  H
  H222     1.0000 0.63870  0.78430  0.49420  Biso   1.000  H
  H223     1.0000 0.13870  0.71570  0.50580  Biso   1.000  H
  H224     1.0000 0.36130  0.28430  0.00580  Biso   1.000  H
  H225     1.0000 0.89040  0.15960  0.03360  Biso   1.000  H
  H226     1.0000 0.60960  0.84040  0.53360  Biso   1.000  H
  H227     1.0000 0.10960  0.65960  0.46640  Biso   1.000  H
  H228     1.0000 0.39040  0.34040  0.96640  Biso   1.000  H
  O97      1.0000 0.93680  0.40240  0.90450  Biso   1.000  O
  O98      1.0000 0.56320  0.59760  0.40450  Biso   1.000  O
  O99      1.0000 0.06320  0.90240  0.59550  Biso   1.000  O
  O100     1.0000 0.43680  0.09760  0.09550  Biso   1.000  O
  H229     1.0000 0.92670  0.35840  0.92440  Biso   1.000  H
  H230     1.0000 0.57330  0.64160  0.42440  Biso   1.000  H
  H231     1.0000 0.07330  0.85840  0.57560  Biso   1.000  H
  H232     1.0000 0.42670  0.14160  0.07560  Biso   1.000  H
  H233     1.0000 0.97010  0.40060  0.89760  Biso   1.000  H
  H234     1.0000 0.52990  0.59940  0.39760  Biso   1.000  H
  H235     1.0000 0.02990  0.90060  0.60240  Biso   1.000  H
  H236     1.0000 0.47010  0.09940  0.10240  Biso   1.000  H
  O101     1.0000 0.63270  0.21670  0.00220  Biso   1.000  O
  O102     1.0000 0.86730  0.78330  0.50220  Biso   1.000  O
  O103     1.0000 0.36730  0.71670  0.49780  Biso   1.000  O
  O104     1.0000 0.13270  0.28330  0.99780  Biso   1.000  O
  H237     1.0000 0.63950  0.25670  0.97460  Biso   1.000  H
  H238     1.0000 0.86050  0.74330  0.47460  Biso   1.000  H
  H239     1.0000 0.36050  0.75670  0.52540  Biso   1.000  H
  H240     1.0000 0.13950  0.24330  0.02540  Biso   1.000  H
  H241     1.0000 0.64550  0.17340  0.98410  Biso   1.000  H
  H242     1.0000 0.85450  0.82660  0.48410  Biso   1.000  H
  H243     1.0000 0.35450  0.67340  0.51590  Biso   1.000  H
  H244     1.0000 0.14550  0.32660  0.01590  Biso   1.000  H
  O105     1.0000 0.98860  0.22850  0.04890  Biso   1.000  O
  O106     1.0000 0.51140  0.77150  0.54890  Biso   1.000  O
  O107     1.0000 0.01140  0.72850  0.45110  Biso   1.000  O
  O108     1.0000 0.48860  0.27150  0.95110  Biso   1.000  O
  H245     1.0000 0.95500  0.22790  0.04510  Biso   1.000  H
  H246     1.0000 0.54500  0.77210  0.54510  Biso   1.000  H
  H247     1.0000 0.04500  0.72790  0.45490  Biso   1.000  H
  H248     1.0000 0.45500  0.27210  0.95490  Biso   1.000  H
  H249     1.0000 0.00240  0.22000  0.00790  Biso   1.000  H
  H250     1.0000 0.49760  0.78000  0.50790  Biso   1.000  H
  H251     1.0000 0.99760  0.72000  0.49210  Biso   1.000  H
  H252     1.0000 0.50240  0.28000  0.99210  Biso   1.000  H
  O109     1.0000 0.01100  0.40320  0.02510  Biso   1.000  O
  O110     1.0000 0.48900  0.59680  0.52510  Biso   1.000  O
  O111     1.0000 0.98900  0.90320  0.47490  Biso   1.000  O
  O112     1.0000 0.51100  0.09680  0.97490  Biso   1.000  O
  H253     1.0000 0.99800  0.40870  0.06710  Biso   1.000  H
  H254     1.0000 0.50200  0.59130  0.56710  Biso   1.000  H
  H255     1.0000 0.00200  0.90870  0.43290  Biso   1.000  H
  H256     1.0000 0.49800  0.09130  0.93290  Biso   1.000  H
  H257     1.0000 0.02090  0.35420  0.01920  Biso   1.000  H
  H258     1.0000 0.47910  0.64580  0.51920  Biso   1.000  H
  H259     1.0000 0.97910  0.85420  0.48080  Biso   1.000  H
  H260     1.0000 0.52090  0.14580  0.98080  Biso   1.000  H
  O113     1.0000 0.92420  0.60990  0.46610  Biso   1.000  O
  O114     1.0000 0.57580  0.39010  0.96610  Biso   1.000  O
  O115     1.0000 0.07580  0.10990  0.03390  Biso   1.000  O
  O116     1.0000 0.42420  0.89010  0.53390  Biso   1.000  O
  H261     1.0000 0.94490  0.63620  0.49370  Biso   1.000  H
  H262     1.0000 0.55510  0.36380  0.99370  Biso   1.000  H
  H263     1.0000 0.05510  0.13620  0.00630  Biso   1.000  H
  H264     1.0000 0.44490  0.86380  0.50630  Biso   1.000  H
  H265     1.0000 0.93420  0.56050  0.46370  Biso   1.000  H
  H266     1.0000 0.56580  0.43950  0.96370  Biso   1.000  H
  H267     1.0000 0.06580  0.06050  0.03630  Biso   1.000  H
  H268     1.0000 0.43420  0.93950  0.53630  Biso   1.000  H
  O117     1.0000 0.48742  0.84860  0.67890  Biso   1.000  O
  O118     1.0000 0.01258  0.15140  0.17890  Biso   1.000  O
  O119     1.0000 0.51258  0.34860  0.82110  Biso   1.000  O
  O120     1.0000 0.98742  0.65140  0.32110  Biso   1.000  O
  H269     1.0000 0.51740  0.83220  0.66420  Biso   1.000  H
  H270     1.0000 0.98260  0.16780  0.16420  Biso   1.000  H
  H271     1.0000 0.48260  0.33220  0.83580  Biso   1.000  H
  H272     1.0000 0.01740  0.66780  0.33580  Biso   1.000  H
  H273     1.0000 0.47770  0.88960  0.65420  Biso   1.000  H
  H274     1.0000 0.02230  0.11040  0.15420  Biso   1.000  H
  H275     1.0000 0.52230  0.38960  0.84580  Biso   1.000  H
  H276     1.0000 0.97770  0.61040  0.34580  Biso   1.000  H
  O121     1.0000 0.86200  0.49500  0.04840  Biso   1.000  O
  O122     1.0000 0.63800  0.50500  0.54840  Biso   1.000  O
  O123     1.0000 0.13800  0.99500  0.45160  Biso   1.000  O
  O124     1.0000 0.36200  0.00500  0.95160  Biso   1.000  O
  H277     1.0000 0.89470  0.49780  0.03800  Biso   1.000  H
  H278     1.0000 0.60530  0.50220  0.53800  Biso   1.000  H
  H279     1.0000 0.10530  0.99780  0.46200  Biso   1.000  H
  H280     1.0000 0.39470  0.00220  0.96200  Biso   1.000  H
  H281     1.0000 0.84940  0.45030  0.03290  Biso   1.000  H
  H282     1.0000 0.65060  0.54970  0.53290  Biso   1.000  H
  H283     1.0000 0.15060  0.95030  0.46710  Biso   1.000  H
  H284     1.0000 0.34940  0.04970  0.96710  Biso   1.000  H
  S1       1.0000 0.59503  0.59159  0.80004  Biso   1.000  S
  S2       1.0000 0.90497  0.40841  0.30004  Biso   1.000  S
  S3       1.0000 0.40497  0.09159  0.69996  Biso   1.000  S
  S4       1.0000 0.09503  0.90841  0.19996  Biso   1.000  S
