data_image0
_cell_length_a       17.18
_cell_length_b       18.55
_cell_length_c       25.95
_cell_angle_alpha    90
_cell_angle_beta     99.34
_cell_angle_gamma    90

_symmetry_space_group_name_H-M    "P 1"
_symmetry_int_tables_number       1

loop_
  _symmetry_equiv_pos_as_xyz
  'x, y, z'

loop_
  _atom_site_label
  _atom_site_occupancy
  _atom_site_fract_x
  _atom_site_fract_y
  _atom_site_fract_z
  _atom_site_thermal_displace_type
  _atom_site_B_iso_or_equiv
  _atom_site_type_symbol
  C1       1.0000 0.84120  0.34720  0.13770  Biso   1.000  C
  C2       1.0000 0.65880  0.84720  0.36230  Biso   1.000  C
  C3       1.0000 0.15880  0.65280  0.86230  Biso   1.000  C
  C4       1.0000 0.34120  0.15280  0.63770  Biso   1.000  C
  C5       1.0000 0.99110  0.28990  0.26340  Biso   1.000  C
  C6       1.0000 0.50890  0.78990  0.23660  Biso   1.000  C
  C7       1.0000 0.00890  0.71010  0.73660  Biso   1.000  C
  C8       1.0000 0.49110  0.21010  0.76340  Biso   1.000  C
  C9       1.0000 0.91960  0.26810  0.40190  Biso   1.000  C
  C10      1.0000 0.58040  0.76810  0.09810  Biso   1.000  C
  C11      1.0000 0.08040  0.73190  0.59810  Biso   1.000  C
  C12      1.0000 0.41960  0.23190  0.90190  Biso   1.000  C
  C13      1.0000 0.69550  0.29800  0.41120  Biso   1.000  C
  C14      1.0000 0.80450  0.79800  0.08880  Biso   1.000  C
  C15      1.0000 0.30450  0.70200  0.58880  Biso   1.000  C
  C16      1.0000 0.19550  0.20200  0.91120  Biso   1.000  C
  C17      1.0000 0.54990  0.35420  0.28630  Biso   1.000  C
  C18      1.0000 0.95010  0.85420  0.21370  Biso   1.000  C
  C19      1.0000 0.45010  0.64580  0.71370  Biso   1.000  C
  C20      1.0000 0.04990  0.14580  0.78630  Biso   1.000  C
  C21      1.0000 0.61650  0.37900  0.14510  Biso   1.000  C
  C22      1.0000 0.88350  0.87900  0.35490  Biso   1.000  C
  C23      1.0000 0.38350  0.62100  0.85490  Biso   1.000  C
  C24      1.0000 0.11650  0.12100  0.64510  Biso   1.000  C
  C25      1.0000 0.88900  0.54720  0.16640  Biso   1.000  C
  C26      1.0000 0.61100  0.04720  0.33360  Biso   1.000  C
  C27      1.0000 0.11100  0.45280  0.83360  Biso   1.000  C
  C28      1.0000 0.38900  0.95280  0.66640  Biso   1.000  C
  C29      1.0000 0.04180  0.48090  0.29650  Biso   1.000  C
  C30      1.0000 0.45820  0.98090  0.20350  Biso   1.000  C
  C31      1.0000 0.95820  0.51910  0.70350  Biso   1.000  C
  C32      1.0000 0.54180  0.01910  0.79650  Biso   1.000  C
  C33      1.0000 0.97380  0.46050  0.43390  Biso   1.000  C
  C34      1.0000 0.52620  0.96050  0.06610  Biso   1.000  C
  C35      1.0000 0.02620  0.53950  0.56610  Biso   1.000  C
  C36      1.0000 0.47380  0.03950  0.93390  Biso   1.000  C
  C37      1.0000 0.74540  0.49770  0.43930  Biso   1.000  C
  C38      1.0000 0.75460  0.99770  0.06070  Biso   1.000  C
  C39      1.0000 0.25460  0.50230  0.56070  Biso   1.000  C
  C40      1.0000 0.24540  0.00230  0.93930  Biso   1.000  C
  C41      1.0000 0.59240  0.55470  0.31480  Biso   1.000  C
  C42      1.0000 0.90760  0.05470  0.18520  Biso   1.000  C
  C43      1.0000 0.40760  0.44530  0.68520  Biso   1.000  C
  C44      1.0000 0.09240  0.94530  0.81480  Biso   1.000  C
  C45      1.0000 0.66530  0.57530  0.18000  Biso   1.000  C
  C46      1.0000 0.83470  0.07530  0.32000  Biso   1.000  C
  C47      1.0000 0.33470  0.42470  0.82000  Biso   1.000  C
  C48      1.0000 0.16530  0.92470  0.68000  Biso   1.000  C
  C49      1.0000 0.84320  0.46130  0.10360  Biso   1.000  C
  C50      1.0000 0.65680  0.96130  0.39640  Biso   1.000  C
  C51      1.0000 0.15680  0.53870  0.89640  Biso   1.000  C
  C52      1.0000 0.34320  0.03870  0.60360  Biso   1.000  C
  H1       1.0000 0.84220  0.46970  0.06620  Biso   1.000  H
  H2       1.0000 0.65780  0.96970  0.43380  Biso   1.000  H
  H3       1.0000 0.15780  0.53030  0.93380  Biso   1.000  H
  H4       1.0000 0.34220  0.03030  0.56620  Biso   1.000  H
  C53      1.0000 0.92840  0.44240  0.13130  Biso   1.000  C
  C54      1.0000 0.57160  0.94240  0.36870  Biso   1.000  C
  C55      1.0000 0.07160  0.55760  0.86870  Biso   1.000  C
  C56      1.0000 0.42840  0.05760  0.63130  Biso   1.000  C
  H5       1.0000 0.96590  0.44270  0.10650  Biso   1.000  H
  H6       1.0000 0.53410  0.94270  0.39350  Biso   1.000  H
  H7       1.0000 0.03410  0.55730  0.89350  Biso   1.000  H
  H8       1.0000 0.46590  0.05730  0.60650  Biso   1.000  H
  C57      1.0000 0.06890  0.38840  0.24650  Biso   1.000  C
  C58      1.0000 0.43110  0.88840  0.25350  Biso   1.000  C
  C59      1.0000 0.93110  0.61160  0.75350  Biso   1.000  C
  C60      1.0000 0.56890  0.11160  0.74650  Biso   1.000  C
  H9       1.0000 0.11620  0.38530  0.23010  Biso   1.000  H
  H10      1.0000 0.38380  0.88530  0.26990  Biso   1.000  H
  H11      1.0000 0.88380  0.61470  0.76990  Biso   1.000  H
  H12      1.0000 0.61620  0.11470  0.73010  Biso   1.000  H
  C61      1.0000 0.08780  0.36950  0.30330  Biso   1.000  C
  C62      1.0000 0.41220  0.86950  0.19670  Biso   1.000  C
  C63      1.0000 0.91220  0.63050  0.69670  Biso   1.000  C
  C64      1.0000 0.58780  0.13050  0.80330  Biso   1.000  C
  H13      1.0000 0.14330  0.35580  0.31290  Biso   1.000  H
  H14      1.0000 0.35670  0.85580  0.18710  Biso   1.000  H
  H15      1.0000 0.85670  0.64420  0.68710  Biso   1.000  H
  H16      1.0000 0.64330  0.14420  0.81290  Biso   1.000  H
  C65      1.0000 0.02330  0.34540  0.43280  Biso   1.000  C
  C66      1.0000 0.47670  0.84540  0.06720  Biso   1.000  C
  C67      1.0000 0.97670  0.65460  0.56720  Biso   1.000  C
  C68      1.0000 0.52330  0.15460  0.93280  Biso   1.000  C
  H17      1.0000 0.07300  0.32860  0.45330  Biso   1.000  H
  H18      1.0000 0.42700  0.82860  0.04670  Biso   1.000  H
  H19      1.0000 0.92700  0.67140  0.54670  Biso   1.000  H
  H20      1.0000 0.57300  0.17140  0.95330  Biso   1.000  H
  C69      1.0000 0.95360  0.34920  0.46680  Biso   1.000  C
  C70      1.0000 0.54640  0.84920  0.03320  Biso   1.000  C
  C71      1.0000 0.04640  0.65080  0.53320  Biso   1.000  C
  C72      1.0000 0.45360  0.15080  0.96680  Biso   1.000  C
  H21      1.0000 0.97170  0.33680  0.50350  Biso   1.000  H
  H22      1.0000 0.52830  0.83680  0.99650  Biso   1.000  H
  H23      1.0000 0.02830  0.66320  0.49650  Biso   1.000  H
  H24      1.0000 0.47170  0.16320  0.00350  Biso   1.000  H
  C73      1.0000 0.74040  0.38440  0.47440  Biso   1.000  C
  C74      1.0000 0.75960  0.88440  0.02560  Biso   1.000  C
  C75      1.0000 0.25960  0.61560  0.52560  Biso   1.000  C
  C76      1.0000 0.24040  0.11560  0.97440  Biso   1.000  C
  H25      1.0000 0.74350  0.37460  0.51180  Biso   1.000  H
  H26      1.0000 0.75650  0.87460  0.98820  Biso   1.000  H
  H27      1.0000 0.25650  0.62540  0.48820  Biso   1.000  H
  H28      1.0000 0.24350  0.12540  0.01180  Biso   1.000  H
  C77      1.0000 0.66010  0.40260  0.44957  Biso   1.000  C
  C78      1.0000 0.83990  0.90260  0.05043  Biso   1.000  C
  C79      1.0000 0.33990  0.59740  0.55043  Biso   1.000  C
  C80      1.0000 0.16010  0.09740  0.94957  Biso   1.000  C
  H29      1.0000 0.62360  0.40340  0.47490  Biso   1.000  H
  H30      1.0000 0.87640  0.90340  0.02510  Biso   1.000  H
  H31      1.0000 0.37640  0.59660  0.52510  Biso   1.000  H
  H32      1.0000 0.12360  0.09660  0.97490  Biso   1.000  H
  C81      1.0000 0.51800  0.45590  0.33300  Biso   1.000  C
  C82      1.0000 0.98200  0.95590  0.16700  Biso   1.000  C
  C83      1.0000 0.48200  0.54410  0.66700  Biso   1.000  C
  C84      1.0000 0.01800  0.04410  0.83300  Biso   1.000  C
  H33      1.0000 0.47080  0.45930  0.34960  Biso   1.000  H
  H34      1.0000 0.02920  0.95930  0.15040  Biso   1.000  H
  H35      1.0000 0.52920  0.54070  0.65040  Biso   1.000  H
  H36      1.0000 0.97080  0.04070  0.84960  Biso   1.000  H
  C85      1.0000 0.50030  0.47020  0.27610  Biso   1.000  C
  C86      1.0000 0.99970  0.97020  0.22390  Biso   1.000  C
  C87      1.0000 0.49970  0.52980  0.72390  Biso   1.000  C
  C88      1.0000 0.00030  0.02980  0.77610  Biso   1.000  C
  H37      1.0000 0.44430  0.48140  0.26490  Biso   1.000  H
  H38      1.0000 0.05570  0.98140  0.23510  Biso   1.000  H
  H39      1.0000 0.55570  0.51860  0.73510  Biso   1.000  H
  H40      1.0000 0.94430  0.01860  0.76490  Biso   1.000  H
  C89      1.0000 0.56980  0.49430  0.14580  Biso   1.000  C
  C90      1.0000 0.93020  0.99430  0.35420  Biso   1.000  C
  C91      1.0000 0.43020  0.50570  0.85420  Biso   1.000  C
  C92      1.0000 0.06980  0.00570  0.64580  Biso   1.000  C
  H41      1.0000 0.51930  0.50850  0.12500  Biso   1.000  H
  H42      1.0000 0.98070  0.00850  0.37500  Biso   1.000  H
  H43      1.0000 0.48070  0.49150  0.87500  Biso   1.000  H
  H44      1.0000 0.01930  0.99150  0.62500  Biso   1.000  H
  C93      1.0000 0.63300  0.49350  0.11300  Biso   1.000  C
  C94      1.0000 0.86700  0.99350  0.38700  Biso   1.000  C
  C95      1.0000 0.36700  0.50650  0.88700  Biso   1.000  C
  C96      1.0000 0.13300  0.00650  0.61300  Biso   1.000  C
  H45      1.0000 0.61170  0.50750  0.07700  Biso   1.000  H
  H46      1.0000 0.88830  0.00750  0.42300  Biso   1.000  H
  H47      1.0000 0.38830  0.49250  0.92300  Biso   1.000  H
  H48      1.0000 0.11170  0.99250  0.57700  Biso   1.000  H
  C97      1.0000 0.98350  0.32480  0.17020  Biso   1.000  C
  C98      1.0000 0.51650  0.82480  0.32980  Biso   1.000  C
  C99      1.0000 0.01650  0.67520  0.82980  Biso   1.000  C
  C100     1.0000 0.48350  0.17520  0.67020  Biso   1.000  C
  H49      1.0000 0.02600  0.33470  0.15080  Biso   1.000  H
  H50      1.0000 0.47400  0.83470  0.34920  Biso   1.000  H
  H51      1.0000 0.97400  0.66530  0.84920  Biso   1.000  H
  H52      1.0000 0.52600  0.16530  0.65080  Biso   1.000  H
  H53      1.0000 0.96820  0.27490  0.16400  Biso   1.000  H
  H54      1.0000 0.53180  0.77490  0.33600  Biso   1.000  H
  H55      1.0000 0.03180  0.72510  0.83600  Biso   1.000  H
  H56      1.0000 0.46820  0.22510  0.66400  Biso   1.000  H
  C101     1.0000 0.03840  0.26830  0.35780  Biso   1.000  C
  C102     1.0000 0.46160  0.76830  0.14220  Biso   1.000  C
  C103     1.0000 0.96160  0.73170  0.64220  Biso   1.000  C
  C104     1.0000 0.53840  0.23170  0.85780  Biso   1.000  C
  H57      1.0000 0.02040  0.21970  0.34860  Biso   1.000  H
  H58      1.0000 0.47960  0.71970  0.15140  Biso   1.000  H
  H59      1.0000 0.97960  0.78030  0.65140  Biso   1.000  H
  H60      1.0000 0.52040  0.28030  0.84860  Biso   1.000  H
  H61      1.0000 0.09280  0.26510  0.37500  Biso   1.000  H
  H62      1.0000 0.40720  0.76510  0.12500  Biso   1.000  H
  H63      1.0000 0.90720  0.73490  0.62500  Biso   1.000  H
  H64      1.0000 0.59280  0.23490  0.87500  Biso   1.000  H
  C105     1.0000 0.83040  0.27300  0.46150  Biso   1.000  C
  C106     1.0000 0.66960  0.77300  0.03850  Biso   1.000  C
  C107     1.0000 0.16960  0.72700  0.53850  Biso   1.000  C
  C108     1.0000 0.33040  0.22700  0.96150  Biso   1.000  C
  H65      1.0000 0.84210  0.27180  0.49930  Biso   1.000  H
  H66      1.0000 0.65790  0.77180  0.00070  Biso   1.000  H
  H67      1.0000 0.15790  0.72820  0.50070  Biso   1.000  H
  H68      1.0000 0.34210  0.22820  0.99930  Biso   1.000  H
  H69      1.0000 0.81770  0.22440  0.44930  Biso   1.000  H
  H70      1.0000 0.68230  0.72440  0.05070  Biso   1.000  H
  H71      1.0000 0.18230  0.77560  0.55070  Biso   1.000  H
  H72      1.0000 0.31770  0.27560  0.94930  Biso   1.000  H
  C109     1.0000 0.56400  0.33770  0.38240  Biso   1.000  C
  C110     1.0000 0.93600  0.83770  0.11760  Biso   1.000  C
  C111     1.0000 0.43600  0.66230  0.61760  Biso   1.000  C
  C112     1.0000 0.06400  0.16230  0.88240  Biso   1.000  C
  H73      1.0000 0.52540  0.35080  0.40420  Biso   1.000  H
  H74      1.0000 0.97460  0.85080  0.09580  Biso   1.000  H
  H75      1.0000 0.47460  0.64920  0.59580  Biso   1.000  H
  H76      1.0000 0.02540  0.14920  0.90420  Biso   1.000  H
  H77      1.0000 0.55710  0.28700  0.37380  Biso   1.000  H
  H78      1.0000 0.94290  0.78700  0.12620  Biso   1.000  H
  H79      1.0000 0.44290  0.71300  0.62620  Biso   1.000  H
  H80      1.0000 0.05710  0.21300  0.87380  Biso   1.000  H
  C113     1.0000 0.51090  0.39250  0.19390  Biso   1.000  C
  C114     1.0000 0.98910  0.89250  0.30610  Biso   1.000  C
  C115     1.0000 0.48910  0.60750  0.80610  Biso   1.000  C
  C116     1.0000 0.01090  0.10750  0.69390  Biso   1.000  C
  H81      1.0000 0.50970  0.34060  0.18910  Biso   1.000  H
  H82      1.0000 0.99030  0.84060  0.31090  Biso   1.000  H
  H83      1.0000 0.49030  0.65940  0.81090  Biso   1.000  H
  H84      1.0000 0.00970  0.15940  0.68910  Biso   1.000  H
  H85      1.0000 0.45920  0.41080  0.17920  Biso   1.000  H
  H86      1.0000 0.04080  0.91080  0.32080  Biso   1.000  H
  H87      1.0000 0.54080  0.58920  0.82080  Biso   1.000  H
  H88      1.0000 0.95920  0.08920  0.67920  Biso   1.000  H
  C117     1.0000 0.71760  0.38950  0.08670  Biso   1.000  C
  C118     1.0000 0.78240  0.88950  0.41330  Biso   1.000  C
  C119     1.0000 0.28240  0.61050  0.91330  Biso   1.000  C
  C120     1.0000 0.21760  0.11050  0.58670  Biso   1.000  C
  H89      1.0000 0.70750  0.33830  0.08200  Biso   1.000  H
  H90      1.0000 0.79250  0.83830  0.41800  Biso   1.000  H
  H91      1.0000 0.29250  0.66170  0.91800  Biso   1.000  H
  H92      1.0000 0.20750  0.16170  0.58200  Biso   1.000  H
  H93      1.0000 0.71140  0.41140  0.05230  Biso   1.000  H
  H94      1.0000 0.78860  0.91140  0.44770  Biso   1.000  H
  H95      1.0000 0.28860  0.58860  0.94770  Biso   1.000  H
  H96      1.0000 0.21140  0.08860  0.55230  Biso   1.000  H
  C121     1.0000 0.02440  0.50500  0.19990  Biso   1.000  C
  C122     1.0000 0.47560  0.00500  0.30010  Biso   1.000  C
  C123     1.0000 0.97560  0.49500  0.80010  Biso   1.000  C
  C124     1.0000 0.52440  0.99500  0.69990  Biso   1.000  C
  H97      1.0000 0.06260  0.49400  0.17730  Biso   1.000  H
  H98      1.0000 0.43740  0.99400  0.32270  Biso   1.000  H
  H99      1.0000 0.93740  0.50600  0.82270  Biso   1.000  H
  H100     1.0000 0.56260  0.00600  0.67730  Biso   1.000  H
  H101     1.0000 0.03250  0.55480  0.21100  Biso   1.000  H
  H102     1.0000 0.46750  0.05480  0.28900  Biso   1.000  H
  H103     1.0000 0.96750  0.44520  0.78900  Biso   1.000  H
  H104     1.0000 0.53250  0.94520  0.71100  Biso   1.000  H
  C125     1.0000 0.08720  0.44430  0.38660  Biso   1.000  C
  C126     1.0000 0.41280  0.94430  0.11340  Biso   1.000  C
  C127     1.0000 0.91280  0.55570  0.61340  Biso   1.000  C
  C128     1.0000 0.58720  0.05570  0.88660  Biso   1.000  C
  H105     1.0000 0.09360  0.49590  0.39180  Biso   1.000  H
  H106     1.0000 0.40640  0.99590  0.10820  Biso   1.000  H
  H107     1.0000 0.90640  0.50410  0.60820  Biso   1.000  H
  H108     1.0000 0.59360  0.00410  0.89180  Biso   1.000  H
  H109     1.0000 0.13700  0.42160  0.40050  Biso   1.000  H
  H110     1.0000 0.36300  0.92160  0.09950  Biso   1.000  H
  H111     1.0000 0.86300  0.57840  0.59950  Biso   1.000  H
  H112     1.0000 0.63700  0.07840  0.90050  Biso   1.000  H
  C129     1.0000 0.87260  0.45470  0.48750  Biso   1.000  C
  C130     1.0000 0.62740  0.95470  0.01250  Biso   1.000  C
  C131     1.0000 0.12740  0.54530  0.51250  Biso   1.000  C
  C132     1.0000 0.37260  0.04530  0.98750  Biso   1.000  C
  H113     1.0000 0.88270  0.50610  0.49090  Biso   1.000  H
  H114     1.0000 0.61730  0.00610  0.00910  Biso   1.000  H
  H115     1.0000 0.11730  0.49390  0.50910  Biso   1.000  H
  H116     1.0000 0.38270  0.99390  0.99090  Biso   1.000  H
  H117     1.0000 0.88080  0.43450  0.52240  Biso   1.000  H
  H118     1.0000 0.61920  0.93450  0.97760  Biso   1.000  H
  H119     1.0000 0.11920  0.56550  0.47760  Biso   1.000  H
  H120     1.0000 0.38080  0.06550  0.02240  Biso   1.000  H
  C133     1.0000 0.60640  0.51960  0.40650  Biso   1.000  C
  C134     1.0000 0.89360  0.01960  0.09350  Biso   1.000  C
  C135     1.0000 0.39360  0.48040  0.59350  Biso   1.000  C
  C136     1.0000 0.10640  0.98040  0.90650  Biso   1.000  C
  H121     1.0000 0.62400  0.56920  0.41130  Biso   1.000  H
  H122     1.0000 0.87600  0.06920  0.08870  Biso   1.000  H
  H123     1.0000 0.37600  0.43080  0.58870  Biso   1.000  H
  H124     1.0000 0.12400  0.93080  0.91130  Biso   1.000  H
  H125     1.0000 0.56390  0.51290  0.42650  Biso   1.000  H
  H126     1.0000 0.93610  0.01290  0.07350  Biso   1.000  H
  H127     1.0000 0.43610  0.48710  0.57350  Biso   1.000  H
  H128     1.0000 0.06390  0.98710  0.92650  Biso   1.000  H
  C137     1.0000 0.54750  0.57650  0.21990  Biso   1.000  C
  C138     1.0000 0.95250  0.07650  0.28010  Biso   1.000  C
  C139     1.0000 0.45250  0.42350  0.78010  Biso   1.000  C
  C140     1.0000 0.04750  0.92350  0.71990  Biso   1.000  C
  H129     1.0000 0.49310  0.57750  0.20250  Biso   1.000  H
  H130     1.0000 0.00690  0.07750  0.29750  Biso   1.000  H
  H131     1.0000 0.50690  0.42250  0.79750  Biso   1.000  H
  H132     1.0000 0.99310  0.92250  0.70250  Biso   1.000  H
  H133     1.0000 0.56360  0.62580  0.22860  Biso   1.000  H
  H134     1.0000 0.93640  0.12580  0.27140  Biso   1.000  H
  H135     1.0000 0.43640  0.37420  0.77140  Biso   1.000  H
  H136     1.0000 0.06360  0.87420  0.72860  Biso   1.000  H
  C141     1.0000 0.75630  0.56850  0.11460  Biso   1.000  C
  C142     1.0000 0.74370  0.06850  0.38540  Biso   1.000  C
  C143     1.0000 0.24370  0.43150  0.88540  Biso   1.000  C
  C144     1.0000 0.25630  0.93150  0.61460  Biso   1.000  C
  H137     1.0000 0.76680  0.61830  0.12480  Biso   1.000  H
  H138     1.0000 0.73320  0.11830  0.37520  Biso   1.000  H
  H139     1.0000 0.23320  0.38170  0.87520  Biso   1.000  H
  H140     1.0000 0.26680  0.88170  0.62480  Biso   1.000  H
  H141     1.0000 0.74310  0.56730  0.07680  Biso   1.000  H
  H142     1.0000 0.75690  0.06730  0.42320  Biso   1.000  H
  H143     1.0000 0.25690  0.43270  0.92320  Biso   1.000  H
  H144     1.0000 0.24310  0.93270  0.57680  Biso   1.000  H
  C145     1.0000 0.33970  0.30290  0.24350  Biso   1.000  C
  C146     1.0000 0.16030  0.80290  0.25650  Biso   1.000  C
  C147     1.0000 0.66030  0.69710  0.75650  Biso   1.000  C
  C148     1.0000 0.83970  0.19710  0.74350  Biso   1.000  C
  H145     1.0000 0.34830  0.26920  0.21840  Biso   1.000  H
  H146     1.0000 0.15170  0.76920  0.28160  Biso   1.000  H
  H147     1.0000 0.65170  0.73080  0.78160  Biso   1.000  H
  H148     1.0000 0.84830  0.23080  0.71840  Biso   1.000  H
  C149     1.0000 0.36370  0.28620  0.30140  Biso   1.000  C
  C150     1.0000 0.13630  0.78620  0.19860  Biso   1.000  C
  C151     1.0000 0.63630  0.71380  0.69860  Biso   1.000  C
  C152     1.0000 0.86370  0.21380  0.80140  Biso   1.000  C
  H149     1.0000 0.38660  0.24250  0.31290  Biso   1.000  H
  H150     1.0000 0.11340  0.74250  0.18710  Biso   1.000  H
  H151     1.0000 0.61340  0.75750  0.68710  Biso   1.000  H
  H152     1.0000 0.88660  0.25750  0.81290  Biso   1.000  H
  C153     1.0000 0.34960  0.34010  0.33610  Biso   1.000  C
  C154     1.0000 0.15040  0.84010  0.16390  Biso   1.000  C
  C155     1.0000 0.65040  0.65990  0.66390  Biso   1.000  C
  C156     1.0000 0.84960  0.15990  0.83610  Biso   1.000  C
  H153     1.0000 0.36810  0.33300  0.37150  Biso   1.000  H
  H154     1.0000 0.13190  0.83300  0.12850  Biso   1.000  H
  H155     1.0000 0.63190  0.66700  0.62850  Biso   1.000  H
  H156     1.0000 0.86810  0.16700  0.87150  Biso   1.000  H
  C157     1.0000 0.31050  0.40220  0.32160  Biso   1.000  C
  C158     1.0000 0.18950  0.90220  0.17840  Biso   1.000  C
  C159     1.0000 0.68950  0.59780  0.67840  Biso   1.000  C
  C160     1.0000 0.81050  0.09780  0.82160  Biso   1.000  C
  C161     1.0000 0.29440  0.45680  0.35420  Biso   1.000  C
  C162     1.0000 0.20560  0.95680  0.14580  Biso   1.000  C
  C163     1.0000 0.70560  0.54320  0.64580  Biso   1.000  C
  C164     1.0000 0.79440  0.04320  0.85420  Biso   1.000  C
  C165     1.0000 0.25970  0.51610  0.33490  Biso   1.000  C
  C166     1.0000 0.24030  0.01610  0.16510  Biso   1.000  C
  C167     1.0000 0.74030  0.48390  0.66510  Biso   1.000  C
  C168     1.0000 0.75970  0.98390  0.83490  Biso   1.000  C
  H157     1.0000 0.25240  0.55310  0.35780  Biso   1.000  H
  H158     1.0000 0.24760  0.05310  0.14220  Biso   1.000  H
  H159     1.0000 0.74760  0.44690  0.64220  Biso   1.000  H
  H160     1.0000 0.75240  0.94690  0.85780  Biso   1.000  H
  C169     1.0000 0.23360  0.52600  0.28220  Biso   1.000  C
  C170     1.0000 0.26640  0.02600  0.21780  Biso   1.000  C
  C171     1.0000 0.76640  0.47400  0.71780  Biso   1.000  C
  C172     1.0000 0.73360  0.97400  0.78220  Biso   1.000  C
  H161     1.0000 0.20290  0.56600  0.27100  Biso   1.000  H
  H162     1.0000 0.29710  0.06600  0.22900  Biso   1.000  H
  H163     1.0000 0.79710  0.43400  0.72900  Biso   1.000  H
  H164     1.0000 0.70290  0.93400  0.77100  Biso   1.000  H
  C173     1.0000 0.25310  0.47580  0.24470  Biso   1.000  C
  C174     1.0000 0.24690  0.97580  0.25530  Biso   1.000  C
  C175     1.0000 0.74690  0.52420  0.75530  Biso   1.000  C
  C176     1.0000 0.75310  0.02420  0.74470  Biso   1.000  C
  C177     1.0000 0.28940  0.41660  0.26530  Biso   1.000  C
  C178     1.0000 0.21060  0.91660  0.23470  Biso   1.000  C
  C179     1.0000 0.71060  0.58340  0.73470  Biso   1.000  C
  C180     1.0000 0.78940  0.08340  0.76530  Biso   1.000  C
  C181     1.0000 0.29390  0.44820  0.05540  Biso   1.000  C
  C182     1.0000 0.20610  0.94820  0.44460  Biso   1.000  C
  C183     1.0000 0.70610  0.55180  0.94460  Biso   1.000  C
  C184     1.0000 0.79390  0.05180  0.55540  Biso   1.000  C
  C185     1.0000 0.36090  0.39730  0.05820  Biso   1.000  C
  C186     1.0000 0.13910  0.89730  0.44180  Biso   1.000  C
  C187     1.0000 0.63910  0.60270  0.94180  Biso   1.000  C
  C188     1.0000 0.86090  0.10270  0.55820  Biso   1.000  C
  C189     1.0000 0.41560  0.40620  0.02380  Biso   1.000  C
  C190     1.0000 0.08440  0.90620  0.47620  Biso   1.000  C
  C191     1.0000 0.58440  0.59380  0.97620  Biso   1.000  C
  C192     1.0000 0.91560  0.09380  0.52380  Biso   1.000  C
  H165     1.0000 0.41160  0.44640  0.00210  Biso   1.000  H
  H166     1.0000 0.08840  0.94640  0.49790  Biso   1.000  H
  H167     1.0000 0.58840  0.55360  0.99790  Biso   1.000  H
  H168     1.0000 0.91160  0.05360  0.50210  Biso   1.000  H
  C193     1.0000 0.47450  0.35730  0.02130  Biso   1.000  C
  C194     1.0000 0.02550  0.85730  0.47870  Biso   1.000  C
  C195     1.0000 0.52550  0.64270  0.97870  Biso   1.000  C
  C196     1.0000 0.97450  0.14270  0.52130  Biso   1.000  C
  C197     1.0000 0.48360  0.29820  0.05260  Biso   1.000  C
  C198     1.0000 0.01640  0.79820  0.44740  Biso   1.000  C
  C199     1.0000 0.51640  0.70180  0.94740  Biso   1.000  C
  C200     1.0000 0.98360  0.20180  0.55260  Biso   1.000  C
  H169     1.0000 0.52370  0.26530  0.05010  Biso   1.000  H
  H170     1.0000 0.97630  0.76530  0.44990  Biso   1.000  H
  H171     1.0000 0.47630  0.73470  0.94990  Biso   1.000  H
  H172     1.0000 0.02370  0.23470  0.55010  Biso   1.000  H
  C201     1.0000 0.43240  0.28670  0.08870  Biso   1.000  C
  C202     1.0000 0.06760  0.78670  0.41130  Biso   1.000  C
  C203     1.0000 0.56760  0.71330  0.91130  Biso   1.000  C
  C204     1.0000 0.93240  0.21330  0.58870  Biso   1.000  C
  C205     1.0000 0.37230  0.33590  0.09330  Biso   1.000  C
  C206     1.0000 0.12770  0.83590  0.40670  Biso   1.000  C
  C207     1.0000 0.62770  0.66410  0.90670  Biso   1.000  C
  C208     1.0000 0.87230  0.16410  0.59330  Biso   1.000  C
  Cu1      1.0000 0.27206  0.40037  0.15686  Biso   1.000  Cu
  Cu2      1.0000 0.22794  0.90037  0.34314  Biso   1.000  Cu
  Cu3      1.0000 0.72794  0.59963  0.84314  Biso   1.000  Cu
  Cu4      1.0000 0.77206  0.09963  0.65686  Biso   1.000  Cu
  I1       1.0000 0.55338  0.37789  0.96835  Biso   1.000  I
  I2       1.0000 0.94662  0.87789  0.53165  Biso   1.000  I
  I3       1.0000 0.44662  0.62211  0.03165  Biso   1.000  I
  I4       1.0000 0.05338  0.12211  0.46835  Biso   1.000  I
  I5       1.0000 0.44147  0.19215  0.13151  Biso   1.000  I
  I6       1.0000 0.05853  0.69215  0.36849  Biso   1.000  I
  I7       1.0000 0.55853  0.80785  0.86849  Biso   1.000  I
  I8       1.0000 0.94147  0.30785  0.63151  Biso   1.000  I
  N1       1.0000 0.79730  0.39940  0.11185  Biso   1.000  N
  N2       1.0000 0.70270  0.89940  0.38815  Biso   1.000  N
  N3       1.0000 0.20270  0.60060  0.88815  Biso   1.000  N
  N4       1.0000 0.29730  0.10060  0.61185  Biso   1.000  N
  N5       1.0000 0.91770  0.36990  0.15048  Biso   1.000  N
  N6       1.0000 0.58230  0.86990  0.34952  Biso   1.000  N
  N7       1.0000 0.08230  0.63010  0.84952  Biso   1.000  N
  N8       1.0000 0.41770  0.13010  0.65048  Biso   1.000  N
  N9       1.0000 0.01290  0.33460  0.22582  Biso   1.000  N
  N10      1.0000 0.48710  0.83460  0.27418  Biso   1.000  N
  N11      1.0000 0.98710  0.66540  0.77418  Biso   1.000  N
  N12      1.0000 0.51290  0.16540  0.72582  Biso   1.000  N
  N13      1.0000 0.03620  0.30970  0.30984  Biso   1.000  N
  N14      1.0000 0.46380  0.80970  0.19016  Biso   1.000  N
  N15      1.0000 0.96380  0.69030  0.69016  Biso   1.000  N
  N16      1.0000 0.53620  0.19030  0.80984  Biso   1.000  N
  N17      1.0000 0.99300  0.29630  0.39331  Biso   1.000  N
  N18      1.0000 0.50700  0.79630  0.10669  Biso   1.000  N
  N19      1.0000 0.00700  0.70370  0.60669  Biso   1.000  N
  N20      1.0000 0.49300  0.20370  0.89331  Biso   1.000  N
  N21      1.0000 0.89890  0.29770  0.44120  Biso   1.000  N
  N22      1.0000 0.60110  0.79770  0.05880  Biso   1.000  N
  N23      1.0000 0.10110  0.70230  0.55880  Biso   1.000  N
  N24      1.0000 0.39890  0.20230  0.94120  Biso   1.000  N
  N25      1.0000 0.76220  0.31980  0.44527  Biso   1.000  N
  N26      1.0000 0.73780  0.81980  0.05473  Biso   1.000  N
  N27      1.0000 0.23780  0.68020  0.55473  Biso   1.000  N
  N28      1.0000 0.26220  0.18020  0.94527  Biso   1.000  N
  N29      1.0000 0.63850  0.34830  0.41000  Biso   1.000  N
  N30      1.0000 0.86150  0.84830  0.09000  Biso   1.000  N
  N31      1.0000 0.36150  0.65170  0.59000  Biso   1.000  N
  N32      1.0000 0.13850  0.15170  0.91000  Biso   1.000  N
  N33      1.0000 0.54880  0.38050  0.33347  Biso   1.000  N
  N34      1.0000 0.95120  0.88050  0.16653  Biso   1.000  N
  N35      1.0000 0.45120  0.61950  0.66653  Biso   1.000  N
  N36      1.0000 0.04880  0.11950  0.83347  Biso   1.000  N
  N37      1.0000 0.52380  0.40700  0.24912  Biso   1.000  N
  N38      1.0000 0.97620  0.90700  0.25088  Biso   1.000  N
  N39      1.0000 0.47620  0.59300  0.75088  Biso   1.000  N
  N40      1.0000 0.02380  0.09300  0.74912  Biso   1.000  N
  N41      1.0000 0.56560  0.42100  0.16515  Biso   1.000  N
  N42      1.0000 0.93440  0.92100  0.33485  Biso   1.000  N
  N43      1.0000 0.43440  0.57900  0.83485  Biso   1.000  N
  N44      1.0000 0.06560  0.07900  0.66515  Biso   1.000  N
  N45      1.0000 0.65940  0.41960  0.11464  Biso   1.000  N
  N46      1.0000 0.84060  0.91960  0.38536  Biso   1.000  N
  N47      1.0000 0.34060  0.58040  0.88536  Biso   1.000  N
  N48      1.0000 0.15940  0.08040  0.61464  Biso   1.000  N
  N49      1.0000 0.82700  0.52770  0.12985  Biso   1.000  N
  N50      1.0000 0.67300  0.02770  0.37015  Biso   1.000  N
  N51      1.0000 0.17300  0.47230  0.87015  Biso   1.000  N
  N52      1.0000 0.32700  0.97230  0.62985  Biso   1.000  N
  N53      1.0000 0.94700  0.49800  0.17059  Biso   1.000  N
  N54      1.0000 0.55300  0.99800  0.32941  Biso   1.000  N
  N55      1.0000 0.05300  0.50200  0.82941  Biso   1.000  N
  N56      1.0000 0.44700  0.00200  0.67059  Biso   1.000  N
  N57      1.0000 0.03930  0.46030  0.24423  Biso   1.000  N
  N58      1.0000 0.46070  0.96030  0.25577  Biso   1.000  N
  N59      1.0000 0.96070  0.53970  0.75577  Biso   1.000  N
  N60      1.0000 0.53930  0.03970  0.74423  Biso   1.000  N
  N61      1.0000 0.06960  0.43020  0.33262  Biso   1.000  N
  N62      1.0000 0.43040  0.93020  0.16738  Biso   1.000  N
  N63      1.0000 0.93040  0.56980  0.66738  Biso   1.000  N
  N64      1.0000 0.56960  0.06980  0.83262  Biso   1.000  N
  N65      1.0000 0.02840  0.41940  0.41539  Biso   1.000  N
  N66      1.0000 0.47160  0.91940  0.08461  Biso   1.000  N
  N67      1.0000 0.97160  0.58060  0.58461  Biso   1.000  N
  N68      1.0000 0.52840  0.08060  0.91539  Biso   1.000  N
  N69      1.0000 0.92860  0.42470  0.46025  Biso   1.000  N
  N70      1.0000 0.57140  0.92470  0.03975  Biso   1.000  N
  N71      1.0000 0.07140  0.57530  0.53975  Biso   1.000  N
  N72      1.0000 0.42860  0.07530  0.96025  Biso   1.000  N
  N73      1.0000 0.79030  0.44470  0.46491  Biso   1.000  N
  N74      1.0000 0.70970  0.94470  0.03509  Biso   1.000  N
  N75      1.0000 0.20970  0.55530  0.53509  Biso   1.000  N
  N76      1.0000 0.29030  0.05530  0.96491  Biso   1.000  N
  N77      1.0000 0.66950  0.47420  0.42778  Biso   1.000  N
  N78      1.0000 0.83050  0.97420  0.07222  Biso   1.000  N
  N79      1.0000 0.33050  0.52580  0.57222  Biso   1.000  N
  N80      1.0000 0.16950  0.02580  0.92778  Biso   1.000  N
  N81      1.0000 0.57490  0.50930  0.35186  Biso   1.000  N
  N82      1.0000 0.92510  0.00930  0.14814  Biso   1.000  N
  N83      1.0000 0.42510  0.49070  0.64814  Biso   1.000  N
  N84      1.0000 0.07490  0.99070  0.85186  Biso   1.000  N
  N85      1.0000 0.55260  0.53440  0.26826  Biso   1.000  N
  N86      1.0000 0.94740  0.03440  0.23174  Biso   1.000  N
  N87      1.0000 0.44740  0.46560  0.73174  Biso   1.000  N
  N88      1.0000 0.05260  0.96560  0.76826  Biso   1.000  N
  N89      1.0000 0.59640  0.54760  0.18432  Biso   1.000  N
  N90      1.0000 0.90360  0.04760  0.31568  Biso   1.000  N
  N91      1.0000 0.40360  0.45240  0.81568  Biso   1.000  N
  N92      1.0000 0.09640  0.95240  0.68432  Biso   1.000  N
  N93      1.0000 0.68970  0.54460  0.13596  Biso   1.000  N
  N94      1.0000 0.81030  0.04460  0.36404  Biso   1.000  N
  N95      1.0000 0.31030  0.45540  0.86404  Biso   1.000  N
  N96      1.0000 0.18970  0.95540  0.63596  Biso   1.000  N
  N97      1.0000 0.30650  0.36600  0.22900  Biso   1.000  N
  N98      1.0000 0.19350  0.86600  0.27100  Biso   1.000  N
  N99      1.0000 0.69350  0.63400  0.77100  Biso   1.000  N
  N100     1.0000 0.80650  0.13400  0.72900  Biso   1.000  N
  Na1      1.0000 0.81544  0.20751  0.21931  Biso   1.000  Na
  Na2      1.0000 0.68456  0.70751  0.28069  Biso   1.000  Na
  Na3      1.0000 0.18456  0.79249  0.78069  Biso   1.000  Na
  Na4      1.0000 0.31544  0.29249  0.71931  Biso   1.000  Na
  Na5      1.0000 0.67093  0.20904  0.29166  Biso   1.000  Na
  Na6      1.0000 0.82907  0.70904  0.20834  Biso   1.000  Na
  Na7      1.0000 0.32907  0.79096  0.70834  Biso   1.000  Na
  Na8      1.0000 0.17093  0.29096  0.79166  Biso   1.000  Na
  O1       1.0000 0.81790  0.28950  0.14884  Biso   1.000  O
  O2       1.0000 0.68210  0.78950  0.35116  Biso   1.000  O
  O3       1.0000 0.18210  0.71050  0.85116  Biso   1.000  O
  O4       1.0000 0.31790  0.21050  0.64884  Biso   1.000  O
  O5       1.0000 0.94780  0.23890  0.25616  Biso   1.000  O
  O6       1.0000 0.55220  0.73890  0.24384  Biso   1.000  O
  O7       1.0000 0.05220  0.76110  0.74384  Biso   1.000  O
  O8       1.0000 0.44780  0.26110  0.75616  Biso   1.000  O
  O9       1.0000 0.88720  0.21850  0.37387  Biso   1.000  O
  O10      1.0000 0.61280  0.71850  0.12613  Biso   1.000  O
  O11      1.0000 0.11280  0.78150  0.62613  Biso   1.000  O
  O12      1.0000 0.38720  0.28150  0.87387  Biso   1.000  O
  O13      1.0000 0.69350  0.24300  0.38411  Biso   1.000  O
  O14      1.0000 0.80650  0.74300  0.11589  Biso   1.000  O
  O15      1.0000 0.30650  0.75700  0.61589  Biso   1.000  O
  O16      1.0000 0.19350  0.25700  0.88411  Biso   1.000  O
  O17      1.0000 0.56790  0.29380  0.27578  Biso   1.000  O
  O18      1.0000 0.93210  0.79380  0.22422  Biso   1.000  O
  O19      1.0000 0.43210  0.70620  0.72422  Biso   1.000  O
  O20      1.0000 0.06790  0.20620  0.77578  Biso   1.000  O
  O21      1.0000 0.62530  0.31200  0.15229  Biso   1.000  O
  O22      1.0000 0.87470  0.81200  0.34771  Biso   1.000  O
  O23      1.0000 0.37470  0.68800  0.84771  Biso   1.000  O
  O24      1.0000 0.12530  0.18800  0.65229  Biso   1.000  O
  O25      1.0000 0.89170  0.60420  0.19190  Biso   1.000  O
  O26      1.0000 0.60830  0.10420  0.30810  Biso   1.000  O
  O27      1.0000 0.10830  0.39580  0.80810  Biso   1.000  O
  O28      1.0000 0.39170  0.89580  0.69190  Biso   1.000  O
  O29      1.0000 0.01290  0.53970  0.30209  Biso   1.000  O
  O30      1.0000 0.48710  0.03970  0.19791  Biso   1.000  O
  O31      1.0000 0.98710  0.46030  0.69791  Biso   1.000  O
  O32      1.0000 0.51290  0.96030  0.80209  Biso   1.000  O
  O33      1.0000 0.97040  0.52890  0.42602  Biso   1.000  O
  O34      1.0000 0.52960  0.02890  0.07398  Biso   1.000  O
  O35      1.0000 0.02960  0.47110  0.57398  Biso   1.000  O
  O36      1.0000 0.47040  0.97110  0.92602  Biso   1.000  O
  O37      1.0000 0.76980  0.55620  0.42830  Biso   1.000  O
  O38      1.0000 0.73020  0.05620  0.07170  Biso   1.000  O
  O39      1.0000 0.23020  0.44380  0.57170  Biso   1.000  O
  O40      1.0000 0.26980  0.94380  0.92830  Biso   1.000  O
  O41      1.0000 0.63510  0.60913  0.32166  Biso   1.000  O
  O42      1.0000 0.86490  0.10913  0.17834  Biso   1.000  O
  O43      1.0000 0.36490  0.39087  0.67834  Biso   1.000  O
  O44      1.0000 0.13510  0.89087  0.82166  Biso   1.000  O
  O45      1.0000 0.70420  0.62320  0.20622  Biso   1.000  O
  O46      1.0000 0.79580  0.12320  0.29378  Biso   1.000  O
  O47      1.0000 0.29580  0.37680  0.79378  Biso   1.000  O
  O48      1.0000 0.20420  0.87680  0.70622  Biso   1.000  O
  O49      1.0000 0.23040  0.48270  0.19125  Biso   1.000  O
  O50      1.0000 0.26960  0.98270  0.30875  Biso   1.000  O
  O51      1.0000 0.76960  0.51730  0.80875  Biso   1.000  O
  O52      1.0000 0.73040  0.01730  0.69125  Biso   1.000  O
  O53      1.0000 0.28080  0.39090  0.43885  Biso   1.000  O
  O54      1.0000 0.21920  0.89090  0.06115  Biso   1.000  O
  O55      1.0000 0.71920  0.60910  0.56115  Biso   1.000  O
  O56      1.0000 0.78080  0.10910  0.93885  Biso   1.000  O
  O57      1.0000 0.40660  0.44150  0.43232  Biso   1.000  O
  O58      1.0000 0.09340  0.94150  0.06768  Biso   1.000  O
  O59      1.0000 0.59340  0.55850  0.56768  Biso   1.000  O
  O60      1.0000 0.90660  0.05850  0.93232  Biso   1.000  O
  O61      1.0000 0.29870  0.51660  0.44083  Biso   1.000  O
  O62      1.0000 0.20130  0.01660  0.05917  Biso   1.000  O
  O63      1.0000 0.70130  0.48340  0.55917  Biso   1.000  O
  O64      1.0000 0.79870  0.98340  0.94083  Biso   1.000  O
  O65      1.0000 0.25750  0.45700  0.09336  Biso   1.000  O
  O66      1.0000 0.24250  0.95700  0.40664  Biso   1.000  O
  O67      1.0000 0.74250  0.54300  0.90664  Biso   1.000  O
  O68      1.0000 0.75750  0.04300  0.59336  Biso   1.000  O
  O69      1.0000 0.27900  0.48980  0.01681  Biso   1.000  O
  O70      1.0000 0.22100  0.98980  0.48319  Biso   1.000  O
  O71      1.0000 0.72100  0.51020  0.98319  Biso   1.000  O
  O72      1.0000 0.77900  0.01020  0.51681  Biso   1.000  O
  O73      1.0000 0.32380  0.32370  0.12629  Biso   1.000  O
  O74      1.0000 0.17620  0.82370  0.37371  Biso   1.000  O
  O75      1.0000 0.67620  0.67630  0.87371  Biso   1.000  O
  O76      1.0000 0.82380  0.17630  0.62629  Biso   1.000  O
  O77      1.0000 0.78150  0.28600  0.28688  Biso   1.000  O
  O78      1.0000 0.71850  0.78600  0.21312  Biso   1.000  O
  O79      1.0000 0.21850  0.71400  0.71312  Biso   1.000  O
  O80      1.0000 0.28150  0.21400  0.78688  Biso   1.000  O
  H173     1.0000 0.82040  0.28690  0.31850  Biso   1.000  H
  H174     1.0000 0.67960  0.78690  0.18150  Biso   1.000  H
  H175     1.0000 0.17960  0.71310  0.68150  Biso   1.000  H
  H176     1.0000 0.32040  0.21310  0.81850  Biso   1.000  H
  H177     1.0000 0.76730  0.33440  0.27470  Biso   1.000  H
  H178     1.0000 0.73270  0.83440  0.22530  Biso   1.000  H
  H179     1.0000 0.23270  0.66560  0.72530  Biso   1.000  H
  H180     1.0000 0.26730  0.16560  0.77470  Biso   1.000  H
  O81      1.0000 0.67950  0.18810  0.20301  Biso   1.000  O
  O82      1.0000 0.82050  0.68810  0.29699  Biso   1.000  O
  O83      1.0000 0.32050  0.81190  0.79699  Biso   1.000  O
  O84      1.0000 0.17950  0.31190  0.70301  Biso   1.000  O
  H181     1.0000 0.66500  0.13940  0.19160  Biso   1.000  H
  H182     1.0000 0.83500  0.63940  0.30840  Biso   1.000  H
  H183     1.0000 0.33500  0.86060  0.80840  Biso   1.000  H
  H184     1.0000 0.16500  0.36060  0.69160  Biso   1.000  H
  H185     1.0000 0.65100  0.22320  0.17950  Biso   1.000  H
  H186     1.0000 0.84900  0.72320  0.32050  Biso   1.000  H
  H187     1.0000 0.34900  0.77680  0.82050  Biso   1.000  H
  H188     1.0000 0.15100  0.27680  0.67950  Biso   1.000  H
  O85      1.0000 0.90410  0.64860  0.04110  Biso   1.000  O
  O86      1.0000 0.59590  0.14860  0.45890  Biso   1.000  O
  O87      1.0000 0.09590  0.35140  0.95890  Biso   1.000  O
  O88      1.0000 0.40410  0.85140  0.54110  Biso   1.000  O
  H189     1.0000 0.88320  0.69020  0.03990  Biso   1.000  H
  H190     1.0000 0.61680  0.19020  0.46010  Biso   1.000  H
  H191     1.0000 0.11680  0.30980  0.96010  Biso   1.000  H
  H192     1.0000 0.38320  0.80980  0.53990  Biso   1.000  H
  H193     1.0000 0.88830  0.62620  0.01270  Biso   1.000  H
  H194     1.0000 0.61170  0.12620  0.48730  Biso   1.000  H
  H195     1.0000 0.11170  0.37380  0.98730  Biso   1.000  H
  H196     1.0000 0.38830  0.87380  0.51270  Biso   1.000  H
  O89      1.0000 0.91840  0.33280  0.03300  Biso   1.000  O
  O90      1.0000 0.58160  0.83280  0.46700  Biso   1.000  O
  O91      1.0000 0.08160  0.66720  0.96700  Biso   1.000  O
  O92      1.0000 0.41840  0.16720  0.53300  Biso   1.000  O
  H197     1.0000 0.93420  0.31880  0.00530  Biso   1.000  H
  H198     1.0000 0.56580  0.81880  0.49470  Biso   1.000  H
  H199     1.0000 0.06580  0.68120  0.99470  Biso   1.000  H
  H200     1.0000 0.43420  0.18120  0.50530  Biso   1.000  H
  H201     1.0000 0.95000  0.31770  0.05950  Biso   1.000  H
  H202     1.0000 0.55000  0.81770  0.44050  Biso   1.000  H
  H203     1.0000 0.05000  0.68230  0.94050  Biso   1.000  H
  H204     1.0000 0.45000  0.18230  0.55950  Biso   1.000  H
  O93      1.0000 0.83170  0.38720  0.85560  Biso   1.000  O
  O94      1.0000 0.66830  0.88720  0.64440  Biso   1.000  O
  O95      1.0000 0.16830  0.61280  0.14440  Biso   1.000  O
  O96      1.0000 0.33170  0.11280  0.35560  Biso   1.000  O
  H205     1.0000 0.78900  0.40860  0.85900  Biso   1.000  H
  H206     1.0000 0.71100  0.90860  0.64100  Biso   1.000  H
  H207     1.0000 0.21100  0.59140  0.14100  Biso   1.000  H
  H208     1.0000 0.28900  0.09140  0.35900  Biso   1.000  H
  H209     1.0000 0.83460  0.38520  0.82330  Biso   1.000  H
  H210     1.0000 0.66540  0.88520  0.67670  Biso   1.000  H
  H211     1.0000 0.16540  0.61480  0.17670  Biso   1.000  H
  H212     1.0000 0.33460  0.11480  0.32330  Biso   1.000  H
  O97      1.0000 0.69420  0.25740  0.57070  Biso   1.000  O
  O98      1.0000 0.80580  0.75740  0.92930  Biso   1.000  O
  O99      1.0000 0.30580  0.74260  0.42930  Biso   1.000  O
  O100     1.0000 0.19420  0.24260  0.07070  Biso   1.000  O
  H213     1.0000 0.68340  0.29380  0.55090  Biso   1.000  H
  H214     1.0000 0.81660  0.79380  0.94910  Biso   1.000  H
  H215     1.0000 0.31660  0.70620  0.44910  Biso   1.000  H
  H216     1.0000 0.18340  0.20620  0.05090  Biso   1.000  H
  H217     1.0000 0.73050  0.23290  0.56030  Biso   1.000  H
  H218     1.0000 0.76950  0.73290  0.93970  Biso   1.000  H
  H219     1.0000 0.26950  0.76710  0.43970  Biso   1.000  H
  H220     1.0000 0.23050  0.26710  0.06030  Biso   1.000  H
  O101     1.0000 0.56690  0.35710  0.68910  Biso   1.000  O
  O102     1.0000 0.93310  0.85710  0.81090  Biso   1.000  O
  O103     1.0000 0.43310  0.64290  0.31090  Biso   1.000  O
  O104     1.0000 0.06690  0.14290  0.18910  Biso   1.000  O
  H221     1.0000 0.51800  0.36120  0.67750  Biso   1.000  H
  H222     1.0000 0.98200  0.86120  0.82250  Biso   1.000  H
  H223     1.0000 0.48200  0.63880  0.32250  Biso   1.000  H
  H224     1.0000 0.01800  0.13880  0.17750  Biso   1.000  H
  H225     1.0000 0.57330  0.32980  0.71580  Biso   1.000  H
  H226     1.0000 0.92670  0.82980  0.78420  Biso   1.000  H
  H227     1.0000 0.42670  0.67020  0.28420  Biso   1.000  H
  H228     1.0000 0.07330  0.17020  0.21580  Biso   1.000  H
  O105     1.0000 0.47270  0.34190  0.51055  Biso   1.000  O
  O106     1.0000 0.02730  0.84190  0.98945  Biso   1.000  O
  O107     1.0000 0.52730  0.65810  0.48945  Biso   1.000  O
  O108     1.0000 0.97270  0.15810  0.01055  Biso   1.000  O
  H229     1.0000 0.42730  0.36140  0.50450  Biso   1.000  H
  H230     1.0000 0.07270  0.86140  0.99550  Biso   1.000  H
  H231     1.0000 0.57270  0.63860  0.49550  Biso   1.000  H
  H232     1.0000 0.92730  0.13860  0.00450  Biso   1.000  H
  H233     1.0000 0.50390  0.36440  0.49390  Biso   1.000  H
  H234     1.0000 0.99610  0.86440  0.00610  Biso   1.000  H
  H235     1.0000 0.49610  0.63560  0.50610  Biso   1.000  H
  H236     1.0000 0.00390  0.13560  0.99390  Biso   1.000  H
  O109     1.0000 0.21630  0.27060  0.46620  Biso   1.000  O
  O110     1.0000 0.28370  0.77060  0.03380  Biso   1.000  O
  O111     1.0000 0.78370  0.72940  0.53380  Biso   1.000  O
  O112     1.0000 0.71630  0.22940  0.96620  Biso   1.000  O
  H237     1.0000 0.26400  0.28410  0.47430  Biso   1.000  H
  H238     1.0000 0.23600  0.78410  0.02570  Biso   1.000  H
  H239     1.0000 0.73600  0.71590  0.52570  Biso   1.000  H
  H240     1.0000 0.76400  0.21590  0.97430  Biso   1.000  H
  H241     1.0000 0.21120  0.22850  0.47800  Biso   1.000  H
  H242     1.0000 0.28880  0.72850  0.02200  Biso   1.000  H
  H243     1.0000 0.78880  0.77150  0.52200  Biso   1.000  H
  H244     1.0000 0.71120  0.27150  0.97800  Biso   1.000  H
  O113     1.0000 0.18850  0.18690  0.30450  Biso   1.000  O
  O114     1.0000 0.31150  0.68690  0.19550  Biso   1.000  O
  O115     1.0000 0.81150  0.81310  0.69550  Biso   1.000  O
  O116     1.0000 0.68850  0.31310  0.80450  Biso   1.000  O
  H245     1.0000 0.19890  0.21970  0.28380  Biso   1.000  H
  H246     1.0000 0.30110  0.71970  0.21620  Biso   1.000  H
  H247     1.0000 0.80110  0.78030  0.71620  Biso   1.000  H
  H248     1.0000 0.69890  0.28030  0.78380  Biso   1.000  H
  H249     1.0000 0.21950  0.15140  0.30320  Biso   1.000  H
  H250     1.0000 0.28050  0.65140  0.19680  Biso   1.000  H
  H251     1.0000 0.78050  0.84860  0.69680  Biso   1.000  H
  H252     1.0000 0.71950  0.34860  0.80320  Biso   1.000  H
  O117     1.0000 0.03060  0.67640  0.10840  Biso   1.000  O
  O118     1.0000 0.46940  0.17640  0.39160  Biso   1.000  O
  O119     1.0000 0.96940  0.32360  0.89160  Biso   1.000  O
  O120     1.0000 0.53060  0.82360  0.60840  Biso   1.000  O
  H253     1.0000 0.04300  0.63710  0.12450  Biso   1.000  H
  H254     1.0000 0.45700  0.13710  0.37550  Biso   1.000  H
  H255     1.0000 0.95700  0.36290  0.87550  Biso   1.000  H
  H256     1.0000 0.54300  0.86290  0.62450  Biso   1.000  H
  H257     1.0000 0.02230  0.66860  0.07570  Biso   1.000  H
  H258     1.0000 0.47770  0.16860  0.42430  Biso   1.000  H
  H259     1.0000 0.97770  0.33140  0.92430  Biso   1.000  H
  H260     1.0000 0.52230  0.83140  0.57570  Biso   1.000  H
  O121     1.0000 0.08600  0.46120  0.05840  Biso   1.000  O
  O122     1.0000 0.41400  0.96120  0.44160  Biso   1.000  O
  O123     1.0000 0.91400  0.53880  0.94160  Biso   1.000  O
  O124     1.0000 0.58600  0.03880  0.55840  Biso   1.000  O
  H261     1.0000 0.07560  0.50370  0.06750  Biso   1.000  H
  H262     1.0000 0.42440  0.00370  0.43250  Biso   1.000  H
  H263     1.0000 0.92440  0.49630  0.93250  Biso   1.000  H
  H264     1.0000 0.57560  0.99630  0.56750  Biso   1.000  H
  H265     1.0000 0.08280  0.45960  0.02540  Biso   1.000  H
  H266     1.0000 0.41720  0.95960  0.47460  Biso   1.000  H
  H267     1.0000 0.91720  0.54040  0.97460  Biso   1.000  H
  H268     1.0000 0.58280  0.04040  0.52540  Biso   1.000  H
  O125     1.0000 0.77750  0.44000  0.27330  Biso   1.000  O
  O126     1.0000 0.72250  0.94000  0.22670  Biso   1.000  O
  O127     1.0000 0.22250  0.56000  0.72670  Biso   1.000  O
  O128     1.0000 0.27750  0.06000  0.77330  Biso   1.000  O
  H269     1.0000 0.72940  0.45070  0.26270  Biso   1.000  H
  H270     1.0000 0.77060  0.95070  0.23730  Biso   1.000  H
  H271     1.0000 0.27060  0.54930  0.73730  Biso   1.000  H
  H272     1.0000 0.22940  0.04930  0.76270  Biso   1.000  H
  H273     1.0000 0.80080  0.47520  0.29010  Biso   1.000  H
  H274     1.0000 0.69920  0.97520  0.20990  Biso   1.000  H
  H275     1.0000 0.19920  0.52480  0.70990  Biso   1.000  H
  H276     1.0000 0.30080  0.02480  0.79010  Biso   1.000  H
  O129     1.0000 0.86140  0.55110  0.33110  Biso   1.000  O
  O130     1.0000 0.63860  0.05110  0.16890  Biso   1.000  O
  O131     1.0000 0.13860  0.44890  0.66890  Biso   1.000  O
  O132     1.0000 0.36140  0.94890  0.83110  Biso   1.000  O
  H277     1.0000 0.85540  0.50940  0.31740  Biso   1.000  H
  H278     1.0000 0.64460  0.00940  0.18260  Biso   1.000  H
  H279     1.0000 0.14460  0.49060  0.68260  Biso   1.000  H
  H280     1.0000 0.35540  0.99060  0.81740  Biso   1.000  H
  H281     1.0000 0.87070  0.54730  0.36420  Biso   1.000  H
  H282     1.0000 0.62930  0.04730  0.13580  Biso   1.000  H
  H283     1.0000 0.12930  0.45270  0.63580  Biso   1.000  H
  H284     1.0000 0.37070  0.95270  0.86420  Biso   1.000  H
  S1       1.0000 0.32194  0.44915  0.42239  Biso   1.000  S
  S2       1.0000 0.17806  0.94915  0.07761  Biso   1.000  S
  S3       1.0000 0.67806  0.55085  0.57761  Biso   1.000  S
  S4       1.0000 0.82194  0.05085  0.92239  Biso   1.000  S
