data_image0
_cell_length_a       45.724
_cell_length_b       45.724
_cell_length_c       10.778
_cell_angle_alpha    90
_cell_angle_beta     90
_cell_angle_gamma    120

_symmetry_space_group_name_H-M    "P 1"
_symmetry_int_tables_number       1

loop_
  _symmetry_equiv_pos_as_xyz
  'x, y, z'

loop_
  _atom_site_label
  _atom_site_occupancy
  _atom_site_fract_x
  _atom_site_fract_y
  _atom_site_fract_z
  _atom_site_thermal_displace_type
  _atom_site_B_iso_or_equiv
  _atom_site_type_symbol
  Cu1      1.0000 0.15472  0.30946  0.42079  Biso   1.000  Cu
  Cu2      1.0000 0.69054  0.84526  0.42079  Biso   1.000  Cu
  Cu3      1.0000 0.15474  0.84528  0.42079  Biso   1.000  Cu
  Cu4      1.0000 0.82139  0.64279  0.75412  Biso   1.000  Cu
  Cu5      1.0000 0.35721  0.17859  0.75412  Biso   1.000  Cu
  Cu6      1.0000 0.82141  0.17861  0.75412  Biso   1.000  Cu
  Cu7      1.0000 0.48805  0.97613  0.08746  Biso   1.000  Cu
  Cu8      1.0000 0.02387  0.51193  0.08746  Biso   1.000  Cu
  Cu9      1.0000 0.48807  0.51195  0.08746  Biso   1.000  Cu
  Cu10     1.0000 0.84528  0.69054  0.57921  Biso   1.000  Cu
  Cu11     1.0000 0.30946  0.15474  0.57921  Biso   1.000  Cu
  Cu12     1.0000 0.84526  0.15472  0.57921  Biso   1.000  Cu
  Cu13     1.0000 0.51195  0.02387  0.91254  Biso   1.000  Cu
  Cu14     1.0000 0.97613  0.48807  0.91254  Biso   1.000  Cu
  Cu15     1.0000 0.51193  0.48805  0.91254  Biso   1.000  Cu
  Cu16     1.0000 0.17861  0.35721  0.24588  Biso   1.000  Cu
  Cu17     1.0000 0.64279  0.82141  0.24588  Biso   1.000  Cu
  Cu18     1.0000 0.17859  0.82139  0.24588  Biso   1.000  Cu
  O1       1.0000 0.11451  0.28892  0.31850  Biso   1.000  O
  O2       1.0000 0.71108  0.82559  0.31850  Biso   1.000  O
  O3       1.0000 0.17441  0.88549  0.31850  Biso   1.000  O
  O4       1.0000 0.78118  0.62225  0.65183  Biso   1.000  O
  O5       1.0000 0.37775  0.15892  0.65183  Biso   1.000  O
  O6       1.0000 0.84108  0.21882  0.65183  Biso   1.000  O
  O7       1.0000 0.44784  0.95559  0.98517  Biso   1.000  O
  O8       1.0000 0.04441  0.49226  0.98517  Biso   1.000  O
  O9       1.0000 0.50774  0.55216  0.98517  Biso   1.000  O
  O10      1.0000 0.88549  0.71108  0.68150  Biso   1.000  O
  O11      1.0000 0.28892  0.17441  0.68150  Biso   1.000  O
  O12      1.0000 0.82559  0.11451  0.68150  Biso   1.000  O
  O13      1.0000 0.55216  0.04441  0.01483  Biso   1.000  O
  O14      1.0000 0.95559  0.50774  0.01483  Biso   1.000  O
  O15      1.0000 0.49226  0.44784  0.01483  Biso   1.000  O
  O16      1.0000 0.21882  0.37775  0.34817  Biso   1.000  O
  O17      1.0000 0.62225  0.84108  0.34817  Biso   1.000  O
  O18      1.0000 0.15892  0.78118  0.34817  Biso   1.000  O
  O19      1.0000 0.13462  0.32928  0.17060  Biso   1.000  O
  O20      1.0000 0.67072  0.80534  0.17060  Biso   1.000  O
  O21      1.0000 0.19466  0.86538  0.17060  Biso   1.000  O
  O22      1.0000 0.80129  0.66261  0.50393  Biso   1.000  O
  O23      1.0000 0.33739  0.13867  0.50393  Biso   1.000  O
  O24      1.0000 0.86133  0.19871  0.50393  Biso   1.000  O
  O25      1.0000 0.46795  0.99595  0.83727  Biso   1.000  O
  O26      1.0000 0.00405  0.47201  0.83727  Biso   1.000  O
  O27      1.0000 0.52799  0.53205  0.83727  Biso   1.000  O
  O28      1.0000 0.86538  0.67072  0.82940  Biso   1.000  O
  O29      1.0000 0.32928  0.19466  0.82940  Biso   1.000  O
  O30      1.0000 0.80534  0.13462  0.82940  Biso   1.000  O
  O31      1.0000 0.53205  0.00405  0.16273  Biso   1.000  O
  O32      1.0000 0.99595  0.52799  0.16273  Biso   1.000  O
  O33      1.0000 0.47201  0.46795  0.16273  Biso   1.000  O
  O34      1.0000 0.19871  0.33739  0.49607  Biso   1.000  O
  O35      1.0000 0.66261  0.86133  0.49607  Biso   1.000  O
  O36      1.0000 0.13867  0.80129  0.49607  Biso   1.000  O
  O37      1.0000 0.88548  0.17473  0.68190  Biso   1.000  O
  O38      1.0000 0.82527  0.71075  0.68190  Biso   1.000  O
  O39      1.0000 0.28925  0.11452  0.68190  Biso   1.000  O
  O40      1.0000 0.55215  0.50806  0.01523  Biso   1.000  O
  O41      1.0000 0.49194  0.04408  0.01523  Biso   1.000  O
  O42      1.0000 0.95592  0.44785  0.01523  Biso   1.000  O
  O43      1.0000 0.21881  0.84140  0.34857  Biso   1.000  O
  O44      1.0000 0.15860  0.37742  0.34857  Biso   1.000  O
  O45      1.0000 0.62258  0.78119  0.34857  Biso   1.000  O
  O46      1.0000 0.11452  0.82527  0.31810  Biso   1.000  O
  O47      1.0000 0.17473  0.28925  0.31810  Biso   1.000  O
  O48      1.0000 0.71075  0.88548  0.31810  Biso   1.000  O
  O49      1.0000 0.78119  0.15860  0.65143  Biso   1.000  O
  O50      1.0000 0.84140  0.62258  0.65143  Biso   1.000  O
  O51      1.0000 0.37742  0.21881  0.65143  Biso   1.000  O
  O52      1.0000 0.44785  0.49194  0.98477  Biso   1.000  O
  O53      1.0000 0.50806  0.95592  0.98477  Biso   1.000  O
  O54      1.0000 0.04408  0.55215  0.98477  Biso   1.000  O
  O55      1.0000 0.86536  0.19458  0.82930  Biso   1.000  O
  O56      1.0000 0.80542  0.67078  0.82930  Biso   1.000  O
  O57      1.0000 0.32922  0.13464  0.82930  Biso   1.000  O
  O58      1.0000 0.53203  0.52791  0.16263  Biso   1.000  O
  O59      1.0000 0.47209  0.00411  0.16263  Biso   1.000  O
  O60      1.0000 0.99589  0.46797  0.16263  Biso   1.000  O
  O61      1.0000 0.19869  0.86125  0.49597  Biso   1.000  O
  O62      1.0000 0.13875  0.33745  0.49597  Biso   1.000  O
  O63      1.0000 0.66255  0.80131  0.49597  Biso   1.000  O
  O64      1.0000 0.13464  0.80542  0.17070  Biso   1.000  O
  O65      1.0000 0.19458  0.32922  0.17070  Biso   1.000  O
  O66      1.0000 0.67078  0.86536  0.17070  Biso   1.000  O
  O67      1.0000 0.80131  0.13875  0.50403  Biso   1.000  O
  O68      1.0000 0.86125  0.66255  0.50403  Biso   1.000  O
  O69      1.0000 0.33745  0.19869  0.50403  Biso   1.000  O
  O70      1.0000 0.46797  0.47209  0.83737  Biso   1.000  O
  O71      1.0000 0.52791  0.99589  0.83737  Biso   1.000  O
  O72      1.0000 0.00411  0.53203  0.83737  Biso   1.000  O
  C1       1.0000 0.01693  0.25191  0.03270  Biso   1.000  C
  C2       1.0000 0.74809  0.76502  0.03270  Biso   1.000  C
  C3       1.0000 0.23498  0.98307  0.03270  Biso   1.000  C
  C4       1.0000 0.68360  0.58524  0.36603  Biso   1.000  C
  C5       1.0000 0.41476  0.09835  0.36603  Biso   1.000  C
  C6       1.0000 0.90165  0.31640  0.36603  Biso   1.000  C
  C7       1.0000 0.35026  0.91858  0.69937  Biso   1.000  C
  C8       1.0000 0.08142  0.43169  0.69937  Biso   1.000  C
  C9       1.0000 0.56831  0.64974  0.69937  Biso   1.000  C
  C10      1.0000 0.98307  0.74809  0.96730  Biso   1.000  C
  C11      1.0000 0.25191  0.23498  0.96730  Biso   1.000  C
  C12      1.0000 0.76502  0.01693  0.96730  Biso   1.000  C
  C13      1.0000 0.64974  0.08142  0.30063  Biso   1.000  C
  C14      1.0000 0.91858  0.56831  0.30063  Biso   1.000  C
  C15      1.0000 0.43169  0.35026  0.30063  Biso   1.000  C
  C16      1.0000 0.31640  0.41476  0.63397  Biso   1.000  C
  C17      1.0000 0.58524  0.90165  0.63397  Biso   1.000  C
  C18      1.0000 0.09835  0.68360  0.63397  Biso   1.000  C
  C19      1.0000 0.02208  0.23912  0.13970  Biso   1.000  C
  C20      1.0000 0.76088  0.78296  0.13970  Biso   1.000  C
  C21      1.0000 0.21704  0.97792  0.13970  Biso   1.000  C
  C22      1.0000 0.68875  0.57245  0.47303  Biso   1.000  C
  C23      1.0000 0.42755  0.11629  0.47303  Biso   1.000  C
  C24      1.0000 0.88371  0.31125  0.47303  Biso   1.000  C
  C25      1.0000 0.35541  0.90579  0.80637  Biso   1.000  C
  C26      1.0000 0.09421  0.44963  0.80637  Biso   1.000  C
  C27      1.0000 0.55037  0.64459  0.80637  Biso   1.000  C
  C28      1.0000 0.97792  0.76088  0.86030  Biso   1.000  C
  C29      1.0000 0.23912  0.21704  0.86030  Biso   1.000  C
  C30      1.0000 0.78296  0.02208  0.86030  Biso   1.000  C
  C31      1.0000 0.64459  0.09421  0.19363  Biso   1.000  C
  C32      1.0000 0.90579  0.55037  0.19363  Biso   1.000  C
  C33      1.0000 0.44963  0.35541  0.19363  Biso   1.000  C
  C34      1.0000 0.31125  0.42755  0.52697  Biso   1.000  C
  C35      1.0000 0.57245  0.88371  0.52697  Biso   1.000  C
  C36      1.0000 0.11629  0.68875  0.52697  Biso   1.000  C
  C37      1.0000 0.05258  0.25478  0.20230  Biso   1.000  C
  C38      1.0000 0.74522  0.79780  0.20230  Biso   1.000  C
  C39      1.0000 0.20220  0.94742  0.20230  Biso   1.000  C
  C40      1.0000 0.71925  0.58811  0.53563  Biso   1.000  C
  C41      1.0000 0.41189  0.13113  0.53563  Biso   1.000  C
  C42      1.0000 0.86887  0.28075  0.53563  Biso   1.000  C
  C43      1.0000 0.38591  0.92145  0.86897  Biso   1.000  C
  C44      1.0000 0.07855  0.46447  0.86897  Biso   1.000  C
  C45      1.0000 0.53553  0.61409  0.86897  Biso   1.000  C
  C46      1.0000 0.94742  0.74522  0.79770  Biso   1.000  C
  C47      1.0000 0.25478  0.20220  0.79770  Biso   1.000  C
  C48      1.0000 0.79780  0.05258  0.79770  Biso   1.000  C
  C49      1.0000 0.61409  0.07855  0.13103  Biso   1.000  C
  C50      1.0000 0.92145  0.53553  0.13103  Biso   1.000  C
  C51      1.0000 0.46447  0.38591  0.13103  Biso   1.000  C
  C52      1.0000 0.28075  0.41189  0.46437  Biso   1.000  C
  C53      1.0000 0.58811  0.86887  0.46437  Biso   1.000  C
  C54      1.0000 0.13113  0.71925  0.46437  Biso   1.000  C
  H1       1.0000 0.05540  0.24540  0.27690  Biso   1.000  H
  H2       1.0000 0.75460  0.81000  0.27690  Biso   1.000  H
  H3       1.0000 0.19000  0.94460  0.27690  Biso   1.000  H
  H4       1.0000 0.72207  0.57873  0.61023  Biso   1.000  H
  H5       1.0000 0.42127  0.14333  0.61023  Biso   1.000  H
  H6       1.0000 0.85667  0.27793  0.61023  Biso   1.000  H
  H7       1.0000 0.38873  0.91207  0.94357  Biso   1.000  H
  H8       1.0000 0.08793  0.47667  0.94357  Biso   1.000  H
  H9       1.0000 0.52333  0.61127  0.94357  Biso   1.000  H
  H10      1.0000 0.94460  0.75460  0.72310  Biso   1.000  H
  H11      1.0000 0.24540  0.19000  0.72310  Biso   1.000  H
  H12      1.0000 0.81000  0.05540  0.72310  Biso   1.000  H
  H13      1.0000 0.61127  0.08793  0.05643  Biso   1.000  H
  H14      1.0000 0.91207  0.52333  0.05643  Biso   1.000  H
  H15      1.0000 0.47667  0.38873  0.05643  Biso   1.000  H
  H16      1.0000 0.27793  0.42127  0.38977  Biso   1.000  H
  H17      1.0000 0.57873  0.85667  0.38977  Biso   1.000  H
  H18      1.0000 0.14333  0.72207  0.38977  Biso   1.000  H
  C55      1.0000 0.07861  0.28396  0.15490  Biso   1.000  C
  C56      1.0000 0.71604  0.79465  0.15490  Biso   1.000  C
  C57      1.0000 0.20535  0.92139  0.15490  Biso   1.000  C
  C58      1.0000 0.74528  0.61729  0.48823  Biso   1.000  C
  C59      1.0000 0.38271  0.12798  0.48823  Biso   1.000  C
  C60      1.0000 0.87202  0.25472  0.48823  Biso   1.000  C
  C61      1.0000 0.41194  0.95063  0.82157  Biso   1.000  C
  C62      1.0000 0.04937  0.46132  0.82157  Biso   1.000  C
  C63      1.0000 0.53868  0.58806  0.82157  Biso   1.000  C
  C64      1.0000 0.92139  0.71604  0.84510  Biso   1.000  C
  C65      1.0000 0.28396  0.20535  0.84510  Biso   1.000  C
  C66      1.0000 0.79465  0.07861  0.84510  Biso   1.000  C
  C67      1.0000 0.58806  0.04937  0.17843  Biso   1.000  C
  C68      1.0000 0.95063  0.53868  0.17843  Biso   1.000  C
  C69      1.0000 0.46132  0.41194  0.17843  Biso   1.000  C
  C70      1.0000 0.25472  0.38271  0.51177  Biso   1.000  C
  C71      1.0000 0.61729  0.87202  0.51177  Biso   1.000  C
  C72      1.0000 0.12798  0.74528  0.51177  Biso   1.000  C
  C73      1.0000 0.07415  0.29810  0.04580  Biso   1.000  C
  C74      1.0000 0.70190  0.77605  0.04580  Biso   1.000  C
  C75      1.0000 0.22395  0.92585  0.04580  Biso   1.000  C
  C76      1.0000 0.74082  0.63143  0.37913  Biso   1.000  C
  C77      1.0000 0.36857  0.10938  0.37913  Biso   1.000  C
  C78      1.0000 0.89062  0.25918  0.37913  Biso   1.000  C
  C79      1.0000 0.40748  0.96477  0.71247  Biso   1.000  C
  C80      1.0000 0.03523  0.44272  0.71247  Biso   1.000  C
  C81      1.0000 0.55728  0.59252  0.71247  Biso   1.000  C
  C82      1.0000 0.92585  0.70190  0.95420  Biso   1.000  C
  C83      1.0000 0.29810  0.22395  0.95420  Biso   1.000  C
  C84      1.0000 0.77605  0.07415  0.95420  Biso   1.000  C
  C85      1.0000 0.59252  0.03523  0.28753  Biso   1.000  C
  C86      1.0000 0.96477  0.55728  0.28753  Biso   1.000  C
  C87      1.0000 0.44272  0.40748  0.28753  Biso   1.000  C
  C88      1.0000 0.25918  0.36857  0.62087  Biso   1.000  C
  C89      1.0000 0.63143  0.89062  0.62087  Biso   1.000  C
  C90      1.0000 0.10938  0.74082  0.62087  Biso   1.000  C
  H19      1.0000 0.09190  0.31860  0.01300  Biso   1.000  H
  H20      1.0000 0.68140  0.77330  0.01300  Biso   1.000  H
  H21      1.0000 0.22670  0.90810  0.01300  Biso   1.000  H
  H22      1.0000 0.75857  0.65193  0.34633  Biso   1.000  H
  H23      1.0000 0.34807  0.10663  0.34633  Biso   1.000  H
  H24      1.0000 0.89337  0.24143  0.34633  Biso   1.000  H
  H25      1.0000 0.42523  0.98527  0.67967  Biso   1.000  H
  H26      1.0000 0.01473  0.43997  0.67967  Biso   1.000  H
  H27      1.0000 0.56003  0.57477  0.67967  Biso   1.000  H
  H28      1.0000 0.90810  0.68140  0.98700  Biso   1.000  H
  H29      1.0000 0.31860  0.22670  0.98700  Biso   1.000  H
  H30      1.0000 0.77330  0.09190  0.98700  Biso   1.000  H
  H31      1.0000 0.57477  0.01473  0.32033  Biso   1.000  H
  H32      1.0000 0.98527  0.56003  0.32033  Biso   1.000  H
  H33      1.0000 0.43997  0.42523  0.32033  Biso   1.000  H
  H34      1.0000 0.24143  0.34807  0.65367  Biso   1.000  H
  H35      1.0000 0.65193  0.89337  0.65367  Biso   1.000  H
  H36      1.0000 0.10663  0.75857  0.65367  Biso   1.000  H
  C91      1.0000 0.04304  0.28113  0.98770  Biso   1.000  C
  C92      1.0000 0.71887  0.76191  0.98770  Biso   1.000  C
  C93      1.0000 0.23809  0.95696  0.98770  Biso   1.000  C
  C94      1.0000 0.70971  0.61446  0.32103  Biso   1.000  C
  C95      1.0000 0.38554  0.09524  0.32103  Biso   1.000  C
  C96      1.0000 0.90476  0.29029  0.32103  Biso   1.000  C
  C97      1.0000 0.37637  0.94780  0.65437  Biso   1.000  C
  C98      1.0000 0.05220  0.42858  0.65437  Biso   1.000  C
  C99      1.0000 0.57142  0.62363  0.65437  Biso   1.000  C
  C100     1.0000 0.95696  0.71887  0.01230  Biso   1.000  C
  C101     1.0000 0.28113  0.23809  0.01230  Biso   1.000  C
  C102     1.0000 0.76191  0.04304  0.01230  Biso   1.000  C
  C103     1.0000 0.62363  0.05220  0.34563  Biso   1.000  C
  C104     1.0000 0.94780  0.57142  0.34563  Biso   1.000  C
  C105     1.0000 0.42858  0.37637  0.34563  Biso   1.000  C
  C106     1.0000 0.29029  0.38554  0.67897  Biso   1.000  C
  C107     1.0000 0.61446  0.90476  0.67897  Biso   1.000  C
  C108     1.0000 0.09524  0.70971  0.67897  Biso   1.000  C
  H37      1.0000 0.03980  0.29030  0.91320  Biso   1.000  H
  H38      1.0000 0.70970  0.74950  0.91320  Biso   1.000  H
  H39      1.0000 0.25050  0.96020  0.91320  Biso   1.000  H
  H40      1.0000 0.70647  0.62363  0.24653  Biso   1.000  H
  H41      1.0000 0.37637  0.08283  0.24653  Biso   1.000  H
  H42      1.0000 0.91717  0.29353  0.24653  Biso   1.000  H
  H43      1.0000 0.37313  0.95697  0.57987  Biso   1.000  H
  H44      1.0000 0.04303  0.41617  0.57987  Biso   1.000  H
  H45      1.0000 0.58383  0.62687  0.57987  Biso   1.000  H
  H46      1.0000 0.96020  0.70970  0.08680  Biso   1.000  H
  H47      1.0000 0.29030  0.25050  0.08680  Biso   1.000  H
  H48      1.0000 0.74950  0.03980  0.08680  Biso   1.000  H
  H49      1.0000 0.62687  0.04303  0.42013  Biso   1.000  H
  H50      1.0000 0.95697  0.58383  0.42013  Biso   1.000  H
  H51      1.0000 0.41617  0.37313  0.42013  Biso   1.000  H
  H52      1.0000 0.29353  0.37637  0.75347  Biso   1.000  H
  H53      1.0000 0.62363  0.91717  0.75347  Biso   1.000  H
  H54      1.0000 0.08283  0.70647  0.75347  Biso   1.000  H
  C109     1.0000 0.11205  0.30246  0.21910  Biso   1.000  C
  C110     1.0000 0.69754  0.80959  0.21910  Biso   1.000  C
  C111     1.0000 0.19041  0.88795  0.21910  Biso   1.000  C
  C112     1.0000 0.77872  0.63579  0.55243  Biso   1.000  C
  C113     1.0000 0.36421  0.14292  0.55243  Biso   1.000  C
  C114     1.0000 0.85708  0.22128  0.55243  Biso   1.000  C
  C115     1.0000 0.44538  0.96913  0.88577  Biso   1.000  C
  C116     1.0000 0.03087  0.47626  0.88577  Biso   1.000  C
  C117     1.0000 0.52374  0.55462  0.88577  Biso   1.000  C
  C118     1.0000 0.88795  0.69754  0.78090  Biso   1.000  C
  C119     1.0000 0.30246  0.19041  0.78090  Biso   1.000  C
  C120     1.0000 0.80959  0.11205  0.78090  Biso   1.000  C
  C121     1.0000 0.55462  0.03087  0.11423  Biso   1.000  C
  C122     1.0000 0.96913  0.52374  0.11423  Biso   1.000  C
  C123     1.0000 0.47626  0.44538  0.11423  Biso   1.000  C
  C124     1.0000 0.22128  0.36421  0.44757  Biso   1.000  C
  C125     1.0000 0.63579  0.85708  0.44757  Biso   1.000  C
  C126     1.0000 0.14292  0.77872  0.44757  Biso   1.000  C
  C127     1.0000 0.98308  0.23490  0.96910  Biso   1.000  C
  C128     1.0000 0.76510  0.74818  0.96910  Biso   1.000  C
  C129     1.0000 0.25182  0.01692  0.96910  Biso   1.000  C
  C130     1.0000 0.64975  0.56823  0.30243  Biso   1.000  C
  C131     1.0000 0.43177  0.08151  0.30243  Biso   1.000  C
  C132     1.0000 0.91849  0.35025  0.30243  Biso   1.000  C
  C133     1.0000 0.31641  0.90157  0.63577  Biso   1.000  C
  C134     1.0000 0.09843  0.41485  0.63577  Biso   1.000  C
  C135     1.0000 0.58515  0.68359  0.63577  Biso   1.000  C
  C136     1.0000 0.01692  0.76510  0.03090  Biso   1.000  C
  C137     1.0000 0.23490  0.25182  0.03090  Biso   1.000  C
  C138     1.0000 0.74818  0.98308  0.03090  Biso   1.000  C
  C139     1.0000 0.68359  0.09843  0.36423  Biso   1.000  C
  C140     1.0000 0.90157  0.58515  0.36423  Biso   1.000  C
  C141     1.0000 0.41485  0.31641  0.36423  Biso   1.000  C
  C142     1.0000 0.35025  0.43177  0.69757  Biso   1.000  C
  C143     1.0000 0.56823  0.91849  0.69757  Biso   1.000  C
  C144     1.0000 0.08151  0.64975  0.69757  Biso   1.000  C
  C145     1.0000 0.97788  0.21704  0.86020  Biso   1.000  C
  C146     1.0000 0.78296  0.76084  0.86020  Biso   1.000  C
  C147     1.0000 0.23916  0.02212  0.86020  Biso   1.000  C
  C148     1.0000 0.64455  0.55037  0.19353  Biso   1.000  C
  C149     1.0000 0.44963  0.09417  0.19353  Biso   1.000  C
  C150     1.0000 0.90583  0.35545  0.19353  Biso   1.000  C
  C151     1.0000 0.31121  0.88371  0.52687  Biso   1.000  C
  C152     1.0000 0.11629  0.42751  0.52687  Biso   1.000  C
  C153     1.0000 0.57249  0.68879  0.52687  Biso   1.000  C
  C154     1.0000 0.02212  0.78296  0.13980  Biso   1.000  C
  C155     1.0000 0.21704  0.23916  0.13980  Biso   1.000  C
  C156     1.0000 0.76084  0.97788  0.13980  Biso   1.000  C
  C157     1.0000 0.68879  0.11629  0.47313  Biso   1.000  C
  C158     1.0000 0.88371  0.57249  0.47313  Biso   1.000  C
  C159     1.0000 0.42751  0.31121  0.47313  Biso   1.000  C
  C160     1.0000 0.35545  0.44963  0.80647  Biso   1.000  C
  C161     1.0000 0.55037  0.90583  0.80647  Biso   1.000  C
  C162     1.0000 0.09417  0.64455  0.80647  Biso   1.000  C
  H55      1.0000 0.99600  0.21520  0.82600  Biso   1.000  H
  H56      1.0000 0.78480  0.78080  0.82600  Biso   1.000  H
  H57      1.0000 0.21920  0.00400  0.82600  Biso   1.000  H
  H58      1.0000 0.66267  0.54853  0.15933  Biso   1.000  H
  H59      1.0000 0.45147  0.11413  0.15933  Biso   1.000  H
  H60      1.0000 0.88587  0.33733  0.15933  Biso   1.000  H
  H61      1.0000 0.32933  0.88187  0.49267  Biso   1.000  H
  H62      1.0000 0.11813  0.44747  0.49267  Biso   1.000  H
  H63      1.0000 0.55253  0.67067  0.49267  Biso   1.000  H
  H64      1.0000 0.00400  0.78480  0.17400  Biso   1.000  H
  H65      1.0000 0.21520  0.21920  0.17400  Biso   1.000  H
  H66      1.0000 0.78080  0.99600  0.17400  Biso   1.000  H
  H67      1.0000 0.67067  0.11813  0.50733  Biso   1.000  H
  H68      1.0000 0.88187  0.55253  0.50733  Biso   1.000  H
  H69      1.0000 0.44747  0.32933  0.50733  Biso   1.000  H
  H70      1.0000 0.33733  0.45147  0.84067  Biso   1.000  H
  H71      1.0000 0.54853  0.88587  0.84067  Biso   1.000  H
  H72      1.0000 0.11413  0.66267  0.84067  Biso   1.000  H
  C163     1.0000 0.94734  0.20186  0.79960  Biso   1.000  C
  C164     1.0000 0.79814  0.74548  0.79960  Biso   1.000  C
  C165     1.0000 0.25452  0.05266  0.79960  Biso   1.000  C
  C166     1.0000 0.61401  0.53519  0.13293  Biso   1.000  C
  C167     1.0000 0.46481  0.07881  0.13293  Biso   1.000  C
  C168     1.0000 0.92119  0.38599  0.13293  Biso   1.000  C
  C169     1.0000 0.28067  0.86853  0.46627  Biso   1.000  C
  C170     1.0000 0.13147  0.41215  0.46627  Biso   1.000  C
  C171     1.0000 0.58785  0.71933  0.46627  Biso   1.000  C
  C172     1.0000 0.05266  0.79814  0.20040  Biso   1.000  C
  C173     1.0000 0.20186  0.25452  0.20040  Biso   1.000  C
  C174     1.0000 0.74548  0.94734  0.20040  Biso   1.000  C
  C175     1.0000 0.71933  0.13147  0.53373  Biso   1.000  C
  C176     1.0000 0.86853  0.58785  0.53373  Biso   1.000  C
  C177     1.0000 0.41215  0.28067  0.53373  Biso   1.000  C
  C178     1.0000 0.38599  0.46481  0.86707  Biso   1.000  C
  C179     1.0000 0.53519  0.92119  0.86707  Biso   1.000  C
  C180     1.0000 0.07881  0.61401  0.86707  Biso   1.000  C
  H73      1.0000 0.94430  0.18910  0.72640  Biso   1.000  H
  H74      1.0000 0.81090  0.75520  0.72640  Biso   1.000  H
  H75      1.0000 0.24480  0.05570  0.72640  Biso   1.000  H
  H76      1.0000 0.61097  0.52243  0.05973  Biso   1.000  H
  H77      1.0000 0.47757  0.08853  0.05973  Biso   1.000  H
  H78      1.0000 0.91147  0.38903  0.05973  Biso   1.000  H
  H79      1.0000 0.27763  0.85577  0.39307  Biso   1.000  H
  H80      1.0000 0.14423  0.42187  0.39307  Biso   1.000  H
  H81      1.0000 0.57813  0.72237  0.39307  Biso   1.000  H
  H82      1.0000 0.05570  0.81090  0.27360  Biso   1.000  H
  H83      1.0000 0.18910  0.24480  0.27360  Biso   1.000  H
  H84      1.0000 0.75520  0.94430  0.27360  Biso   1.000  H
  H85      1.0000 0.72237  0.14423  0.60693  Biso   1.000  H
  H86      1.0000 0.85577  0.57813  0.60693  Biso   1.000  H
  H87      1.0000 0.42187  0.27763  0.60693  Biso   1.000  H
  H88      1.0000 0.38903  0.47757  0.94027  Biso   1.000  H
  H89      1.0000 0.52243  0.91147  0.94027  Biso   1.000  H
  H90      1.0000 0.08853  0.61097  0.94027  Biso   1.000  H
  C181     1.0000 0.92108  0.20530  0.84540  Biso   1.000  C
  C182     1.0000 0.79470  0.71578  0.84540  Biso   1.000  C
  C183     1.0000 0.28422  0.07892  0.84540  Biso   1.000  C
  C184     1.0000 0.58775  0.53863  0.17873  Biso   1.000  C
  C185     1.0000 0.46137  0.04911  0.17873  Biso   1.000  C
  C186     1.0000 0.95089  0.41225  0.17873  Biso   1.000  C
  C187     1.0000 0.25441  0.87197  0.51207  Biso   1.000  C
  C188     1.0000 0.12803  0.38245  0.51207  Biso   1.000  C
  C189     1.0000 0.61755  0.74559  0.51207  Biso   1.000  C
  C190     1.0000 0.07892  0.79470  0.15460  Biso   1.000  C
  C191     1.0000 0.20530  0.28422  0.15460  Biso   1.000  C
  C192     1.0000 0.71578  0.92108  0.15460  Biso   1.000  C
  C193     1.0000 0.74559  0.12803  0.48793  Biso   1.000  C
  C194     1.0000 0.87197  0.61755  0.48793  Biso   1.000  C
  C195     1.0000 0.38245  0.25441  0.48793  Biso   1.000  C
  C196     1.0000 0.41225  0.46137  0.82127  Biso   1.000  C
  C197     1.0000 0.53863  0.95089  0.82127  Biso   1.000  C
  C198     1.0000 0.04911  0.58775  0.82127  Biso   1.000  C
  C199     1.0000 0.92583  0.22396  0.95390  Biso   1.000  C
  C200     1.0000 0.77604  0.70187  0.95390  Biso   1.000  C
  C201     1.0000 0.29813  0.07417  0.95390  Biso   1.000  C
  C202     1.0000 0.59250  0.55729  0.28723  Biso   1.000  C
  C203     1.0000 0.44271  0.03520  0.28723  Biso   1.000  C
  C204     1.0000 0.96480  0.40750  0.28723  Biso   1.000  C
  C205     1.0000 0.25916  0.89063  0.62057  Biso   1.000  C
  C206     1.0000 0.10937  0.36854  0.62057  Biso   1.000  C
  C207     1.0000 0.63146  0.74084  0.62057  Biso   1.000  C
  C208     1.0000 0.07417  0.77604  0.04610  Biso   1.000  C
  C209     1.0000 0.22396  0.29813  0.04610  Biso   1.000  C
  C210     1.0000 0.70187  0.92583  0.04610  Biso   1.000  C
  C211     1.0000 0.74084  0.10937  0.37943  Biso   1.000  C
  C212     1.0000 0.89063  0.63146  0.37943  Biso   1.000  C
  C213     1.0000 0.36854  0.25916  0.37943  Biso   1.000  C
  C214     1.0000 0.40750  0.44271  0.71277  Biso   1.000  C
  C215     1.0000 0.55729  0.96480  0.71277  Biso   1.000  C
  C216     1.0000 0.03520  0.59250  0.71277  Biso   1.000  C
  H91      1.0000 0.90810  0.22680  0.98650  Biso   1.000  H
  H92      1.0000 0.77320  0.68130  0.98650  Biso   1.000  H
  H93      1.0000 0.31870  0.09190  0.98650  Biso   1.000  H
  H94      1.0000 0.57477  0.56013  0.31983  Biso   1.000  H
  H95      1.0000 0.43987  0.01463  0.31983  Biso   1.000  H
  H96      1.0000 0.98537  0.42523  0.31983  Biso   1.000  H
  H97      1.0000 0.24143  0.89347  0.65317  Biso   1.000  H
  H98      1.0000 0.10653  0.34797  0.65317  Biso   1.000  H
  H99      1.0000 0.65203  0.75857  0.65317  Biso   1.000  H
  H100     1.0000 0.09190  0.77320  0.01350  Biso   1.000  H
  H101     1.0000 0.22680  0.31870  0.01350  Biso   1.000  H
  H102     1.0000 0.68130  0.90810  0.01350  Biso   1.000  H
  H103     1.0000 0.75857  0.10653  0.34683  Biso   1.000  H
  H104     1.0000 0.89347  0.65203  0.34683  Biso   1.000  H
  H105     1.0000 0.34797  0.24143  0.34683  Biso   1.000  H
  H106     1.0000 0.42523  0.43987  0.68017  Biso   1.000  H
  H107     1.0000 0.56013  0.98537  0.68017  Biso   1.000  H
  H108     1.0000 0.01463  0.57477  0.68017  Biso   1.000  H
  C217     1.0000 0.95708  0.23838  0.01320  Biso   1.000  C
  C218     1.0000 0.76162  0.71870  0.01320  Biso   1.000  C
  C219     1.0000 0.28130  0.04292  0.01320  Biso   1.000  C
  C220     1.0000 0.62375  0.57171  0.34653  Biso   1.000  C
  C221     1.0000 0.42829  0.05203  0.34653  Biso   1.000  C
  C222     1.0000 0.94797  0.37625  0.34653  Biso   1.000  C
  C223     1.0000 0.29041  0.90505  0.67987  Biso   1.000  C
  C224     1.0000 0.09495  0.38537  0.67987  Biso   1.000  C
  C225     1.0000 0.61463  0.70959  0.67987  Biso   1.000  C
  C226     1.0000 0.04292  0.76162  0.98680  Biso   1.000  C
  C227     1.0000 0.23838  0.28130  0.98680  Biso   1.000  C
  C228     1.0000 0.71870  0.95708  0.98680  Biso   1.000  C
  C229     1.0000 0.70959  0.09495  0.32013  Biso   1.000  C
  C230     1.0000 0.90505  0.61463  0.32013  Biso   1.000  C
  C231     1.0000 0.38537  0.29041  0.32013  Biso   1.000  C
  C232     1.0000 0.37625  0.42829  0.65347  Biso   1.000  C
  C233     1.0000 0.57171  0.94797  0.65347  Biso   1.000  C
  C234     1.0000 0.05203  0.62375  0.65347  Biso   1.000  C
  C235     1.0000 0.88817  0.19050  0.78040  Biso   1.000  C
  C236     1.0000 0.80950  0.69767  0.78040  Biso   1.000  C
  C237     1.0000 0.30233  0.11183  0.78040  Biso   1.000  C
  C238     1.0000 0.55484  0.52383  0.11373  Biso   1.000  C
  C239     1.0000 0.47617  0.03100  0.11373  Biso   1.000  C
  C240     1.0000 0.96900  0.44516  0.11373  Biso   1.000  C
  C241     1.0000 0.22150  0.85717  0.44707  Biso   1.000  C
  C242     1.0000 0.14283  0.36434  0.44707  Biso   1.000  C
  C243     1.0000 0.63566  0.77850  0.44707  Biso   1.000  C
  C244     1.0000 0.11183  0.80950  0.21960  Biso   1.000  C
  C245     1.0000 0.19050  0.30233  0.21960  Biso   1.000  C
  C246     1.0000 0.69767  0.88817  0.21960  Biso   1.000  C
  C247     1.0000 0.77850  0.14283  0.55293  Biso   1.000  C
  C248     1.0000 0.85717  0.63566  0.55293  Biso   1.000  C
  C249     1.0000 0.36434  0.22150  0.55293  Biso   1.000  C
  C250     1.0000 0.44516  0.47617  0.88627  Biso   1.000  C
  C251     1.0000 0.52383  0.96900  0.88627  Biso   1.000  C
  C252     1.0000 0.03100  0.55484  0.88627  Biso   1.000  C
  N1       1.0000 0.99790  0.20380  0.18420  Biso   1.000  N
  N2       1.0000 0.79620  0.79410  0.18420  Biso   1.000  N
  N3       1.0000 0.20590  0.00210  0.18420  Biso   1.000  N
  N4       1.0000 0.66457  0.53713  0.51753  Biso   1.000  N
  N5       1.0000 0.46287  0.12743  0.51753  Biso   1.000  N
  N6       1.0000 0.87257  0.33543  0.51753  Biso   1.000  N
  N7       1.0000 0.33123  0.87047  0.85087  Biso   1.000  N
  N8       1.0000 0.12953  0.46077  0.85087  Biso   1.000  N
  N9       1.0000 0.53923  0.66877  0.85087  Biso   1.000  N
  N10      1.0000 0.00210  0.79620  0.81580  Biso   1.000  N
  N11      1.0000 0.20380  0.20590  0.81580  Biso   1.000  N
  N12      1.0000 0.79410  0.99790  0.81580  Biso   1.000  N
  N13      1.0000 0.66877  0.12953  0.14913  Biso   1.000  N
  N14      1.0000 0.87047  0.53923  0.14913  Biso   1.000  N
  N15      1.0000 0.46077  0.33123  0.14913  Biso   1.000  N
  N16      1.0000 0.33543  0.46287  0.48247  Biso   1.000  N
  N17      1.0000 0.53713  0.87257  0.48247  Biso   1.000  N
  N18      1.0000 0.12743  0.66457  0.48247  Biso   1.000  N
  O73      1.0000 0.97250  0.18900  0.13670  Biso   1.000  O
  O74      1.0000 0.81100  0.78350  0.13670  Biso   1.000  O
  O75      1.0000 0.21650  0.02750  0.13670  Biso   1.000  O
  O76      1.0000 0.63917  0.52233  0.47003  Biso   1.000  O
  O77      1.0000 0.47767  0.11683  0.47003  Biso   1.000  O
  O78      1.0000 0.88317  0.36083  0.47003  Biso   1.000  O
  O79      1.0000 0.30583  0.85567  0.80337  Biso   1.000  O
  O80      1.0000 0.14433  0.45017  0.80337  Biso   1.000  O
  O81      1.0000 0.54983  0.69417  0.80337  Biso   1.000  O
  O82      1.0000 0.02750  0.81100  0.86330  Biso   1.000  O
  O83      1.0000 0.18900  0.21650  0.86330  Biso   1.000  O
  O84      1.0000 0.78350  0.97250  0.86330  Biso   1.000  O
  O85      1.0000 0.69417  0.14433  0.19663  Biso   1.000  O
  O86      1.0000 0.85567  0.54983  0.19663  Biso   1.000  O
  O87      1.0000 0.45017  0.30583  0.19663  Biso   1.000  O
  O88      1.0000 0.36083  0.47767  0.52997  Biso   1.000  O
  O89      1.0000 0.52233  0.88317  0.52997  Biso   1.000  O
  O90      1.0000 0.11683  0.63917  0.52997  Biso   1.000  O
  O91      1.0000 0.00320  0.19620  0.28480  Biso   1.000  O
  O92      1.0000 0.80380  0.80700  0.28480  Biso   1.000  O
  O93      1.0000 0.19300  0.99680  0.28480  Biso   1.000  O
  O94      1.0000 0.66987  0.52953  0.61813  Biso   1.000  O
  O95      1.0000 0.47047  0.14033  0.61813  Biso   1.000  O
  O96      1.0000 0.85967  0.33013  0.61813  Biso   1.000  O
  O97      1.0000 0.33653  0.86287  0.95147  Biso   1.000  O
  O98      1.0000 0.13713  0.47367  0.95147  Biso   1.000  O
  O99      1.0000 0.52633  0.66347  0.95147  Biso   1.000  O
  O100     1.0000 0.99680  0.80380  0.71520  Biso   1.000  O
  O101     1.0000 0.19620  0.19300  0.71520  Biso   1.000  O
  O102     1.0000 0.80700  0.00320  0.71520  Biso   1.000  O
  O103     1.0000 0.66347  0.13713  0.04853  Biso   1.000  O
  O104     1.0000 0.86287  0.52633  0.04853  Biso   1.000  O
  O105     1.0000 0.47367  0.33653  0.04853  Biso   1.000  O
  O106     1.0000 0.33013  0.47047  0.38187  Biso   1.000  O
  O107     1.0000 0.52953  0.85967  0.38187  Biso   1.000  O
  O108     1.0000 0.14033  0.66987  0.38187  Biso   1.000  O
  O109     1.0000 0.13537  0.27023  0.55280  Biso   1.000  O
  O110     1.0000 0.72977  0.86514  0.55280  Biso   1.000  O
  O111     1.0000 0.13486  0.86463  0.55280  Biso   1.000  O
  O112     1.0000 0.80204  0.60356  0.88613  Biso   1.000  O
  O113     1.0000 0.39644  0.19847  0.88613  Biso   1.000  O
  O114     1.0000 0.80153  0.19796  0.88613  Biso   1.000  O
  O115     1.0000 0.46870  0.93690  0.21947  Biso   1.000  O
  O116     1.0000 0.06310  0.53181  0.21947  Biso   1.000  O
  O117     1.0000 0.46819  0.53130  0.21947  Biso   1.000  O
  O118     1.0000 0.86463  0.72977  0.44720  Biso   1.000  O
  O119     1.0000 0.27023  0.13486  0.44720  Biso   1.000  O
  O120     1.0000 0.86514  0.13537  0.44720  Biso   1.000  O
  O121     1.0000 0.53130  0.06310  0.78053  Biso   1.000  O
  O122     1.0000 0.93690  0.46819  0.78053  Biso   1.000  O
  O123     1.0000 0.53181  0.46870  0.78053  Biso   1.000  O
  O124     1.0000 0.19796  0.39644  0.11387  Biso   1.000  O
  O125     1.0000 0.60356  0.80153  0.11387  Biso   1.000  O
  O126     1.0000 0.19847  0.80204  0.11387  Biso   1.000  O
  N19      1.0000 0.10680  0.21390  0.61160  Biso   1.000  N
  N20      1.0000 0.78610  0.89290  0.61160  Biso   1.000  N
  N21      1.0000 0.10710  0.89320  0.61160  Biso   1.000  N
  N22      1.0000 0.77347  0.54723  0.94493  Biso   1.000  N
  N23      1.0000 0.45277  0.22623  0.94493  Biso   1.000  N
  N24      1.0000 0.77377  0.22653  0.94493  Biso   1.000  N
  N25      1.0000 0.44013  0.88057  0.27827  Biso   1.000  N
  N26      1.0000 0.11943  0.55957  0.27827  Biso   1.000  N
  N27      1.0000 0.44043  0.55987  0.27827  Biso   1.000  N
  N28      1.0000 0.89320  0.78610  0.38840  Biso   1.000  N
  N29      1.0000 0.21390  0.10710  0.38840  Biso   1.000  N
  N30      1.0000 0.89290  0.10680  0.38840  Biso   1.000  N
  N31      1.0000 0.55987  0.11943  0.72173  Biso   1.000  N
  N32      1.0000 0.88057  0.44043  0.72173  Biso   1.000  N
  N33      1.0000 0.55957  0.44013  0.72173  Biso   1.000  N
  N34      1.0000 0.22653  0.45277  0.05507  Biso   1.000  N
  N35      1.0000 0.54723  0.77377  0.05507  Biso   1.000  N
  N36      1.0000 0.22623  0.77347  0.05507  Biso   1.000  N
  C253     1.0000 0.10960  0.24400  0.58300  Biso   1.000  C
  C254     1.0000 0.75600  0.86560  0.58300  Biso   1.000  C
  C255     1.0000 0.13440  0.89040  0.58300  Biso   1.000  C
  C256     1.0000 0.77627  0.57733  0.91633  Biso   1.000  C
  C257     1.0000 0.42267  0.19893  0.91633  Biso   1.000  C
  C258     1.0000 0.80107  0.22373  0.91633  Biso   1.000  C
  C259     1.0000 0.44293  0.91067  0.24967  Biso   1.000  C
  C260     1.0000 0.08933  0.53227  0.24967  Biso   1.000  C
  C261     1.0000 0.46773  0.55707  0.24967  Biso   1.000  C
  C262     1.0000 0.89040  0.75600  0.41700  Biso   1.000  C
  C263     1.0000 0.24400  0.13440  0.41700  Biso   1.000  C
  C264     1.0000 0.86560  0.10960  0.41700  Biso   1.000  C
  C265     1.0000 0.55707  0.08933  0.75033  Biso   1.000  C
  C266     1.0000 0.91067  0.46773  0.75033  Biso   1.000  C
  C267     1.0000 0.53227  0.44293  0.75033  Biso   1.000  C
  C268     1.0000 0.22373  0.42267  0.08367  Biso   1.000  C
  C269     1.0000 0.57733  0.80107  0.08367  Biso   1.000  C
  C270     1.0000 0.19893  0.77627  0.08367  Biso   1.000  C
  C271     1.0000 0.07510  0.24230  0.59900  Biso   1.000  C
  C272     1.0000 0.75770  0.83280  0.59900  Biso   1.000  C
  C273     1.0000 0.16720  0.92490  0.59900  Biso   1.000  C
  C274     1.0000 0.74177  0.57563  0.93233  Biso   1.000  C
  C275     1.0000 0.42437  0.16613  0.93233  Biso   1.000  C
  C276     1.0000 0.83387  0.25823  0.93233  Biso   1.000  C
  C277     1.0000 0.40843  0.90897  0.26567  Biso   1.000  C
  C278     1.0000 0.09103  0.49947  0.26567  Biso   1.000  C
  C279     1.0000 0.50053  0.59157  0.26567  Biso   1.000  C
  C280     1.0000 0.92490  0.75770  0.40100  Biso   1.000  C
  C281     1.0000 0.24230  0.16720  0.40100  Biso   1.000  C
  C282     1.0000 0.83280  0.07510  0.40100  Biso   1.000  C
  C283     1.0000 0.59157  0.09103  0.73433  Biso   1.000  C
  C284     1.0000 0.90897  0.50053  0.73433  Biso   1.000  C
  C285     1.0000 0.49947  0.40843  0.73433  Biso   1.000  C
  C286     1.0000 0.25823  0.42437  0.06767  Biso   1.000  C
  C287     1.0000 0.57563  0.83387  0.06767  Biso   1.000  C
  C288     1.0000 0.16613  0.74177  0.06767  Biso   1.000  C
  H109     1.0000 0.05800  0.21930  0.62280  Biso   1.000  H
  H110     1.0000 0.78070  0.83870  0.62280  Biso   1.000  H
  H111     1.0000 0.16130  0.94200  0.62280  Biso   1.000  H
  H112     1.0000 0.72467  0.55263  0.95613  Biso   1.000  H
  H113     1.0000 0.44737  0.17203  0.95613  Biso   1.000  H
  H114     1.0000 0.82797  0.27533  0.95613  Biso   1.000  H
  H115     1.0000 0.39133  0.88597  0.28947  Biso   1.000  H
  H116     1.0000 0.11403  0.50537  0.28947  Biso   1.000  H
  H117     1.0000 0.49463  0.60867  0.28947  Biso   1.000  H
  H118     1.0000 0.94200  0.78070  0.37720  Biso   1.000  H
  H119     1.0000 0.21930  0.16130  0.37720  Biso   1.000  H
  H120     1.0000 0.83870  0.05800  0.37720  Biso   1.000  H
  H121     1.0000 0.60867  0.11403  0.71053  Biso   1.000  H
  H122     1.0000 0.88597  0.49463  0.71053  Biso   1.000  H
  H123     1.0000 0.50537  0.39133  0.71053  Biso   1.000  H
  H124     1.0000 0.27533  0.44737  0.04387  Biso   1.000  H
  H125     1.0000 0.55263  0.82797  0.04387  Biso   1.000  H
  H126     1.0000 0.17203  0.72467  0.04387  Biso   1.000  H
  H127     1.0000 0.07690  0.25820  0.66330  Biso   1.000  H
  H128     1.0000 0.74180  0.81870  0.66330  Biso   1.000  H
  H129     1.0000 0.18130  0.92310  0.66330  Biso   1.000  H
  H130     1.0000 0.74357  0.59153  0.99663  Biso   1.000  H
  H131     1.0000 0.40847  0.15203  0.99663  Biso   1.000  H
  H132     1.0000 0.84797  0.25643  0.99663  Biso   1.000  H
  H133     1.0000 0.41023  0.92487  0.32997  Biso   1.000  H
  H134     1.0000 0.07513  0.48537  0.32997  Biso   1.000  H
  H135     1.0000 0.51463  0.58977  0.32997  Biso   1.000  H
  H136     1.0000 0.92310  0.74180  0.33670  Biso   1.000  H
  H137     1.0000 0.25820  0.18130  0.33670  Biso   1.000  H
  H138     1.0000 0.81870  0.07690  0.33670  Biso   1.000  H
  H139     1.0000 0.58977  0.07513  0.67003  Biso   1.000  H
  H140     1.0000 0.92487  0.51463  0.67003  Biso   1.000  H
  H141     1.0000 0.48537  0.41023  0.67003  Biso   1.000  H
  H142     1.0000 0.25643  0.40847  0.00337  Biso   1.000  H
  H143     1.0000 0.59153  0.84797  0.00337  Biso   1.000  H
  H144     1.0000 0.15203  0.74357  0.00337  Biso   1.000  H
  H145     1.0000 0.06860  0.24820  0.52010  Biso   1.000  H
  H146     1.0000 0.75180  0.82040  0.52010  Biso   1.000  H
  H147     1.0000 0.17960  0.93140  0.52010  Biso   1.000  H
  H148     1.0000 0.73527  0.58153  0.85343  Biso   1.000  H
  H149     1.0000 0.41847  0.15373  0.85343  Biso   1.000  H
  H150     1.0000 0.84627  0.26473  0.85343  Biso   1.000  H
  H151     1.0000 0.40193  0.91487  0.18677  Biso   1.000  H
  H152     1.0000 0.08513  0.48707  0.18677  Biso   1.000  H
  H153     1.0000 0.51293  0.59807  0.18677  Biso   1.000  H
  H154     1.0000 0.93140  0.75180  0.47990  Biso   1.000  H
  H155     1.0000 0.24820  0.17960  0.47990  Biso   1.000  H
  H156     1.0000 0.82040  0.06860  0.47990  Biso   1.000  H
  H157     1.0000 0.59807  0.08513  0.81323  Biso   1.000  H
  H158     1.0000 0.91487  0.51293  0.81323  Biso   1.000  H
  H159     1.0000 0.48707  0.40193  0.81323  Biso   1.000  H
  H160     1.0000 0.26473  0.41847  0.14657  Biso   1.000  H
  H161     1.0000 0.58153  0.84627  0.14657  Biso   1.000  H
  H162     1.0000 0.15373  0.73527  0.14657  Biso   1.000  H
  C289     1.0000 0.13020  0.20350  0.56000  Biso   1.000  C
  C290     1.0000 0.79650  0.92670  0.56000  Biso   1.000  C
  C291     1.0000 0.07330  0.86980  0.56000  Biso   1.000  C
  C292     1.0000 0.79687  0.53683  0.89333  Biso   1.000  C
  C293     1.0000 0.46317  0.26003  0.89333  Biso   1.000  C
  C294     1.0000 0.73997  0.20313  0.89333  Biso   1.000  C
  C295     1.0000 0.46353  0.87017  0.22667  Biso   1.000  C
  C296     1.0000 0.12983  0.59337  0.22667  Biso   1.000  C
  C297     1.0000 0.40663  0.53647  0.22667  Biso   1.000  C
  C298     1.0000 0.86980  0.79650  0.44000  Biso   1.000  C
  C299     1.0000 0.20350  0.07330  0.44000  Biso   1.000  C
  C300     1.0000 0.92670  0.13020  0.44000  Biso   1.000  C
  C301     1.0000 0.53647  0.12983  0.77333  Biso   1.000  C
  C302     1.0000 0.87017  0.40663  0.77333  Biso   1.000  C
  C303     1.0000 0.59337  0.46353  0.77333  Biso   1.000  C
  C304     1.0000 0.20313  0.46317  0.10667  Biso   1.000  C
  C305     1.0000 0.53683  0.73997  0.10667  Biso   1.000  C
  C306     1.0000 0.26003  0.79687  0.10667  Biso   1.000  C
  H163     1.0000 0.12400  0.18100  0.59180  Biso   1.000  H
  H164     1.0000 0.81900  0.94300  0.59180  Biso   1.000  H
  H165     1.0000 0.05700  0.87600  0.59180  Biso   1.000  H
  H166     1.0000 0.79067  0.51433  0.92513  Biso   1.000  H
  H167     1.0000 0.48567  0.27633  0.92513  Biso   1.000  H
  H168     1.0000 0.72367  0.20933  0.92513  Biso   1.000  H
  H169     1.0000 0.45733  0.84767  0.25847  Biso   1.000  H
  H170     1.0000 0.15233  0.60967  0.25847  Biso   1.000  H
  H171     1.0000 0.39033  0.54267  0.25847  Biso   1.000  H
  H172     1.0000 0.87600  0.81900  0.40820  Biso   1.000  H
  H173     1.0000 0.18100  0.05700  0.40820  Biso   1.000  H
  H174     1.0000 0.94300  0.12400  0.40820  Biso   1.000  H
  H175     1.0000 0.54267  0.15233  0.74153  Biso   1.000  H
  H176     1.0000 0.84767  0.39033  0.74153  Biso   1.000  H
  H177     1.0000 0.60967  0.45733  0.74153  Biso   1.000  H
  H178     1.0000 0.20933  0.48567  0.07487  Biso   1.000  H
  H179     1.0000 0.51433  0.72367  0.07487  Biso   1.000  H
  H180     1.0000 0.27633  0.79067  0.07487  Biso   1.000  H
  H181     1.0000 0.12870  0.20280  0.46960  Biso   1.000  H
  H182     1.0000 0.79720  0.92590  0.46960  Biso   1.000  H
  H183     1.0000 0.07410  0.87130  0.46960  Biso   1.000  H
  H184     1.0000 0.79537  0.53613  0.80293  Biso   1.000  H
  H185     1.0000 0.46387  0.25923  0.80293  Biso   1.000  H
  H186     1.0000 0.74077  0.20463  0.80293  Biso   1.000  H
  H187     1.0000 0.46203  0.86947  0.13627  Biso   1.000  H
  H188     1.0000 0.13053  0.59257  0.13627  Biso   1.000  H
  H189     1.0000 0.40743  0.53797  0.13627  Biso   1.000  H
  H190     1.0000 0.87130  0.79720  0.53040  Biso   1.000  H
  H191     1.0000 0.20280  0.07410  0.53040  Biso   1.000  H
  H192     1.0000 0.92590  0.12870  0.53040  Biso   1.000  H
  H193     1.0000 0.53797  0.13053  0.86373  Biso   1.000  H
  H194     1.0000 0.86947  0.40743  0.86373  Biso   1.000  H
  H195     1.0000 0.59257  0.46203  0.86373  Biso   1.000  H
  H196     1.0000 0.20463  0.46387  0.19707  Biso   1.000  H
  H197     1.0000 0.53613  0.74077  0.19707  Biso   1.000  H
  H198     1.0000 0.25923  0.79537  0.19707  Biso   1.000  H
  H199     1.0000 0.15330  0.21970  0.58560  Biso   1.000  H
  H200     1.0000 0.78030  0.93360  0.58560  Biso   1.000  H
  H201     1.0000 0.06640  0.84670  0.58560  Biso   1.000  H
  H202     1.0000 0.81997  0.55303  0.91893  Biso   1.000  H
  H203     1.0000 0.44697  0.26693  0.91893  Biso   1.000  H
  H204     1.0000 0.73307  0.18003  0.91893  Biso   1.000  H
  H205     1.0000 0.48663  0.88637  0.25227  Biso   1.000  H
  H206     1.0000 0.11363  0.60027  0.25227  Biso   1.000  H
  H207     1.0000 0.39973  0.51337  0.25227  Biso   1.000  H
  H208     1.0000 0.84670  0.78030  0.41440  Biso   1.000  H
  H209     1.0000 0.21970  0.06640  0.41440  Biso   1.000  H
  H210     1.0000 0.93360  0.15330  0.41440  Biso   1.000  H
  H211     1.0000 0.51337  0.11363  0.74773  Biso   1.000  H
  H212     1.0000 0.88637  0.39973  0.74773  Biso   1.000  H
  H213     1.0000 0.60027  0.48663  0.74773  Biso   1.000  H
  H214     1.0000 0.18003  0.44697  0.08107  Biso   1.000  H
  H215     1.0000 0.55303  0.73307  0.08107  Biso   1.000  H
  H216     1.0000 0.26693  0.81997  0.08107  Biso   1.000  H
  C307     1.0000 0.07710  0.18710  0.67700  Biso   1.000  C
  C308     1.0000 0.81290  0.89000  0.67700  Biso   1.000  C
  C309     1.0000 0.11000  0.92290  0.67700  Biso   1.000  C
  C310     1.0000 0.74377  0.52043  0.01033  Biso   1.000  C
  C311     1.0000 0.47957  0.22333  0.01033  Biso   1.000  C
  C312     1.0000 0.77667  0.25623  0.01033  Biso   1.000  C
  C313     1.0000 0.41043  0.85377  0.34367  Biso   1.000  C
  C314     1.0000 0.14623  0.55667  0.34367  Biso   1.000  C
  C315     1.0000 0.44333  0.58957  0.34367  Biso   1.000  C
  C316     1.0000 0.92290  0.81290  0.32300  Biso   1.000  C
  C317     1.0000 0.18710  0.11000  0.32300  Biso   1.000  C
  C318     1.0000 0.89000  0.07710  0.32300  Biso   1.000  C
  C319     1.0000 0.58957  0.14623  0.65633  Biso   1.000  C
  C320     1.0000 0.85377  0.44333  0.65633  Biso   1.000  C
  C321     1.0000 0.55667  0.41043  0.65633  Biso   1.000  C
  C322     1.0000 0.25623  0.47957  0.98967  Biso   1.000  C
  C323     1.0000 0.52043  0.77667  0.98967  Biso   1.000  C
  C324     1.0000 0.22333  0.74377  0.98967  Biso   1.000  C
  H217     1.0000 0.08000  0.16740  0.68880  Biso   1.000  H
  H218     1.0000 0.83260  0.91260  0.68880  Biso   1.000  H
  H219     1.0000 0.08740  0.92000  0.68880  Biso   1.000  H
  H220     1.0000 0.74667  0.50073  0.02213  Biso   1.000  H
  H221     1.0000 0.49927  0.24593  0.02213  Biso   1.000  H
  H222     1.0000 0.75407  0.25333  0.02213  Biso   1.000  H
  H223     1.0000 0.41333  0.83407  0.35547  Biso   1.000  H
  H224     1.0000 0.16593  0.57927  0.35547  Biso   1.000  H
  H225     1.0000 0.42073  0.58667  0.35547  Biso   1.000  H
  H226     1.0000 0.92000  0.83260  0.31120  Biso   1.000  H
  H227     1.0000 0.16740  0.08740  0.31120  Biso   1.000  H
  H228     1.0000 0.91260  0.08000  0.31120  Biso   1.000  H
  H229     1.0000 0.58667  0.16593  0.64453  Biso   1.000  H
  H230     1.0000 0.83407  0.42073  0.64453  Biso   1.000  H
  H231     1.0000 0.57927  0.41333  0.64453  Biso   1.000  H
  H232     1.0000 0.25333  0.49927  0.97787  Biso   1.000  H
  H233     1.0000 0.50073  0.75407  0.97787  Biso   1.000  H
  H234     1.0000 0.24593  0.74667  0.97787  Biso   1.000  H
  H235     1.0000 0.07480  0.19550  0.75810  Biso   1.000  H
  H236     1.0000 0.80450  0.87930  0.75810  Biso   1.000  H
  H237     1.0000 0.12070  0.92520  0.75810  Biso   1.000  H
  H238     1.0000 0.74147  0.52883  0.09143  Biso   1.000  H
  H239     1.0000 0.47117  0.21263  0.09143  Biso   1.000  H
  H240     1.0000 0.78737  0.25853  0.09143  Biso   1.000  H
  H241     1.0000 0.40813  0.86217  0.42477  Biso   1.000  H
  H242     1.0000 0.13783  0.54597  0.42477  Biso   1.000  H
  H243     1.0000 0.45403  0.59187  0.42477  Biso   1.000  H
  H244     1.0000 0.92520  0.80450  0.24190  Biso   1.000  H
  H245     1.0000 0.19550  0.12070  0.24190  Biso   1.000  H
  H246     1.0000 0.87930  0.07480  0.24190  Biso   1.000  H
  H247     1.0000 0.59187  0.13783  0.57523  Biso   1.000  H
  H248     1.0000 0.86217  0.45403  0.57523  Biso   1.000  H
  H249     1.0000 0.54597  0.40813  0.57523  Biso   1.000  H
  H250     1.0000 0.25853  0.47117  0.90857  Biso   1.000  H
  H251     1.0000 0.52883  0.78737  0.90857  Biso   1.000  H
  H252     1.0000 0.21263  0.74147  0.90857  Biso   1.000  H
  H253     1.0000 0.05670  0.18060  0.62780  Biso   1.000  H
  H254     1.0000 0.81940  0.87610  0.62780  Biso   1.000  H
  H255     1.0000 0.12390  0.94330  0.62780  Biso   1.000  H
  H256     1.0000 0.72337  0.51393  0.96113  Biso   1.000  H
  H257     1.0000 0.48607  0.20943  0.96113  Biso   1.000  H
  H258     1.0000 0.79057  0.27663  0.96113  Biso   1.000  H
  H259     1.0000 0.39003  0.84727  0.29447  Biso   1.000  H
  H260     1.0000 0.15273  0.54277  0.29447  Biso   1.000  H
  H261     1.0000 0.45723  0.60997  0.29447  Biso   1.000  H
  H262     1.0000 0.94330  0.81940  0.37220  Biso   1.000  H
  H263     1.0000 0.18060  0.12390  0.37220  Biso   1.000  H
  H264     1.0000 0.87610  0.05670  0.37220  Biso   1.000  H
  H265     1.0000 0.60997  0.15273  0.70553  Biso   1.000  H
  H266     1.0000 0.84727  0.45723  0.70553  Biso   1.000  H
  H267     1.0000 0.54277  0.39003  0.70553  Biso   1.000  H
  H268     1.0000 0.27663  0.48607  0.03887  Biso   1.000  H
  H269     1.0000 0.51393  0.79057  0.03887  Biso   1.000  H
  H270     1.0000 0.20943  0.72337  0.03887  Biso   1.000  H
  N37      1.0000 0.95830  0.25250  0.13470  Biso   1.000  N
  N38      1.0000 0.74750  0.70580  0.13470  Biso   1.000  N
  N39      1.0000 0.29420  0.04170  0.13470  Biso   1.000  N
  N40      1.0000 0.62497  0.58583  0.46803  Biso   1.000  N
  N41      1.0000 0.41417  0.03913  0.46803  Biso   1.000  N
  N42      1.0000 0.96087  0.37503  0.46803  Biso   1.000  N
  N43      1.0000 0.29163  0.91917  0.80137  Biso   1.000  N
  N44      1.0000 0.08083  0.37247  0.80137  Biso   1.000  N
  N45      1.0000 0.62753  0.70837  0.80137  Biso   1.000  N
  N46      1.0000 0.04170  0.74750  0.86530  Biso   1.000  N
  N47      1.0000 0.25250  0.29420  0.86530  Biso   1.000  N
  N48      1.0000 0.70580  0.95830  0.86530  Biso   1.000  N
  N49      1.0000 0.70837  0.08083  0.19863  Biso   1.000  N
  N50      1.0000 0.91917  0.62753  0.19863  Biso   1.000  N
  N51      1.0000 0.37247  0.29163  0.19863  Biso   1.000  N
  N52      1.0000 0.37503  0.41417  0.53197  Biso   1.000  N
  N53      1.0000 0.58583  0.96087  0.53197  Biso   1.000  N
  N54      1.0000 0.03913  0.62497  0.53197  Biso   1.000  N
  O127     1.0000 0.98470  0.27600  0.16890  Biso   1.000  O
  O128     1.0000 0.72400  0.70870  0.16890  Biso   1.000  O
  O129     1.0000 0.29130  0.01530  0.16890  Biso   1.000  O
  O130     1.0000 0.65137  0.60933  0.50223  Biso   1.000  O
  O131     1.0000 0.39067  0.04203  0.50223  Biso   1.000  O
  O132     1.0000 0.95797  0.34863  0.50223  Biso   1.000  O
  O133     1.0000 0.31803  0.94267  0.83557  Biso   1.000  O
  O134     1.0000 0.05733  0.37537  0.83557  Biso   1.000  O
  O135     1.0000 0.62463  0.68197  0.83557  Biso   1.000  O
  O136     1.0000 0.01530  0.72400  0.83110  Biso   1.000  O
  O137     1.0000 0.27600  0.29130  0.83110  Biso   1.000  O
  O138     1.0000 0.70870  0.98470  0.83110  Biso   1.000  O
  O139     1.0000 0.68197  0.05733  0.16443  Biso   1.000  O
  O140     1.0000 0.94267  0.62463  0.16443  Biso   1.000  O
  O141     1.0000 0.37537  0.31803  0.16443  Biso   1.000  O
  O142     1.0000 0.34863  0.39067  0.49777  Biso   1.000  O
  O143     1.0000 0.60933  0.95797  0.49777  Biso   1.000  O
  O144     1.0000 0.04203  0.65137  0.49777  Biso   1.000  O
  O145     1.0000 0.93260  0.23950  0.19650  Biso   1.000  O
  O146     1.0000 0.76050  0.69310  0.19650  Biso   1.000  O
  O147     1.0000 0.30690  0.06740  0.19650  Biso   1.000  O
  O148     1.0000 0.59927  0.57283  0.52983  Biso   1.000  O
  O149     1.0000 0.42717  0.02643  0.52983  Biso   1.000  O
  O150     1.0000 0.97357  0.40073  0.52983  Biso   1.000  O
  O151     1.0000 0.26593  0.90617  0.86317  Biso   1.000  O
  O152     1.0000 0.09383  0.35977  0.86317  Biso   1.000  O
  O153     1.0000 0.64023  0.73407  0.86317  Biso   1.000  O
  O154     1.0000 0.06740  0.76050  0.80350  Biso   1.000  O
  O155     1.0000 0.23950  0.30690  0.80350  Biso   1.000  O
  O156     1.0000 0.69310  0.93260  0.80350  Biso   1.000  O
  O157     1.0000 0.73407  0.09383  0.13683  Biso   1.000  O
  O158     1.0000 0.90617  0.64023  0.13683  Biso   1.000  O
  O159     1.0000 0.35977  0.26593  0.13683  Biso   1.000  O
  O160     1.0000 0.40073  0.42717  0.47017  Biso   1.000  O
  O161     1.0000 0.57283  0.97357  0.47017  Biso   1.000  O
  O162     1.0000 0.02643  0.59927  0.47017  Biso   1.000  O
  O163     1.0000 0.03820  0.30370  0.68640  Biso   1.000  O
  O164     1.0000 0.69630  0.73450  0.68640  Biso   1.000  O
  O165     1.0000 0.26550  0.96180  0.68640  Biso   1.000  O
  O166     1.0000 0.70487  0.63703  0.01973  Biso   1.000  O
  O167     1.0000 0.36297  0.06783  0.01973  Biso   1.000  O
  O168     1.0000 0.93217  0.29513  0.01973  Biso   1.000  O
  O169     1.0000 0.37153  0.97037  0.35307  Biso   1.000  O
  O170     1.0000 0.02963  0.40117  0.35307  Biso   1.000  O
  O171     1.0000 0.59883  0.62847  0.35307  Biso   1.000  O
  O172     1.0000 0.96180  0.69630  0.31360  Biso   1.000  O
  O173     1.0000 0.30370  0.26550  0.31360  Biso   1.000  O
  O174     1.0000 0.73450  0.03820  0.31360  Biso   1.000  O
  O175     1.0000 0.62847  0.02963  0.64693  Biso   1.000  O
  O176     1.0000 0.97037  0.59883  0.64693  Biso   1.000  O
  O177     1.0000 0.40117  0.37153  0.64693  Biso   1.000  O
  O178     1.0000 0.29513  0.36297  0.98027  Biso   1.000  O
  O179     1.0000 0.63703  0.93217  0.98027  Biso   1.000  O
  O180     1.0000 0.06783  0.70487  0.98027  Biso   1.000  O
  N55      1.0000 0.99170  0.27200  0.56450  Biso   1.000  N
  N56      1.0000 0.72800  0.71970  0.56450  Biso   1.000  N
  N57      1.0000 0.28030  0.00830  0.56450  Biso   1.000  N
  N58      1.0000 0.65837  0.60533  0.89783  Biso   1.000  N
  N59      1.0000 0.39467  0.05303  0.89783  Biso   1.000  N
  N60      1.0000 0.94697  0.34163  0.89783  Biso   1.000  N
  N61      1.0000 0.32503  0.93867  0.23117  Biso   1.000  N
  N62      1.0000 0.06133  0.38637  0.23117  Biso   1.000  N
  N63      1.0000 0.61363  0.67497  0.23117  Biso   1.000  N
  N64      1.0000 0.00830  0.72800  0.43550  Biso   1.000  N
  N65      1.0000 0.27200  0.28030  0.43550  Biso   1.000  N
  N66      1.0000 0.71970  0.99170  0.43550  Biso   1.000  N
  N67      1.0000 0.67497  0.06133  0.76883  Biso   1.000  N
  N68      1.0000 0.93867  0.61363  0.76883  Biso   1.000  N
  N69      1.0000 0.38637  0.32503  0.76883  Biso   1.000  N
  N70      1.0000 0.34163  0.39467  0.10217  Biso   1.000  N
  N71      1.0000 0.60533  0.94697  0.10217  Biso   1.000  N
  N72      1.0000 0.05303  0.65837  0.10217  Biso   1.000  N
  C325     1.0000 0.00870  0.29400  0.65370  Biso   1.000  C
  C326     1.0000 0.70600  0.71470  0.65370  Biso   1.000  C
  C327     1.0000 0.28530  0.99130  0.65370  Biso   1.000  C
  C328     1.0000 0.67537  0.62733  0.98703  Biso   1.000  C
  C329     1.0000 0.37267  0.04803  0.98703  Biso   1.000  C
  C330     1.0000 0.95197  0.32463  0.98703  Biso   1.000  C
  C331     1.0000 0.34203  0.96067  0.32037  Biso   1.000  C
  C332     1.0000 0.03933  0.38137  0.32037  Biso   1.000  C
  C333     1.0000 0.61863  0.65797  0.32037  Biso   1.000  C
  C334     1.0000 0.99130  0.70600  0.34630  Biso   1.000  C
  C335     1.0000 0.29400  0.28530  0.34630  Biso   1.000  C
  C336     1.0000 0.71470  0.00870  0.34630  Biso   1.000  C
  C337     1.0000 0.65797  0.03933  0.67963  Biso   1.000  C
  C338     1.0000 0.96067  0.61863  0.67963  Biso   1.000  C
  C339     1.0000 0.38137  0.34203  0.67963  Biso   1.000  C
  C340     1.0000 0.32463  0.37267  0.01297  Biso   1.000  C
  C341     1.0000 0.62733  0.95197  0.01297  Biso   1.000  C
  C342     1.0000 0.04803  0.67537  0.01297  Biso   1.000  C
  C343     1.0000 0.98290  0.30200  0.72110  Biso   1.000  C
  C344     1.0000 0.69800  0.68090  0.72110  Biso   1.000  C
  C345     1.0000 0.31910  0.01710  0.72110  Biso   1.000  C
  C346     1.0000 0.64957  0.63533  0.05443  Biso   1.000  C
  C347     1.0000 0.36467  0.01423  0.05443  Biso   1.000  C
  C348     1.0000 0.98577  0.35043  0.05443  Biso   1.000  C
  C349     1.0000 0.31623  0.96867  0.38777  Biso   1.000  C
  C350     1.0000 0.03133  0.34757  0.38777  Biso   1.000  C
  C351     1.0000 0.65243  0.68377  0.38777  Biso   1.000  C
  C352     1.0000 0.01710  0.69800  0.27890  Biso   1.000  C
  C353     1.0000 0.30200  0.31910  0.27890  Biso   1.000  C
  C354     1.0000 0.68090  0.98290  0.27890  Biso   1.000  C
  C355     1.0000 0.68377  0.03133  0.61223  Biso   1.000  C
  C356     1.0000 0.96867  0.65243  0.61223  Biso   1.000  C
  C357     1.0000 0.34757  0.31623  0.61223  Biso   1.000  C
  C358     1.0000 0.35043  0.36467  0.94557  Biso   1.000  C
  C359     1.0000 0.63533  0.98577  0.94557  Biso   1.000  C
  C360     1.0000 0.01423  0.64957  0.94557  Biso   1.000  C
  H271     1.0000 0.96140  0.29130  0.67590  Biso   1.000  H
  H272     1.0000 0.70870  0.67010  0.67590  Biso   1.000  H
  H273     1.0000 0.32990  0.03860  0.67590  Biso   1.000  H
  H274     1.0000 0.62807  0.62463  0.00923  Biso   1.000  H
  H275     1.0000 0.37537  0.00343  0.00923  Biso   1.000  H
  H276     1.0000 0.99657  0.37193  0.00923  Biso   1.000  H
  H277     1.0000 0.29473  0.95797  0.34257  Biso   1.000  H
  H278     1.0000 0.04203  0.33677  0.34257  Biso   1.000  H
  H279     1.0000 0.66323  0.70527  0.34257  Biso   1.000  H
  H280     1.0000 0.03860  0.70870  0.32410  Biso   1.000  H
  H281     1.0000 0.29130  0.32990  0.32410  Biso   1.000  H
  H282     1.0000 0.67010  0.96140  0.32410  Biso   1.000  H
  H283     1.0000 0.70527  0.04203  0.65743  Biso   1.000  H
  H284     1.0000 0.95797  0.66323  0.65743  Biso   1.000  H
  H285     1.0000 0.33677  0.29473  0.65743  Biso   1.000  H
  H286     1.0000 0.37193  0.37537  0.99077  Biso   1.000  H
  H287     1.0000 0.62463  0.99657  0.99077  Biso   1.000  H
  H288     1.0000 0.00343  0.62807  0.99077  Biso   1.000  H
  H289     1.0000 0.97910  0.29320  0.80600  Biso   1.000  H
  H290     1.0000 0.70680  0.68590  0.80600  Biso   1.000  H
  H291     1.0000 0.31410  0.02090  0.80600  Biso   1.000  H
  H292     1.0000 0.64577  0.62653  0.13933  Biso   1.000  H
  H293     1.0000 0.37347  0.01923  0.13933  Biso   1.000  H
  H294     1.0000 0.98077  0.35423  0.13933  Biso   1.000  H
  H295     1.0000 0.31243  0.95987  0.47267  Biso   1.000  H
  H296     1.0000 0.04013  0.35257  0.47267  Biso   1.000  H
  H297     1.0000 0.64743  0.68757  0.47267  Biso   1.000  H
  H298     1.0000 0.02090  0.70680  0.19400  Biso   1.000  H
  H299     1.0000 0.29320  0.31410  0.19400  Biso   1.000  H
  H300     1.0000 0.68590  0.97910  0.19400  Biso   1.000  H
  H301     1.0000 0.68757  0.04013  0.52733  Biso   1.000  H
  H302     1.0000 0.95987  0.64743  0.52733  Biso   1.000  H
  H303     1.0000 0.35257  0.31243  0.52733  Biso   1.000  H
  H304     1.0000 0.35423  0.37347  0.86067  Biso   1.000  H
  H305     1.0000 0.62653  0.98077  0.86067  Biso   1.000  H
  H306     1.0000 0.01923  0.64577  0.86067  Biso   1.000  H
  H307     1.0000 0.99210  0.32650  0.72330  Biso   1.000  H
  H308     1.0000 0.67350  0.66560  0.72330  Biso   1.000  H
  H309     1.0000 0.33440  0.00790  0.72330  Biso   1.000  H
  H310     1.0000 0.65877  0.65983  0.05663  Biso   1.000  H
  H311     1.0000 0.34017  0.99893  0.05663  Biso   1.000  H
  H312     1.0000 0.00107  0.34123  0.05663  Biso   1.000  H
  H313     1.0000 0.32543  0.99317  0.38997  Biso   1.000  H
  H314     1.0000 0.00683  0.33227  0.38997  Biso   1.000  H
  H315     1.0000 0.66773  0.67457  0.38997  Biso   1.000  H
  H316     1.0000 0.00790  0.67350  0.27670  Biso   1.000  H
  H317     1.0000 0.32650  0.33440  0.27670  Biso   1.000  H
  H318     1.0000 0.66560  0.99210  0.27670  Biso   1.000  H
  H319     1.0000 0.67457  0.00683  0.61003  Biso   1.000  H
  H320     1.0000 0.99317  0.66773  0.61003  Biso   1.000  H
  H321     1.0000 0.33227  0.32543  0.61003  Biso   1.000  H
  H322     1.0000 0.34123  0.34017  0.94337  Biso   1.000  H
  H323     1.0000 0.65983  0.00107  0.94337  Biso   1.000  H
  H324     1.0000 0.99893  0.65877  0.94337  Biso   1.000  H
  C361     1.0000 0.95880  0.26450  0.51780  Biso   1.000  C
  C362     1.0000 0.73550  0.69430  0.51780  Biso   1.000  C
  C363     1.0000 0.30570  0.04120  0.51780  Biso   1.000  C
  C364     1.0000 0.62547  0.59783  0.85113  Biso   1.000  C
  C365     1.0000 0.40217  0.02763  0.85113  Biso   1.000  C
  C366     1.0000 0.97237  0.37453  0.85113  Biso   1.000  C
  C367     1.0000 0.29213  0.93117  0.18447  Biso   1.000  C
  C368     1.0000 0.06883  0.36097  0.18447  Biso   1.000  C
  C369     1.0000 0.63903  0.70787  0.18447  Biso   1.000  C
  C370     1.0000 0.04120  0.73550  0.48220  Biso   1.000  C
  C371     1.0000 0.26450  0.30570  0.48220  Biso   1.000  C
  C372     1.0000 0.69430  0.95880  0.48220  Biso   1.000  C
  C373     1.0000 0.70787  0.06883  0.81553  Biso   1.000  C
  C374     1.0000 0.93117  0.63903  0.81553  Biso   1.000  C
  C375     1.0000 0.36097  0.29213  0.81553  Biso   1.000  C
  C376     1.0000 0.37453  0.40217  0.14887  Biso   1.000  C
  C377     1.0000 0.59783  0.97237  0.14887  Biso   1.000  C
  C378     1.0000 0.02763  0.62547  0.14887  Biso   1.000  C
  H325     1.0000 0.95150  0.24740  0.45220  Biso   1.000  H
  H326     1.0000 0.75260  0.70410  0.45220  Biso   1.000  H
  H327     1.0000 0.29590  0.04850  0.45220  Biso   1.000  H
  H328     1.0000 0.61817  0.58073  0.78553  Biso   1.000  H
  H329     1.0000 0.41927  0.03743  0.78553  Biso   1.000  H
  H330     1.0000 0.96257  0.38183  0.78553  Biso   1.000  H
  H331     1.0000 0.28483  0.91407  0.11887  Biso   1.000  H
  H332     1.0000 0.08593  0.37077  0.11887  Biso   1.000  H
  H333     1.0000 0.62923  0.71517  0.11887  Biso   1.000  H
  H334     1.0000 0.04850  0.75260  0.54780  Biso   1.000  H
  H335     1.0000 0.24740  0.29590  0.54780  Biso   1.000  H
  H336     1.0000 0.70410  0.95150  0.54780  Biso   1.000  H
  H337     1.0000 0.71517  0.08593  0.88113  Biso   1.000  H
  H338     1.0000 0.91407  0.62923  0.88113  Biso   1.000  H
  H339     1.0000 0.37077  0.28483  0.88113  Biso   1.000  H
  H340     1.0000 0.38183  0.41927  0.21447  Biso   1.000  H
  H341     1.0000 0.58073  0.96257  0.21447  Biso   1.000  H
  H342     1.0000 0.03743  0.61817  0.21447  Biso   1.000  H
  H343     1.0000 0.94230  0.25600  0.58570  Biso   1.000  H
  H344     1.0000 0.74400  0.68630  0.58570  Biso   1.000  H
  H345     1.0000 0.31370  0.05770  0.58570  Biso   1.000  H
  H346     1.0000 0.60897  0.58933  0.91903  Biso   1.000  H
  H347     1.0000 0.41067  0.01963  0.91903  Biso   1.000  H
  H348     1.0000 0.98037  0.39103  0.91903  Biso   1.000  H
  H349     1.0000 0.27563  0.92267  0.25237  Biso   1.000  H
  H350     1.0000 0.07733  0.35297  0.25237  Biso   1.000  H
  H351     1.0000 0.64703  0.72437  0.25237  Biso   1.000  H
  H352     1.0000 0.05770  0.74400  0.41430  Biso   1.000  H
  H353     1.0000 0.25600  0.31370  0.41430  Biso   1.000  H
  H354     1.0000 0.68630  0.94230  0.41430  Biso   1.000  H
  H355     1.0000 0.72437  0.07733  0.74763  Biso   1.000  H
  H356     1.0000 0.92267  0.64703  0.74763  Biso   1.000  H
  H357     1.0000 0.35297  0.27563  0.74763  Biso   1.000  H
  H358     1.0000 0.39103  0.41067  0.08097  Biso   1.000  H
  H359     1.0000 0.58933  0.98037  0.08097  Biso   1.000  H
  H360     1.0000 0.01963  0.60897  0.08097  Biso   1.000  H
  H361     1.0000 0.96040  0.28520  0.48410  Biso   1.000  H
  H362     1.0000 0.71480  0.67520  0.48410  Biso   1.000  H
  H363     1.0000 0.32480  0.03960  0.48410  Biso   1.000  H
  H364     1.0000 0.62707  0.61853  0.81743  Biso   1.000  H
  H365     1.0000 0.38147  0.00853  0.81743  Biso   1.000  H
  H366     1.0000 0.99147  0.37293  0.81743  Biso   1.000  H
  H367     1.0000 0.29373  0.95187  0.15077  Biso   1.000  H
  H368     1.0000 0.04813  0.34187  0.15077  Biso   1.000  H
  H369     1.0000 0.65813  0.70627  0.15077  Biso   1.000  H
  H370     1.0000 0.03960  0.71480  0.51590  Biso   1.000  H
  H371     1.0000 0.28520  0.32480  0.51590  Biso   1.000  H
  H372     1.0000 0.67520  0.96040  0.51590  Biso   1.000  H
  H373     1.0000 0.70627  0.04813  0.84923  Biso   1.000  H
  H374     1.0000 0.95187  0.65813  0.84923  Biso   1.000  H
  H375     1.0000 0.34187  0.29373  0.84923  Biso   1.000  H
  H376     1.0000 0.37293  0.38147  0.18257  Biso   1.000  H
  H377     1.0000 0.61853  0.99147  0.18257  Biso   1.000  H
  H378     1.0000 0.00853  0.62707  0.18257  Biso   1.000  H
  C379     1.0000 0.01300  0.26840  0.46700  Biso   1.000  C
  C380     1.0000 0.73160  0.74460  0.46700  Biso   1.000  C
  C381     1.0000 0.25540  0.98700  0.46700  Biso   1.000  C
  C382     1.0000 0.67967  0.60173  0.80033  Biso   1.000  C
  C383     1.0000 0.39827  0.07793  0.80033  Biso   1.000  C
  C384     1.0000 0.92207  0.32033  0.80033  Biso   1.000  C
  C385     1.0000 0.34633  0.93507  0.13367  Biso   1.000  C
  C386     1.0000 0.06493  0.41127  0.13367  Biso   1.000  C
  C387     1.0000 0.58873  0.65367  0.13367  Biso   1.000  C
  C388     1.0000 0.98700  0.73160  0.53300  Biso   1.000  C
  C389     1.0000 0.26840  0.25540  0.53300  Biso   1.000  C
  C390     1.0000 0.74460  0.01300  0.53300  Biso   1.000  C
  C391     1.0000 0.65367  0.06493  0.86633  Biso   1.000  C
  C392     1.0000 0.93507  0.58873  0.86633  Biso   1.000  C
  C393     1.0000 0.41127  0.34633  0.86633  Biso   1.000  C
  C394     1.0000 0.32033  0.39827  0.19967  Biso   1.000  C
  C395     1.0000 0.60173  0.92207  0.19967  Biso   1.000  C
  C396     1.0000 0.07793  0.67967  0.19967  Biso   1.000  C
  H379     1.0000 0.99830  0.25170  0.40540  Biso   1.000  H
  H380     1.0000 0.74830  0.74660  0.40540  Biso   1.000  H
  H381     1.0000 0.25340  0.00170  0.40540  Biso   1.000  H
  H382     1.0000 0.66497  0.58503  0.73873  Biso   1.000  H
  H383     1.0000 0.41497  0.07993  0.73873  Biso   1.000  H
  H384     1.0000 0.92007  0.33503  0.73873  Biso   1.000  H
  H385     1.0000 0.33163  0.91837  0.07207  Biso   1.000  H
  H386     1.0000 0.08163  0.41327  0.07207  Biso   1.000  H
  H387     1.0000 0.58673  0.66837  0.07207  Biso   1.000  H
  H388     1.0000 0.00170  0.74830  0.59460  Biso   1.000  H
  H389     1.0000 0.25170  0.25340  0.59460  Biso   1.000  H
  H390     1.0000 0.74660  0.99830  0.59460  Biso   1.000  H
  H391     1.0000 0.66837  0.08163  0.92793  Biso   1.000  H
  H392     1.0000 0.91837  0.58673  0.92793  Biso   1.000  H
  H393     1.0000 0.41327  0.33163  0.92793  Biso   1.000  H
  H394     1.0000 0.33503  0.41497  0.26127  Biso   1.000  H
  H395     1.0000 0.58503  0.92007  0.26127  Biso   1.000  H
  H396     1.0000 0.07993  0.66497  0.26127  Biso   1.000  H
  H397     1.0000 0.02690  0.29020  0.42590  Biso   1.000  H
  H398     1.0000 0.70980  0.73670  0.42590  Biso   1.000  H
  H399     1.0000 0.26330  0.97310  0.42590  Biso   1.000  H
  H400     1.0000 0.69357  0.62353  0.75923  Biso   1.000  H
  H401     1.0000 0.37647  0.07003  0.75923  Biso   1.000  H
  H402     1.0000 0.92997  0.30643  0.75923  Biso   1.000  H
  H403     1.0000 0.36023  0.95687  0.09257  Biso   1.000  H
  H404     1.0000 0.04313  0.40337  0.09257  Biso   1.000  H
  H405     1.0000 0.59663  0.63977  0.09257  Biso   1.000  H
  H406     1.0000 0.97310  0.70980  0.57410  Biso   1.000  H
  H407     1.0000 0.29020  0.26330  0.57410  Biso   1.000  H
  H408     1.0000 0.73670  0.02690  0.57410  Biso   1.000  H
  H409     1.0000 0.63977  0.04313  0.90743  Biso   1.000  H
  H410     1.0000 0.95687  0.59663  0.90743  Biso   1.000  H
  H411     1.0000 0.40337  0.36023  0.90743  Biso   1.000  H
  H412     1.0000 0.30643  0.37647  0.24077  Biso   1.000  H
  H413     1.0000 0.62353  0.92997  0.24077  Biso   1.000  H
  H414     1.0000 0.07003  0.69357  0.24077  Biso   1.000  H
  H415     1.0000 0.02760  0.26100  0.50530  Biso   1.000  H
  H416     1.0000 0.73900  0.76660  0.50530  Biso   1.000  H
  H417     1.0000 0.23340  0.97240  0.50530  Biso   1.000  H
  H418     1.0000 0.69427  0.59433  0.83863  Biso   1.000  H
  H419     1.0000 0.40567  0.09993  0.83863  Biso   1.000  H
  H420     1.0000 0.90007  0.30573  0.83863  Biso   1.000  H
  H421     1.0000 0.36093  0.92767  0.17197  Biso   1.000  H
  H422     1.0000 0.07233  0.43327  0.17197  Biso   1.000  H
  H423     1.0000 0.56673  0.63907  0.17197  Biso   1.000  H
  H424     1.0000 0.97240  0.73900  0.49470  Biso   1.000  H
  H425     1.0000 0.26100  0.23340  0.49470  Biso   1.000  H
  H426     1.0000 0.76660  0.02760  0.49470  Biso   1.000  H
  H427     1.0000 0.63907  0.07233  0.82803  Biso   1.000  H
  H428     1.0000 0.92767  0.56673  0.82803  Biso   1.000  H
  H429     1.0000 0.43327  0.36093  0.82803  Biso   1.000  H
  H430     1.0000 0.30573  0.40567  0.16137  Biso   1.000  H
  H431     1.0000 0.59433  0.90007  0.16137  Biso   1.000  H
  H432     1.0000 0.09993  0.69427  0.16137  Biso   1.000  H
  N73      1.0000 0.04145  0.29430  0.86590  Biso   1.000  N
  N74      1.0000 0.70570  0.74715  0.86590  Biso   1.000  N
  N75      1.0000 0.25285  0.95855  0.86590  Biso   1.000  N
  N76      1.0000 0.70812  0.62763  0.19923  Biso   1.000  N
  N77      1.0000 0.37237  0.08048  0.19923  Biso   1.000  N
  N78      1.0000 0.91952  0.29188  0.19923  Biso   1.000  N
  N79      1.0000 0.37478  0.96097  0.53257  Biso   1.000  N
  N80      1.0000 0.03903  0.41382  0.53257  Biso   1.000  N
  N81      1.0000 0.58618  0.62522  0.53257  Biso   1.000  N
  N82      1.0000 0.95855  0.70570  0.13410  Biso   1.000  N
  N83      1.0000 0.29430  0.25285  0.13410  Biso   1.000  N
  N84      1.0000 0.74715  0.04145  0.13410  Biso   1.000  N
  N85      1.0000 0.62522  0.03903  0.46743  Biso   1.000  N
  N86      1.0000 0.96097  0.58618  0.46743  Biso   1.000  N
  N87      1.0000 0.41382  0.37478  0.46743  Biso   1.000  N
  N88      1.0000 0.29188  0.37237  0.80077  Biso   1.000  N
  N89      1.0000 0.62763  0.91952  0.80077  Biso   1.000  N
  N90      1.0000 0.08048  0.70812  0.80077  Biso   1.000  N
  O181     1.0000 0.01563  0.29140  0.83180  Biso   1.000  O
  O182     1.0000 0.70860  0.72423  0.83180  Biso   1.000  O
  O183     1.0000 0.27577  0.98437  0.83180  Biso   1.000  O
  O184     1.0000 0.68230  0.62473  0.16513  Biso   1.000  O
  O185     1.0000 0.37527  0.05756  0.16513  Biso   1.000  O
  O186     1.0000 0.94244  0.31770  0.16513  Biso   1.000  O
  O187     1.0000 0.34896  0.95807  0.49847  Biso   1.000  O
  O188     1.0000 0.04193  0.39090  0.49847  Biso   1.000  O
  O189     1.0000 0.60910  0.65104  0.49847  Biso   1.000  O
  O190     1.0000 0.98437  0.70860  0.16820  Biso   1.000  O
  O191     1.0000 0.29140  0.27577  0.16820  Biso   1.000  O
  O192     1.0000 0.72423  0.01563  0.16820  Biso   1.000  O
  O193     1.0000 0.65104  0.04193  0.50153  Biso   1.000  O
  O194     1.0000 0.95807  0.60910  0.50153  Biso   1.000  O
  O195     1.0000 0.39090  0.34896  0.50153  Biso   1.000  O
  O196     1.0000 0.31770  0.37527  0.83487  Biso   1.000  O
  O197     1.0000 0.62473  0.94244  0.83487  Biso   1.000  O
  O198     1.0000 0.05756  0.68230  0.83487  Biso   1.000  O
  O199     1.0000 0.06800  0.30750  0.80520  Biso   1.000  O
  O200     1.0000 0.69250  0.76050  0.80520  Biso   1.000  O
  O201     1.0000 0.23950  0.93200  0.80520  Biso   1.000  O
  O202     1.0000 0.73467  0.64083  0.13853  Biso   1.000  O
  O203     1.0000 0.35917  0.09383  0.13853  Biso   1.000  O
  O204     1.0000 0.90617  0.26533  0.13853  Biso   1.000  O
  O205     1.0000 0.40133  0.97417  0.47187  Biso   1.000  O
  O206     1.0000 0.02583  0.42717  0.47187  Biso   1.000  O
  O207     1.0000 0.57283  0.59867  0.47187  Biso   1.000  O
  O208     1.0000 0.93200  0.69250  0.19480  Biso   1.000  O
  O209     1.0000 0.30750  0.23950  0.19480  Biso   1.000  O
  O210     1.0000 0.76050  0.06800  0.19480  Biso   1.000  O
  O211     1.0000 0.59867  0.02583  0.52813  Biso   1.000  O
  O212     1.0000 0.97417  0.57283  0.52813  Biso   1.000  O
  O213     1.0000 0.42717  0.40133  0.52813  Biso   1.000  O
  O214     1.0000 0.26533  0.35917  0.86147  Biso   1.000  O
  O215     1.0000 0.64083  0.90617  0.86147  Biso   1.000  O
  O216     1.0000 0.09383  0.73467  0.86147  Biso   1.000  O
  N91      1.0000 0.00190  0.20640  0.81460  Biso   1.000  N
  N92      1.0000 0.79360  0.79550  0.81460  Biso   1.000  N
  N93      1.0000 0.20450  0.99810  0.81460  Biso   1.000  N
  N94      1.0000 0.66857  0.53973  0.14793  Biso   1.000  N
  N95      1.0000 0.46027  0.12883  0.14793  Biso   1.000  N
  N96      1.0000 0.87117  0.33143  0.14793  Biso   1.000  N
  N97      1.0000 0.33523  0.87307  0.48127  Biso   1.000  N
  N98      1.0000 0.12693  0.46217  0.48127  Biso   1.000  N
  N99      1.0000 0.53783  0.66477  0.48127  Biso   1.000  N
  N100     1.0000 0.99810  0.79360  0.18540  Biso   1.000  N
  N101     1.0000 0.20640  0.20450  0.18540  Biso   1.000  N
  N102     1.0000 0.79550  0.00190  0.18540  Biso   1.000  N
  N103     1.0000 0.66477  0.12693  0.51873  Biso   1.000  N
  N104     1.0000 0.87307  0.53783  0.51873  Biso   1.000  N
  N105     1.0000 0.46217  0.33523  0.51873  Biso   1.000  N
  N106     1.0000 0.33143  0.46027  0.85207  Biso   1.000  N
  N107     1.0000 0.53973  0.87117  0.85207  Biso   1.000  N
  N108     1.0000 0.12883  0.66857  0.85207  Biso   1.000  N
  O217     1.0000 0.02750  0.21650  0.86390  Biso   1.000  O
  O218     1.0000 0.78350  0.81100  0.86390  Biso   1.000  O
  O219     1.0000 0.18900  0.97250  0.86390  Biso   1.000  O
  O220     1.0000 0.69417  0.54983  0.19723  Biso   1.000  O
  O221     1.0000 0.45017  0.14433  0.19723  Biso   1.000  O
  O222     1.0000 0.85567  0.30583  0.19723  Biso   1.000  O
  O223     1.0000 0.36083  0.88317  0.53057  Biso   1.000  O
  O224     1.0000 0.11683  0.47767  0.53057  Biso   1.000  O
  O225     1.0000 0.52233  0.63917  0.53057  Biso   1.000  O
  O226     1.0000 0.97250  0.78350  0.13610  Biso   1.000  O
  O227     1.0000 0.21650  0.18900  0.13610  Biso   1.000  O
  O228     1.0000 0.81100  0.02750  0.13610  Biso   1.000  O
  O229     1.0000 0.63917  0.11683  0.46943  Biso   1.000  O
  O230     1.0000 0.88317  0.52233  0.46943  Biso   1.000  O
  O231     1.0000 0.47767  0.36083  0.46943  Biso   1.000  O
  O232     1.0000 0.30583  0.45017  0.80277  Biso   1.000  O
  O233     1.0000 0.54983  0.85567  0.80277  Biso   1.000  O
  O234     1.0000 0.14433  0.69417  0.80277  Biso   1.000  O
  O235     1.0000 0.99590  0.19170  0.72020  Biso   1.000  O
  O236     1.0000 0.80830  0.80420  0.72020  Biso   1.000  O
  O237     1.0000 0.19580  0.00410  0.72020  Biso   1.000  O
  O238     1.0000 0.66257  0.52503  0.05353  Biso   1.000  O
  O239     1.0000 0.47497  0.13753  0.05353  Biso   1.000  O
  O240     1.0000 0.86247  0.33743  0.05353  Biso   1.000  O
  O241     1.0000 0.32923  0.85837  0.38687  Biso   1.000  O
  O242     1.0000 0.14163  0.47087  0.38687  Biso   1.000  O
  O243     1.0000 0.52913  0.67077  0.38687  Biso   1.000  O
  O244     1.0000 0.00410  0.80830  0.27980  Biso   1.000  O
  O245     1.0000 0.19170  0.19580  0.27980  Biso   1.000  O
  O246     1.0000 0.80420  0.99590  0.27980  Biso   1.000  O
  O247     1.0000 0.67077  0.14163  0.61313  Biso   1.000  O
  O248     1.0000 0.85837  0.52913  0.61313  Biso   1.000  O
  O249     1.0000 0.47087  0.32923  0.61313  Biso   1.000  O
  O250     1.0000 0.33743  0.47497  0.94647  Biso   1.000  O
  O251     1.0000 0.52503  0.86247  0.94647  Biso   1.000  O
  O252     1.0000 0.13753  0.66257  0.94647  Biso   1.000  O
  O253     1.0000 0.96206  0.26572  0.31240  Biso   1.000  O
  O254     1.0000 0.73428  0.69634  0.31240  Biso   1.000  O
  O255     1.0000 0.30366  0.03794  0.31240  Biso   1.000  O
  O256     1.0000 0.62873  0.59905  0.64573  Biso   1.000  O
  O257     1.0000 0.40095  0.02967  0.64573  Biso   1.000  O
  O258     1.0000 0.97033  0.37127  0.64573  Biso   1.000  O
  O259     1.0000 0.29539  0.93239  0.97907  Biso   1.000  O
  O260     1.0000 0.06761  0.36301  0.97907  Biso   1.000  O
  O261     1.0000 0.63699  0.70461  0.97907  Biso   1.000  O
  O262     1.0000 0.03794  0.73428  0.68760  Biso   1.000  O
  O263     1.0000 0.26572  0.30366  0.68760  Biso   1.000  O
  O264     1.0000 0.69634  0.96206  0.68760  Biso   1.000  O
  O265     1.0000 0.70461  0.06761  0.02093  Biso   1.000  O
  O266     1.0000 0.93239  0.63699  0.02093  Biso   1.000  O
  O267     1.0000 0.36301  0.29539  0.02093  Biso   1.000  O
  O268     1.0000 0.37127  0.40095  0.35427  Biso   1.000  O
  O269     1.0000 0.59905  0.97033  0.35427  Biso   1.000  O
  O270     1.0000 0.02967  0.62873  0.35427  Biso   1.000  O
  N109     1.0000 0.00520  0.28430  0.45130  Biso   1.000  N
  N110     1.0000 0.71570  0.72090  0.45130  Biso   1.000  N
  N111     1.0000 0.27910  0.99480  0.45130  Biso   1.000  N
  N112     1.0000 0.67187  0.61763  0.78463  Biso   1.000  N
  N113     1.0000 0.38237  0.05423  0.78463  Biso   1.000  N
  N114     1.0000 0.94577  0.32813  0.78463  Biso   1.000  N
  N115     1.0000 0.33853  0.95097  0.11797  Biso   1.000  N
  N116     1.0000 0.04903  0.38757  0.11797  Biso   1.000  N
  N117     1.0000 0.61243  0.66147  0.11797  Biso   1.000  N
  N118     1.0000 0.99480  0.71570  0.54870  Biso   1.000  N
  N119     1.0000 0.28430  0.27910  0.54870  Biso   1.000  N
  N120     1.0000 0.72090  0.00520  0.54870  Biso   1.000  N
  N121     1.0000 0.66147  0.04903  0.88203  Biso   1.000  N
  N122     1.0000 0.95097  0.61243  0.88203  Biso   1.000  N
  N123     1.0000 0.38757  0.33853  0.88203  Biso   1.000  N
  N124     1.0000 0.32813  0.38237  0.21537  Biso   1.000  N
  N125     1.0000 0.61763  0.94577  0.21537  Biso   1.000  N
  N126     1.0000 0.05423  0.67187  0.21537  Biso   1.000  N
  C397     1.0000 0.99170  0.28540  0.34210  Biso   1.000  C
  C398     1.0000 0.71460  0.70630  0.34210  Biso   1.000  C
  C399     1.0000 0.29370  0.00830  0.34210  Biso   1.000  C
  C400     1.0000 0.65837  0.61873  0.67543  Biso   1.000  C
  C401     1.0000 0.38127  0.03963  0.67543  Biso   1.000  C
  C402     1.0000 0.96037  0.34163  0.67543  Biso   1.000  C
  C403     1.0000 0.32503  0.95207  0.00877  Biso   1.000  C
  C404     1.0000 0.04793  0.37297  0.00877  Biso   1.000  C
  C405     1.0000 0.62703  0.67497  0.00877  Biso   1.000  C
  C406     1.0000 0.00830  0.71460  0.65790  Biso   1.000  C
  C407     1.0000 0.28540  0.29370  0.65790  Biso   1.000  C
  C408     1.0000 0.70630  0.99170  0.65790  Biso   1.000  C
  C409     1.0000 0.67497  0.04793  0.99123  Biso   1.000  C
  C410     1.0000 0.95207  0.62703  0.99123  Biso   1.000  C
  C411     1.0000 0.37297  0.32503  0.99123  Biso   1.000  C
  C412     1.0000 0.34163  0.38127  0.32457  Biso   1.000  C
  C413     1.0000 0.61873  0.96037  0.32457  Biso   1.000  C
  C414     1.0000 0.03963  0.65837  0.32457  Biso   1.000  C
  C415     1.0000 0.01530  0.31930  0.27770  Biso   1.000  C
  C416     1.0000 0.68070  0.69600  0.27770  Biso   1.000  C
  C417     1.0000 0.30400  0.98470  0.27770  Biso   1.000  C
  C418     1.0000 0.68197  0.65263  0.61103  Biso   1.000  C
  C419     1.0000 0.34737  0.02933  0.61103  Biso   1.000  C
  C420     1.0000 0.97067  0.31803  0.61103  Biso   1.000  C
  C421     1.0000 0.34863  0.98597  0.94437  Biso   1.000  C
  C422     1.0000 0.01403  0.36267  0.94437  Biso   1.000  C
  C423     1.0000 0.63733  0.65137  0.94437  Biso   1.000  C
  C424     1.0000 0.98470  0.68070  0.72230  Biso   1.000  C
  C425     1.0000 0.31930  0.30400  0.72230  Biso   1.000  C
  C426     1.0000 0.69600  0.01530  0.72230  Biso   1.000  C
  C427     1.0000 0.65137  0.01403  0.05563  Biso   1.000  C
  C428     1.0000 0.98597  0.63733  0.05563  Biso   1.000  C
  C429     1.0000 0.36267  0.34863  0.05563  Biso   1.000  C
  C430     1.0000 0.31803  0.34737  0.38897  Biso   1.000  C
  C431     1.0000 0.65263  0.97067  0.38897  Biso   1.000  C
  C432     1.0000 0.02933  0.68197  0.38897  Biso   1.000  C
  H433     1.0000 0.03740  0.33020  0.31850  Biso   1.000  H
  H434     1.0000 0.66980  0.70720  0.31850  Biso   1.000  H
  H435     1.0000 0.29280  0.96260  0.31850  Biso   1.000  H
  H436     1.0000 0.70407  0.66353  0.65183  Biso   1.000  H
  H437     1.0000 0.33647  0.04053  0.65183  Biso   1.000  H
  H438     1.0000 0.95947  0.29593  0.65183  Biso   1.000  H
  H439     1.0000 0.37073  0.99687  0.98517  Biso   1.000  H
  H440     1.0000 0.00313  0.37387  0.98517  Biso   1.000  H
  H441     1.0000 0.62613  0.62927  0.98517  Biso   1.000  H
  H442     1.0000 0.96260  0.66980  0.68150  Biso   1.000  H
  H443     1.0000 0.33020  0.29280  0.68150  Biso   1.000  H
  H444     1.0000 0.70720  0.03740  0.68150  Biso   1.000  H
  H445     1.0000 0.62927  0.00313  0.01483  Biso   1.000  H
  H446     1.0000 0.99687  0.62613  0.01483  Biso   1.000  H
  H447     1.0000 0.37387  0.37073  0.01483  Biso   1.000  H
  H448     1.0000 0.29593  0.33647  0.34817  Biso   1.000  H
  H449     1.0000 0.66353  0.95947  0.34817  Biso   1.000  H
  H450     1.0000 0.04053  0.70407  0.34817  Biso   1.000  H
  H451     1.0000 0.01790  0.31520  0.19030  Biso   1.000  H
  H452     1.0000 0.68480  0.70270  0.19030  Biso   1.000  H
  H453     1.0000 0.29730  0.98210  0.19030  Biso   1.000  H
  H454     1.0000 0.68457  0.64853  0.52363  Biso   1.000  H
  H455     1.0000 0.35147  0.03603  0.52363  Biso   1.000  H
  H456     1.0000 0.96397  0.31543  0.52363  Biso   1.000  H
  H457     1.0000 0.35123  0.98187  0.85697  Biso   1.000  H
  H458     1.0000 0.01813  0.36937  0.85697  Biso   1.000  H
  H459     1.0000 0.63063  0.64877  0.85697  Biso   1.000  H
  H460     1.0000 0.98210  0.68480  0.80970  Biso   1.000  H
  H461     1.0000 0.31520  0.29730  0.80970  Biso   1.000  H
  H462     1.0000 0.70270  0.01790  0.80970  Biso   1.000  H
  H463     1.0000 0.64877  0.01813  0.14303  Biso   1.000  H
  H464     1.0000 0.98187  0.63063  0.14303  Biso   1.000  H
  H465     1.0000 0.36937  0.35123  0.14303  Biso   1.000  H
  H466     1.0000 0.31543  0.35147  0.47637  Biso   1.000  H
  H467     1.0000 0.64853  0.96397  0.47637  Biso   1.000  H
  H468     1.0000 0.03603  0.68457  0.47637  Biso   1.000  H
  H469     1.0000 0.00550  0.33400  0.28340  Biso   1.000  H
  H470     1.0000 0.66600  0.67150  0.28340  Biso   1.000  H
  H471     1.0000 0.32850  0.99450  0.28340  Biso   1.000  H
  H472     1.0000 0.67217  0.66733  0.61673  Biso   1.000  H
  H473     1.0000 0.33267  0.00483  0.61673  Biso   1.000  H
  H474     1.0000 0.99517  0.32783  0.61673  Biso   1.000  H
  H475     1.0000 0.33883  0.00067  0.95007  Biso   1.000  H
  H476     1.0000 0.99933  0.33817  0.95007  Biso   1.000  H
  H477     1.0000 0.66183  0.66117  0.95007  Biso   1.000  H
  H478     1.0000 0.99450  0.66600  0.71660  Biso   1.000  H
  H479     1.0000 0.33400  0.32850  0.71660  Biso   1.000  H
  H480     1.0000 0.67150  0.00550  0.71660  Biso   1.000  H
  H481     1.0000 0.66117  0.99933  0.04993  Biso   1.000  H
  H482     1.0000 0.00067  0.66183  0.04993  Biso   1.000  H
  H483     1.0000 0.33817  0.33883  0.04993  Biso   1.000  H
  H484     1.0000 0.32783  0.33267  0.38327  Biso   1.000  H
  H485     1.0000 0.66733  0.99517  0.38327  Biso   1.000  H
  H486     1.0000 0.00483  0.67217  0.38327  Biso   1.000  H
  C433     1.0000 0.98870  0.24980  0.50390  Biso   1.000  C
  C434     1.0000 0.75020  0.73890  0.50390  Biso   1.000  C
  C435     1.0000 0.26110  0.01130  0.50390  Biso   1.000  C
  C436     1.0000 0.65537  0.58313  0.83723  Biso   1.000  C
  C437     1.0000 0.41687  0.07223  0.83723  Biso   1.000  C
  C438     1.0000 0.92777  0.34463  0.83723  Biso   1.000  C
  C439     1.0000 0.32203  0.91647  0.17057  Biso   1.000  C
  C440     1.0000 0.08353  0.40557  0.17057  Biso   1.000  C
  C441     1.0000 0.59443  0.67797  0.17057  Biso   1.000  C
  C442     1.0000 0.01130  0.75020  0.49610  Biso   1.000  C
  C443     1.0000 0.24980  0.26110  0.49610  Biso   1.000  C
  C444     1.0000 0.73890  0.98870  0.49610  Biso   1.000  C
  C445     1.0000 0.67797  0.08353  0.82943  Biso   1.000  C
  C446     1.0000 0.91647  0.59443  0.82943  Biso   1.000  C
  C447     1.0000 0.40557  0.32203  0.82943  Biso   1.000  C
  C448     1.0000 0.34463  0.41687  0.16277  Biso   1.000  C
  C449     1.0000 0.58313  0.92777  0.16277  Biso   1.000  C
  C450     1.0000 0.07223  0.65537  0.16277  Biso   1.000  C
  H487     1.0000 0.99930  0.25020  0.58330  Biso   1.000  H
  H488     1.0000 0.74980  0.74910  0.58330  Biso   1.000  H
  H489     1.0000 0.25090  0.00070  0.58330  Biso   1.000  H
  H490     1.0000 0.66597  0.58353  0.91663  Biso   1.000  H
  H491     1.0000 0.41647  0.08243  0.91663  Biso   1.000  H
  H492     1.0000 0.91757  0.33403  0.91663  Biso   1.000  H
  H493     1.0000 0.33263  0.91687  0.24997  Biso   1.000  H
  H494     1.0000 0.08313  0.41577  0.24997  Biso   1.000  H
  H495     1.0000 0.58423  0.66737  0.24997  Biso   1.000  H
  H496     1.0000 0.00070  0.74980  0.41670  Biso   1.000  H
  H497     1.0000 0.25020  0.25090  0.41670  Biso   1.000  H
  H498     1.0000 0.74910  0.99930  0.41670  Biso   1.000  H
  H499     1.0000 0.66737  0.08313  0.75003  Biso   1.000  H
  H500     1.0000 0.91687  0.58423  0.75003  Biso   1.000  H
  H501     1.0000 0.41577  0.33263  0.75003  Biso   1.000  H
  H502     1.0000 0.33403  0.41647  0.08337  Biso   1.000  H
  H503     1.0000 0.58353  0.91757  0.08337  Biso   1.000  H
  H504     1.0000 0.08243  0.66597  0.08337  Biso   1.000  H
  H505     1.0000 0.96470  0.24180  0.51720  Biso   1.000  H
  H506     1.0000 0.75820  0.72290  0.51720  Biso   1.000  H
  H507     1.0000 0.27710  0.03530  0.51720  Biso   1.000  H
  H508     1.0000 0.63137  0.57513  0.85053  Biso   1.000  H
  H509     1.0000 0.42487  0.05623  0.85053  Biso   1.000  H
  H510     1.0000 0.94377  0.36863  0.85053  Biso   1.000  H
  H511     1.0000 0.29803  0.90847  0.18387  Biso   1.000  H
  H512     1.0000 0.09153  0.38957  0.18387  Biso   1.000  H
  H513     1.0000 0.61043  0.70197  0.18387  Biso   1.000  H
  H514     1.0000 0.03530  0.75820  0.48280  Biso   1.000  H
  H515     1.0000 0.24180  0.27710  0.48280  Biso   1.000  H
  H516     1.0000 0.72290  0.96470  0.48280  Biso   1.000  H
  H517     1.0000 0.70197  0.09153  0.81613  Biso   1.000  H
  H518     1.0000 0.90847  0.61043  0.81613  Biso   1.000  H
  H519     1.0000 0.38957  0.29803  0.81613  Biso   1.000  H
  H520     1.0000 0.36863  0.42487  0.14947  Biso   1.000  H
  H521     1.0000 0.57513  0.94377  0.14947  Biso   1.000  H
  H522     1.0000 0.05623  0.63137  0.14947  Biso   1.000  H
  H523     1.0000 0.99120  0.23470  0.44620  Biso   1.000  H
  H524     1.0000 0.76530  0.75650  0.44620  Biso   1.000  H
  H525     1.0000 0.24350  0.00880  0.44620  Biso   1.000  H
  H526     1.0000 0.65787  0.56803  0.77953  Biso   1.000  H
  H527     1.0000 0.43197  0.08983  0.77953  Biso   1.000  H
  H528     1.0000 0.91017  0.34213  0.77953  Biso   1.000  H
  H529     1.0000 0.32453  0.90137  0.11287  Biso   1.000  H
  H530     1.0000 0.09863  0.42317  0.11287  Biso   1.000  H
  H531     1.0000 0.57683  0.67547  0.11287  Biso   1.000  H
  H532     1.0000 0.00880  0.76530  0.55380  Biso   1.000  H
  H533     1.0000 0.23470  0.24350  0.55380  Biso   1.000  H
  H534     1.0000 0.75650  0.99120  0.55380  Biso   1.000  H
  H535     1.0000 0.67547  0.09863  0.88713  Biso   1.000  H
  H536     1.0000 0.90137  0.57683  0.88713  Biso   1.000  H
  H537     1.0000 0.42317  0.32453  0.88713  Biso   1.000  H
  H538     1.0000 0.34213  0.43197  0.22047  Biso   1.000  H
  H539     1.0000 0.56803  0.91017  0.22047  Biso   1.000  H
  H540     1.0000 0.08983  0.65787  0.22047  Biso   1.000  H
  C451     1.0000 0.04100  0.30580  0.48200  Biso   1.000  C
  C452     1.0000 0.69420  0.73520  0.48200  Biso   1.000  C
  C453     1.0000 0.26480  0.95900  0.48200  Biso   1.000  C
  C454     1.0000 0.70767  0.63913  0.81533  Biso   1.000  C
  C455     1.0000 0.36087  0.06853  0.81533  Biso   1.000  C
  C456     1.0000 0.93147  0.29233  0.81533  Biso   1.000  C
  C457     1.0000 0.37433  0.97247  0.14867  Biso   1.000  C
  C458     1.0000 0.02753  0.40187  0.14867  Biso   1.000  C
  C459     1.0000 0.59813  0.62567  0.14867  Biso   1.000  C
  C460     1.0000 0.95900  0.69420  0.51800  Biso   1.000  C
  C461     1.0000 0.30580  0.26480  0.51800  Biso   1.000  C
  C462     1.0000 0.73520  0.04100  0.51800  Biso   1.000  C
  C463     1.0000 0.62567  0.02753  0.85133  Biso   1.000  C
  C464     1.0000 0.97247  0.59813  0.85133  Biso   1.000  C
  C465     1.0000 0.40187  0.37433  0.85133  Biso   1.000  C
  C466     1.0000 0.29233  0.36087  0.18467  Biso   1.000  C
  C467     1.0000 0.63913  0.93147  0.18467  Biso   1.000  C
  C468     1.0000 0.06853  0.70767  0.18467  Biso   1.000  C
  H541     1.0000 0.04520  0.30060  0.56610  Biso   1.000  H
  H542     1.0000 0.69940  0.74460  0.56610  Biso   1.000  H
  H543     1.0000 0.25540  0.95480  0.56610  Biso   1.000  H
  H544     1.0000 0.71187  0.63393  0.89943  Biso   1.000  H
  H545     1.0000 0.36607  0.07793  0.89943  Biso   1.000  H
  H546     1.0000 0.92207  0.28813  0.89943  Biso   1.000  H
  H547     1.0000 0.37853  0.96727  0.23277  Biso   1.000  H
  H548     1.0000 0.03273  0.41127  0.23277  Biso   1.000  H
  H549     1.0000 0.58873  0.62147  0.23277  Biso   1.000  H
  H550     1.0000 0.95480  0.69940  0.43390  Biso   1.000  H
  H551     1.0000 0.30060  0.25540  0.43390  Biso   1.000  H
  H552     1.0000 0.74460  0.04520  0.43390  Biso   1.000  H
  H553     1.0000 0.62147  0.03273  0.76723  Biso   1.000  H
  H554     1.0000 0.96727  0.58873  0.76723  Biso   1.000  H
  H555     1.0000 0.41127  0.37853  0.76723  Biso   1.000  H
  H556     1.0000 0.28813  0.36607  0.10057  Biso   1.000  H
  H557     1.0000 0.63393  0.92207  0.10057  Biso   1.000  H
  H558     1.0000 0.07793  0.71187  0.10057  Biso   1.000  H
  H559     1.0000 0.05480  0.30160  0.42280  Biso   1.000  H
  H560     1.0000 0.69840  0.75320  0.42280  Biso   1.000  H
  H561     1.0000 0.24680  0.94520  0.42280  Biso   1.000  H
  H562     1.0000 0.72147  0.63493  0.75613  Biso   1.000  H
  H563     1.0000 0.36507  0.08653  0.75613  Biso   1.000  H
  H564     1.0000 0.91347  0.27853  0.75613  Biso   1.000  H
  H565     1.0000 0.38813  0.96827  0.08947  Biso   1.000  H
  H566     1.0000 0.03173  0.41987  0.08947  Biso   1.000  H
  H567     1.0000 0.58013  0.61187  0.08947  Biso   1.000  H
  H568     1.0000 0.94520  0.69840  0.57720  Biso   1.000  H
  H569     1.0000 0.30160  0.24680  0.57720  Biso   1.000  H
  H570     1.0000 0.75320  0.05480  0.57720  Biso   1.000  H
  H571     1.0000 0.61187  0.03173  0.91053  Biso   1.000  H
  H572     1.0000 0.96827  0.58013  0.91053  Biso   1.000  H
  H573     1.0000 0.41987  0.38813  0.91053  Biso   1.000  H
  H574     1.0000 0.27853  0.36507  0.24387  Biso   1.000  H
  H575     1.0000 0.63493  0.91347  0.24387  Biso   1.000  H
  H576     1.0000 0.08653  0.72147  0.24387  Biso   1.000  H
  H577     1.0000 0.04710  0.32960  0.47740  Biso   1.000  H
  H578     1.0000 0.67040  0.71750  0.47740  Biso   1.000  H
  H579     1.0000 0.28250  0.95290  0.47740  Biso   1.000  H
  H580     1.0000 0.71377  0.66293  0.81073  Biso   1.000  H
  H581     1.0000 0.33707  0.05083  0.81073  Biso   1.000  H
  H582     1.0000 0.94917  0.28623  0.81073  Biso   1.000  H
  H583     1.0000 0.38043  0.99627  0.14407  Biso   1.000  H
  H584     1.0000 0.00373  0.38417  0.14407  Biso   1.000  H
  H585     1.0000 0.61583  0.61957  0.14407  Biso   1.000  H
  H586     1.0000 0.95290  0.67040  0.52260  Biso   1.000  H
  H587     1.0000 0.32960  0.28250  0.52260  Biso   1.000  H
  H588     1.0000 0.71750  0.04710  0.52260  Biso   1.000  H
  H589     1.0000 0.61957  0.00373  0.85593  Biso   1.000  H
  H590     1.0000 0.99627  0.61583  0.85593  Biso   1.000  H
  H591     1.0000 0.38417  0.38043  0.85593  Biso   1.000  H
  H592     1.0000 0.28623  0.33707  0.18927  Biso   1.000  H
  H593     1.0000 0.66293  0.94917  0.18927  Biso   1.000  H
  H594     1.0000 0.05083  0.71377  0.18927  Biso   1.000  H
  C469     1.0000 0.13360  0.24390  0.58400  Biso   1.000  C
  C470     1.0000 0.75610  0.88970  0.58400  Biso   1.000  C
  C471     1.0000 0.11030  0.86640  0.58400  Biso   1.000  C
  C472     1.0000 0.80027  0.57723  0.91733  Biso   1.000  C
  C473     1.0000 0.42277  0.22303  0.91733  Biso   1.000  C
  C474     1.0000 0.77697  0.19973  0.91733  Biso   1.000  C
  C475     1.0000 0.46693  0.91057  0.25067  Biso   1.000  C
  C476     1.0000 0.08943  0.55637  0.25067  Biso   1.000  C
  C477     1.0000 0.44363  0.53307  0.25067  Biso   1.000  C
  C478     1.0000 0.86640  0.75610  0.41600  Biso   1.000  C
  C479     1.0000 0.24390  0.11030  0.41600  Biso   1.000  C
  C480     1.0000 0.88970  0.13360  0.41600  Biso   1.000  C
  C481     1.0000 0.53307  0.08943  0.74933  Biso   1.000  C
  C482     1.0000 0.91057  0.44363  0.74933  Biso   1.000  C
  C483     1.0000 0.55637  0.46693  0.74933  Biso   1.000  C
  C484     1.0000 0.19973  0.42277  0.08267  Biso   1.000  C
  C485     1.0000 0.57723  0.77697  0.08267  Biso   1.000  C
  C486     1.0000 0.22303  0.80027  0.08267  Biso   1.000  C
  C487     1.0000 0.17060  0.25460  0.61200  Biso   1.000  C
  C488     1.0000 0.74540  0.91600  0.61200  Biso   1.000  C
  C489     1.0000 0.08400  0.82940  0.61200  Biso   1.000  C
  C490     1.0000 0.83727  0.58793  0.94533  Biso   1.000  C
  C491     1.0000 0.41207  0.24933  0.94533  Biso   1.000  C
  C492     1.0000 0.75067  0.16273  0.94533  Biso   1.000  C
  C493     1.0000 0.50393  0.92127  0.27867  Biso   1.000  C
  C494     1.0000 0.07873  0.58267  0.27867  Biso   1.000  C
  C495     1.0000 0.41733  0.49607  0.27867  Biso   1.000  C
  C496     1.0000 0.82940  0.74540  0.38800  Biso   1.000  C
  C497     1.0000 0.25460  0.08400  0.38800  Biso   1.000  C
  C498     1.0000 0.91600  0.17060  0.38800  Biso   1.000  C
  C499     1.0000 0.49607  0.07873  0.72133  Biso   1.000  C
  C500     1.0000 0.92127  0.41733  0.72133  Biso   1.000  C
  C501     1.0000 0.58267  0.50393  0.72133  Biso   1.000  C
  C502     1.0000 0.16273  0.41207  0.05467  Biso   1.000  C
  C503     1.0000 0.58793  0.75067  0.05467  Biso   1.000  C
  C504     1.0000 0.24933  0.83727  0.05467  Biso   1.000  C
  H595     1.0000 0.17210  0.23490  0.63900  Biso   1.000  H
  H596     1.0000 0.76510  0.93720  0.63900  Biso   1.000  H
  H597     1.0000 0.06280  0.82790  0.63900  Biso   1.000  H
  H598     1.0000 0.83877  0.56823  0.97233  Biso   1.000  H
  H599     1.0000 0.43177  0.27053  0.97233  Biso   1.000  H
  H600     1.0000 0.72947  0.16123  0.97233  Biso   1.000  H
  H601     1.0000 0.50543  0.90157  0.30567  Biso   1.000  H
  H602     1.0000 0.09843  0.60387  0.30567  Biso   1.000  H
  H603     1.0000 0.39613  0.49457  0.30567  Biso   1.000  H
  H604     1.0000 0.82790  0.76510  0.36100  Biso   1.000  H
  H605     1.0000 0.23490  0.06280  0.36100  Biso   1.000  H
  H606     1.0000 0.93720  0.17210  0.36100  Biso   1.000  H
  H607     1.0000 0.49457  0.09843  0.69433  Biso   1.000  H
  H608     1.0000 0.90157  0.39613  0.69433  Biso   1.000  H
  H609     1.0000 0.60387  0.50543  0.69433  Biso   1.000  H
  H610     1.0000 0.16123  0.43177  0.02767  Biso   1.000  H
  H611     1.0000 0.56823  0.72947  0.02767  Biso   1.000  H
  H612     1.0000 0.27053  0.83877  0.02767  Biso   1.000  H
  H613     1.0000 0.18430  0.26420  0.53750  Biso   1.000  H
  H614     1.0000 0.73580  0.92010  0.53750  Biso   1.000  H
  H615     1.0000 0.07990  0.81570  0.53750  Biso   1.000  H
  H616     1.0000 0.85097  0.59753  0.87083  Biso   1.000  H
  H617     1.0000 0.40247  0.25343  0.87083  Biso   1.000  H
  H618     1.0000 0.74657  0.14903  0.87083  Biso   1.000  H
  H619     1.0000 0.51763  0.93087  0.20417  Biso   1.000  H
  H620     1.0000 0.06913  0.58677  0.20417  Biso   1.000  H
  H621     1.0000 0.41323  0.48237  0.20417  Biso   1.000  H
  H622     1.0000 0.81570  0.73580  0.46250  Biso   1.000  H
  H623     1.0000 0.26420  0.07990  0.46250  Biso   1.000  H
  H624     1.0000 0.92010  0.18430  0.46250  Biso   1.000  H
  H625     1.0000 0.48237  0.06913  0.79583  Biso   1.000  H
  H626     1.0000 0.93087  0.41323  0.79583  Biso   1.000  H
  H627     1.0000 0.58677  0.51763  0.79583  Biso   1.000  H
  H628     1.0000 0.14903  0.40247  0.12917  Biso   1.000  H
  H629     1.0000 0.59753  0.74657  0.12917  Biso   1.000  H
  H630     1.0000 0.25343  0.85097  0.12917  Biso   1.000  H
  H631     1.0000 0.17910  0.27160  0.67860  Biso   1.000  H
  H632     1.0000 0.72840  0.90750  0.67860  Biso   1.000  H
  H633     1.0000 0.09250  0.82090  0.67860  Biso   1.000  H
  H634     1.0000 0.84577  0.60493  0.01193  Biso   1.000  H
  H635     1.0000 0.39507  0.24083  0.01193  Biso   1.000  H
  H636     1.0000 0.75917  0.15423  0.01193  Biso   1.000  H
  H637     1.0000 0.51243  0.93827  0.34527  Biso   1.000  H
  H638     1.0000 0.06173  0.57417  0.34527  Biso   1.000  H
  H639     1.0000 0.42583  0.48757  0.34527  Biso   1.000  H
  H640     1.0000 0.82090  0.72840  0.32140  Biso   1.000  H
  H641     1.0000 0.27160  0.09250  0.32140  Biso   1.000  H
  H642     1.0000 0.90750  0.17910  0.32140  Biso   1.000  H
  H643     1.0000 0.48757  0.06173  0.65473  Biso   1.000  H
  H644     1.0000 0.93827  0.42583  0.65473  Biso   1.000  H
  H645     1.0000 0.57417  0.51243  0.65473  Biso   1.000  H
  H646     1.0000 0.15423  0.39507  0.98807  Biso   1.000  H
  H647     1.0000 0.60493  0.75917  0.98807  Biso   1.000  H
  H648     1.0000 0.24083  0.84577  0.98807  Biso   1.000  H
  C505     1.0000 0.07230  0.20120  0.55900  Biso   1.000  C
  C506     1.0000 0.79880  0.87110  0.55900  Biso   1.000  C
  C507     1.0000 0.12890  0.92770  0.55900  Biso   1.000  C
  C508     1.0000 0.73897  0.53453  0.89233  Biso   1.000  C
  C509     1.0000 0.46547  0.20443  0.89233  Biso   1.000  C
  C510     1.0000 0.79557  0.26103  0.89233  Biso   1.000  C
  C511     1.0000 0.40563  0.86787  0.22567  Biso   1.000  C
  C512     1.0000 0.13213  0.53777  0.22567  Biso   1.000  C
  C513     1.0000 0.46223  0.59437  0.22567  Biso   1.000  C
  C514     1.0000 0.92770  0.79880  0.44100  Biso   1.000  C
  C515     1.0000 0.20120  0.12890  0.44100  Biso   1.000  C
  C516     1.0000 0.87110  0.07230  0.44100  Biso   1.000  C
  C517     1.0000 0.59437  0.13213  0.77433  Biso   1.000  C
  C518     1.0000 0.86787  0.46223  0.77433  Biso   1.000  C
  C519     1.0000 0.53777  0.40563  0.77433  Biso   1.000  C
  C520     1.0000 0.26103  0.46547  0.10767  Biso   1.000  C
  C521     1.0000 0.53453  0.79557  0.10767  Biso   1.000  C
  C522     1.0000 0.20443  0.73897  0.10767  Biso   1.000  C
  H649     1.0000 0.05690  0.17870  0.59280  Biso   1.000  H
  H650     1.0000 0.82130  0.87820  0.59280  Biso   1.000  H
  H651     1.0000 0.12180  0.94310  0.59280  Biso   1.000  H
  H652     1.0000 0.72357  0.51203  0.92613  Biso   1.000  H
  H653     1.0000 0.48797  0.21153  0.92613  Biso   1.000  H
  H654     1.0000 0.78847  0.27643  0.92613  Biso   1.000  H
  H655     1.0000 0.39023  0.84537  0.25947  Biso   1.000  H
  H656     1.0000 0.15463  0.54487  0.25947  Biso   1.000  H
  H657     1.0000 0.45513  0.60977  0.25947  Biso   1.000  H
  H658     1.0000 0.94310  0.82130  0.40720  Biso   1.000  H
  H659     1.0000 0.17870  0.12180  0.40720  Biso   1.000  H
  H660     1.0000 0.87820  0.05690  0.40720  Biso   1.000  H
  H661     1.0000 0.60977  0.15463  0.74053  Biso   1.000  H
  H662     1.0000 0.84537  0.45513  0.74053  Biso   1.000  H
  H663     1.0000 0.54487  0.39023  0.74053  Biso   1.000  H
  H664     1.0000 0.27643  0.48797  0.07387  Biso   1.000  H
  H665     1.0000 0.51203  0.78847  0.07387  Biso   1.000  H
  H666     1.0000 0.21153  0.72357  0.07387  Biso   1.000  H
  H667     1.0000 0.06420  0.21670  0.58140  Biso   1.000  H
  H668     1.0000 0.78330  0.84750  0.58140  Biso   1.000  H
  H669     1.0000 0.15250  0.93580  0.58140  Biso   1.000  H
  H670     1.0000 0.73087  0.55003  0.91473  Biso   1.000  H
  H671     1.0000 0.44997  0.18083  0.91473  Biso   1.000  H
  H672     1.0000 0.81917  0.26913  0.91473  Biso   1.000  H
  H673     1.0000 0.39753  0.88337  0.24807  Biso   1.000  H
  H674     1.0000 0.11663  0.51417  0.24807  Biso   1.000  H
  H675     1.0000 0.48583  0.60247  0.24807  Biso   1.000  H
  H676     1.0000 0.93580  0.78330  0.41860  Biso   1.000  H
  H677     1.0000 0.21670  0.15250  0.41860  Biso   1.000  H
  H678     1.0000 0.84750  0.06420  0.41860  Biso   1.000  H
  H679     1.0000 0.60247  0.11663  0.75193  Biso   1.000  H
  H680     1.0000 0.88337  0.48583  0.75193  Biso   1.000  H
  H681     1.0000 0.51417  0.39753  0.75193  Biso   1.000  H
  H682     1.0000 0.26913  0.44997  0.08527  Biso   1.000  H
  H683     1.0000 0.55003  0.81917  0.08527  Biso   1.000  H
  H684     1.0000 0.18083  0.73087  0.08527  Biso   1.000  H
  H685     1.0000 0.07320  0.19980  0.46860  Biso   1.000  H
  H686     1.0000 0.80020  0.87340  0.46860  Biso   1.000  H
  H687     1.0000 0.12660  0.92680  0.46860  Biso   1.000  H
  H688     1.0000 0.73987  0.53313  0.80193  Biso   1.000  H
  H689     1.0000 0.46687  0.20673  0.80193  Biso   1.000  H
  H690     1.0000 0.79327  0.26013  0.80193  Biso   1.000  H
  H691     1.0000 0.40653  0.86647  0.13527  Biso   1.000  H
  H692     1.0000 0.13353  0.54007  0.13527  Biso   1.000  H
  H693     1.0000 0.45993  0.59347  0.13527  Biso   1.000  H
  H694     1.0000 0.92680  0.80020  0.53140  Biso   1.000  H
  H695     1.0000 0.19980  0.12660  0.53140  Biso   1.000  H
  H696     1.0000 0.87340  0.07320  0.53140  Biso   1.000  H
  H697     1.0000 0.59347  0.13353  0.86473  Biso   1.000  H
  H698     1.0000 0.86647  0.45993  0.86473  Biso   1.000  H
  H699     1.0000 0.54007  0.40653  0.86473  Biso   1.000  H
  H700     1.0000 0.26013  0.46687  0.19807  Biso   1.000  H
  H701     1.0000 0.53313  0.79327  0.19807  Biso   1.000  H
  H702     1.0000 0.20673  0.73987  0.19807  Biso   1.000  H
  C523     1.0000 0.11000  0.18670  0.68100  Biso   1.000  C
  C524     1.0000 0.81330  0.92330  0.68100  Biso   1.000  C
  C525     1.0000 0.07670  0.89000  0.68100  Biso   1.000  C
  C526     1.0000 0.77667  0.52003  0.01433  Biso   1.000  C
  C527     1.0000 0.47997  0.25663  0.01433  Biso   1.000  C
  C528     1.0000 0.74337  0.22333  0.01433  Biso   1.000  C
  C529     1.0000 0.44333  0.85337  0.34767  Biso   1.000  C
  C530     1.0000 0.14663  0.58997  0.34767  Biso   1.000  C
  C531     1.0000 0.41003  0.55667  0.34767  Biso   1.000  C
  C532     1.0000 0.89000  0.81330  0.31900  Biso   1.000  C
  C533     1.0000 0.18670  0.07670  0.31900  Biso   1.000  C
  C534     1.0000 0.92330  0.11000  0.31900  Biso   1.000  C
  C535     1.0000 0.55667  0.14663  0.65233  Biso   1.000  C
  C536     1.0000 0.85337  0.41003  0.65233  Biso   1.000  C
  C537     1.0000 0.58997  0.44333  0.65233  Biso   1.000  C
  C538     1.0000 0.22333  0.47997  0.98567  Biso   1.000  C
  C539     1.0000 0.52003  0.74337  0.98567  Biso   1.000  C
  C540     1.0000 0.25663  0.77667  0.98567  Biso   1.000  C
  H703     1.0000 0.08750  0.16680  0.69200  Biso   1.000  H
  H704     1.0000 0.83320  0.92070  0.69200  Biso   1.000  H
  H705     1.0000 0.07930  0.91250  0.69200  Biso   1.000  H
  H706     1.0000 0.75417  0.50013  0.02533  Biso   1.000  H
  H707     1.0000 0.49987  0.25403  0.02533  Biso   1.000  H
  H708     1.0000 0.74597  0.24583  0.02533  Biso   1.000  H
  H709     1.0000 0.42083  0.83347  0.35867  Biso   1.000  H
  H710     1.0000 0.16653  0.58737  0.35867  Biso   1.000  H
  H711     1.0000 0.41263  0.57917  0.35867  Biso   1.000  H
  H712     1.0000 0.91250  0.83320  0.30800  Biso   1.000  H
  H713     1.0000 0.16680  0.07930  0.30800  Biso   1.000  H
  H714     1.0000 0.92070  0.08750  0.30800  Biso   1.000  H
  H715     1.0000 0.57917  0.16653  0.64133  Biso   1.000  H
  H716     1.0000 0.83347  0.41263  0.64133  Biso   1.000  H
  H717     1.0000 0.58737  0.42083  0.64133  Biso   1.000  H
  H718     1.0000 0.24583  0.49987  0.97467  Biso   1.000  H
  H719     1.0000 0.50013  0.74597  0.97467  Biso   1.000  H
  H720     1.0000 0.25403  0.75417  0.97467  Biso   1.000  H
  H721     1.0000 0.12430  0.18040  0.63400  Biso   1.000  H
  H722     1.0000 0.81960  0.94390  0.63400  Biso   1.000  H
  H723     1.0000 0.05610  0.87570  0.63400  Biso   1.000  H
  H724     1.0000 0.79097  0.51373  0.96733  Biso   1.000  H
  H725     1.0000 0.48627  0.27723  0.96733  Biso   1.000  H
  H726     1.0000 0.72277  0.20903  0.96733  Biso   1.000  H
  H727     1.0000 0.45763  0.84707  0.30067  Biso   1.000  H
  H728     1.0000 0.15293  0.61057  0.30067  Biso   1.000  H
  H729     1.0000 0.38943  0.54237  0.30067  Biso   1.000  H
  H730     1.0000 0.87570  0.81960  0.36600  Biso   1.000  H
  H731     1.0000 0.18040  0.05610  0.36600  Biso   1.000  H
  H732     1.0000 0.94390  0.12430  0.36600  Biso   1.000  H
  H733     1.0000 0.54237  0.15293  0.69933  Biso   1.000  H
  H734     1.0000 0.84707  0.38943  0.69933  Biso   1.000  H
  H735     1.0000 0.61057  0.45763  0.69933  Biso   1.000  H
  H736     1.0000 0.20903  0.48627  0.03267  Biso   1.000  H
  H737     1.0000 0.51373  0.72277  0.03267  Biso   1.000  H
  H738     1.0000 0.27723  0.79097  0.03267  Biso   1.000  H
  H739     1.0000 0.12010  0.19530  0.76290  Biso   1.000  H
  H740     1.0000 0.80470  0.92480  0.76290  Biso   1.000  H
  H741     1.0000 0.07520  0.87990  0.76290  Biso   1.000  H
  H742     1.0000 0.78677  0.52863  0.09623  Biso   1.000  H
  H743     1.0000 0.47137  0.25813  0.09623  Biso   1.000  H
  H744     1.0000 0.74187  0.21323  0.09623  Biso   1.000  H
  H745     1.0000 0.45343  0.86197  0.42957  Biso   1.000  H
  H746     1.0000 0.13803  0.59147  0.42957  Biso   1.000  H
  H747     1.0000 0.40853  0.54657  0.42957  Biso   1.000  H
  H748     1.0000 0.87990  0.80470  0.23710  Biso   1.000  H
  H749     1.0000 0.19530  0.07520  0.23710  Biso   1.000  H
  H750     1.0000 0.92480  0.12010  0.23710  Biso   1.000  H
  H751     1.0000 0.54657  0.13803  0.57043  Biso   1.000  H
  H752     1.0000 0.86197  0.40853  0.57043  Biso   1.000  H
  H753     1.0000 0.59147  0.45343  0.57043  Biso   1.000  H
  H754     1.0000 0.21323  0.47137  0.90377  Biso   1.000  H
  H755     1.0000 0.52863  0.74187  0.90377  Biso   1.000  H
  H756     1.0000 0.25813  0.78677  0.90377  Biso   1.000  H
  C541     1.0000 0.12430  0.26840  0.65660  Biso   1.000  C
  C542     1.0000 0.73160  0.85590  0.65660  Biso   1.000  C
  C543     1.0000 0.14410  0.87570  0.65660  Biso   1.000  C
  C544     1.0000 0.79097  0.60173  0.98993  Biso   1.000  C
  C545     1.0000 0.39827  0.18923  0.98993  Biso   1.000  C
  C546     1.0000 0.81077  0.20903  0.98993  Biso   1.000  C
  C547     1.0000 0.45763  0.93507  0.32327  Biso   1.000  C
  C548     1.0000 0.06493  0.52257  0.32327  Biso   1.000  C
  C549     1.0000 0.47743  0.54237  0.32327  Biso   1.000  C
  C550     1.0000 0.87570  0.73160  0.34340  Biso   1.000  C
  C551     1.0000 0.26840  0.14410  0.34340  Biso   1.000  C
  C552     1.0000 0.85590  0.12430  0.34340  Biso   1.000  C
  C553     1.0000 0.54237  0.06493  0.67673  Biso   1.000  C
  C554     1.0000 0.93507  0.47743  0.67673  Biso   1.000  C
  C555     1.0000 0.52257  0.45763  0.67673  Biso   1.000  C
  C556     1.0000 0.20903  0.39827  0.01007  Biso   1.000  C
  C557     1.0000 0.60173  0.81077  0.01007  Biso   1.000  C
  C558     1.0000 0.18923  0.79097  0.01007  Biso   1.000  C
  C559     1.0000 0.08840  0.26210  0.63100  Biso   1.000  C
  C560     1.0000 0.73790  0.82630  0.63100  Biso   1.000  C
  C561     1.0000 0.17370  0.91160  0.63100  Biso   1.000  C
  C562     1.0000 0.75507  0.59543  0.96433  Biso   1.000  C
  C563     1.0000 0.40457  0.15963  0.96433  Biso   1.000  C
  C564     1.0000 0.84037  0.24493  0.96433  Biso   1.000  C
  C565     1.0000 0.42173  0.92877  0.29767  Biso   1.000  C
  C566     1.0000 0.07123  0.49297  0.29767  Biso   1.000  C
  C567     1.0000 0.50703  0.57827  0.29767  Biso   1.000  C
  C568     1.0000 0.91160  0.73790  0.36900  Biso   1.000  C
  C569     1.0000 0.26210  0.17370  0.36900  Biso   1.000  C
  C570     1.0000 0.82630  0.08840  0.36900  Biso   1.000  C
  C571     1.0000 0.57827  0.07123  0.70233  Biso   1.000  C
  C572     1.0000 0.92877  0.50703  0.70233  Biso   1.000  C
  C573     1.0000 0.49297  0.42173  0.70233  Biso   1.000  C
  C574     1.0000 0.24493  0.40457  0.03567  Biso   1.000  C
  C575     1.0000 0.59543  0.84037  0.03567  Biso   1.000  C
  C576     1.0000 0.15963  0.75507  0.03567  Biso   1.000  C
  H757     1.0000 0.07690  0.26020  0.70980  Biso   1.000  H
  H758     1.0000 0.73980  0.81670  0.70980  Biso   1.000  H
  H759     1.0000 0.18330  0.92310  0.70980  Biso   1.000  H
  H760     1.0000 0.74357  0.59353  0.04313  Biso   1.000  H
  H761     1.0000 0.40647  0.15003  0.04313  Biso   1.000  H
  H762     1.0000 0.84997  0.25643  0.04313  Biso   1.000  H
  H763     1.0000 0.41023  0.92687  0.37647  Biso   1.000  H
  H764     1.0000 0.07313  0.48337  0.37647  Biso   1.000  H
  H765     1.0000 0.51663  0.58977  0.37647  Biso   1.000  H
  H766     1.0000 0.92310  0.73980  0.29020  Biso   1.000  H
  H767     1.0000 0.26020  0.18330  0.29020  Biso   1.000  H
  H768     1.0000 0.81670  0.07690  0.29020  Biso   1.000  H
  H769     1.0000 0.58977  0.07313  0.62353  Biso   1.000  H
  H770     1.0000 0.92687  0.51663  0.62353  Biso   1.000  H
  H771     1.0000 0.48337  0.41023  0.62353  Biso   1.000  H
  H772     1.0000 0.25643  0.40647  0.95687  Biso   1.000  H
  H773     1.0000 0.59353  0.84997  0.95687  Biso   1.000  H
  H774     1.0000 0.15003  0.74357  0.95687  Biso   1.000  H
  H775     1.0000 0.08980  0.28100  0.58280  Biso   1.000  H
  H776     1.0000 0.71900  0.80880  0.58280  Biso   1.000  H
  H777     1.0000 0.19120  0.91020  0.58280  Biso   1.000  H
  H778     1.0000 0.75647  0.61433  0.91613  Biso   1.000  H
  H779     1.0000 0.38567  0.14213  0.91613  Biso   1.000  H
  H780     1.0000 0.85787  0.24353  0.91613  Biso   1.000  H
  H781     1.0000 0.42313  0.94767  0.24947  Biso   1.000  H
  H782     1.0000 0.05233  0.47547  0.24947  Biso   1.000  H
  H783     1.0000 0.52453  0.57687  0.24947  Biso   1.000  H
  H784     1.0000 0.91020  0.71900  0.41720  Biso   1.000  H
  H785     1.0000 0.28100  0.19120  0.41720  Biso   1.000  H
  H786     1.0000 0.80880  0.08980  0.41720  Biso   1.000  H
  H787     1.0000 0.57687  0.05233  0.75053  Biso   1.000  H
  H788     1.0000 0.94767  0.52453  0.75053  Biso   1.000  H
  H789     1.0000 0.47547  0.42313  0.75053  Biso   1.000  H
  H790     1.0000 0.24353  0.38567  0.08387  Biso   1.000  H
  H791     1.0000 0.61433  0.85787  0.08387  Biso   1.000  H
  H792     1.0000 0.14213  0.75647  0.08387  Biso   1.000  H
  H793     1.0000 0.07560  0.24110  0.58370  Biso   1.000  H
  H794     1.0000 0.75890  0.83450  0.58370  Biso   1.000  H
  H795     1.0000 0.16550  0.92440  0.58370  Biso   1.000  H
  H796     1.0000 0.74227  0.57443  0.91703  Biso   1.000  H
  H797     1.0000 0.42557  0.16783  0.91703  Biso   1.000  H
  H798     1.0000 0.83217  0.25773  0.91703  Biso   1.000  H
  H799     1.0000 0.40893  0.90777  0.25037  Biso   1.000  H
  H800     1.0000 0.09223  0.50117  0.25037  Biso   1.000  H
  H801     1.0000 0.49883  0.59107  0.25037  Biso   1.000  H
  H802     1.0000 0.92440  0.75890  0.41630  Biso   1.000  H
  H803     1.0000 0.24110  0.16550  0.41630  Biso   1.000  H
  H804     1.0000 0.83450  0.07560  0.41630  Biso   1.000  H
  H805     1.0000 0.59107  0.09223  0.74963  Biso   1.000  H
  H806     1.0000 0.90777  0.49883  0.74963  Biso   1.000  H
  H807     1.0000 0.50117  0.40893  0.74963  Biso   1.000  H
  H808     1.0000 0.25773  0.42557  0.08297  Biso   1.000  H
  H809     1.0000 0.57443  0.83217  0.08297  Biso   1.000  H
  H810     1.0000 0.16783  0.74227  0.08297  Biso   1.000  H
  C577     1.0000 0.16720  0.27700  0.81100  Biso   1.000  C
  C578     1.0000 0.72300  0.89020  0.81100  Biso   1.000  C
  C579     1.0000 0.10980  0.83280  0.81100  Biso   1.000  C
  C580     1.0000 0.83387  0.61033  0.14433  Biso   1.000  C
  C581     1.0000 0.38967  0.22353  0.14433  Biso   1.000  C
  C582     1.0000 0.77647  0.16613  0.14433  Biso   1.000  C
  C583     1.0000 0.50053  0.94367  0.47767  Biso   1.000  C
  C584     1.0000 0.05633  0.55687  0.47767  Biso   1.000  C
  C585     1.0000 0.44313  0.49947  0.47767  Biso   1.000  C
  C586     1.0000 0.83280  0.72300  0.18900  Biso   1.000  C
  C587     1.0000 0.27700  0.10980  0.18900  Biso   1.000  C
  C588     1.0000 0.89020  0.16720  0.18900  Biso   1.000  C
  C589     1.0000 0.49947  0.05633  0.52233  Biso   1.000  C
  C590     1.0000 0.94367  0.44313  0.52233  Biso   1.000  C
  C591     1.0000 0.55687  0.50053  0.52233  Biso   1.000  C
  C592     1.0000 0.16613  0.38967  0.85567  Biso   1.000  C
  C593     1.0000 0.61033  0.77647  0.85567  Biso   1.000  C
  C594     1.0000 0.22353  0.83387  0.85567  Biso   1.000  C
  H811     1.0000 0.16750  0.27170  0.89880  Biso   1.000  H
  H812     1.0000 0.72830  0.89580  0.89880  Biso   1.000  H
  H813     1.0000 0.10420  0.83250  0.89880  Biso   1.000  H
  H814     1.0000 0.83417  0.60503  0.23213  Biso   1.000  H
  H815     1.0000 0.39497  0.22913  0.23213  Biso   1.000  H
  H816     1.0000 0.77087  0.16583  0.23213  Biso   1.000  H
  H817     1.0000 0.50083  0.93837  0.56547  Biso   1.000  H
  H818     1.0000 0.06163  0.56247  0.56547  Biso   1.000  H
  H819     1.0000 0.43753  0.49917  0.56547  Biso   1.000  H
  H820     1.0000 0.83250  0.72830  0.10120  Biso   1.000  H
  H821     1.0000 0.27170  0.10420  0.10120  Biso   1.000  H
  H822     1.0000 0.89580  0.16750  0.10120  Biso   1.000  H
  H823     1.0000 0.49917  0.06163  0.43453  Biso   1.000  H
  H824     1.0000 0.93837  0.43753  0.43453  Biso   1.000  H
  H825     1.0000 0.56247  0.50083  0.43453  Biso   1.000  H
  H826     1.0000 0.16583  0.39497  0.76787  Biso   1.000  H
  H827     1.0000 0.60503  0.77087  0.76787  Biso   1.000  H
  H828     1.0000 0.22913  0.83417  0.76787  Biso   1.000  H
  H829     1.0000 0.17710  0.26620  0.76120  Biso   1.000  H
  H830     1.0000 0.73380  0.91090  0.76120  Biso   1.000  H
  H831     1.0000 0.08910  0.82290  0.76120  Biso   1.000  H
  H832     1.0000 0.84377  0.59953  0.09453  Biso   1.000  H
  H833     1.0000 0.40047  0.24423  0.09453  Biso   1.000  H
  H834     1.0000 0.75577  0.15623  0.09453  Biso   1.000  H
  H835     1.0000 0.51043  0.93287  0.42787  Biso   1.000  H
  H836     1.0000 0.06713  0.57757  0.42787  Biso   1.000  H
  H837     1.0000 0.42243  0.48957  0.42787  Biso   1.000  H
  H838     1.0000 0.82290  0.73380  0.23880  Biso   1.000  H
  H839     1.0000 0.26620  0.08910  0.23880  Biso   1.000  H
  H840     1.0000 0.91090  0.17710  0.23880  Biso   1.000  H
  H841     1.0000 0.48957  0.06713  0.57213  Biso   1.000  H
  H842     1.0000 0.93287  0.42243  0.57213  Biso   1.000  H
  H843     1.0000 0.57757  0.51043  0.57213  Biso   1.000  H
  H844     1.0000 0.15623  0.40047  0.90547  Biso   1.000  H
  H845     1.0000 0.59953  0.75577  0.90547  Biso   1.000  H
  H846     1.0000 0.24423  0.84377  0.90547  Biso   1.000  H
  H847     1.0000 0.18040  0.30150  0.79920  Biso   1.000  H
  H848     1.0000 0.69850  0.87890  0.79920  Biso   1.000  H
  H849     1.0000 0.12110  0.81960  0.79920  Biso   1.000  H
  H850     1.0000 0.84707  0.63483  0.13253  Biso   1.000  H
  H851     1.0000 0.36517  0.21223  0.13253  Biso   1.000  H
  H852     1.0000 0.78777  0.15293  0.13253  Biso   1.000  H
  H853     1.0000 0.51373  0.96817  0.46587  Biso   1.000  H
  H854     1.0000 0.03183  0.54557  0.46587  Biso   1.000  H
  H855     1.0000 0.45443  0.48627  0.46587  Biso   1.000  H
  H856     1.0000 0.81960  0.69850  0.20080  Biso   1.000  H
  H857     1.0000 0.30150  0.12110  0.20080  Biso   1.000  H
  H858     1.0000 0.87890  0.18040  0.20080  Biso   1.000  H
  H859     1.0000 0.48627  0.03183  0.53413  Biso   1.000  H
  H860     1.0000 0.96817  0.45443  0.53413  Biso   1.000  H
  H861     1.0000 0.54557  0.51373  0.53413  Biso   1.000  H
  H862     1.0000 0.15293  0.36517  0.86747  Biso   1.000  H
  H863     1.0000 0.63483  0.78777  0.86747  Biso   1.000  H
  H864     1.0000 0.21223  0.84707  0.86747  Biso   1.000  H
  C595     1.0000 0.10710  0.25300  0.87400  Biso   1.000  C
  C596     1.0000 0.74700  0.85410  0.87400  Biso   1.000  C
  C597     1.0000 0.14590  0.89290  0.87400  Biso   1.000  C
  C598     1.0000 0.77377  0.58633  0.20733  Biso   1.000  C
  C599     1.0000 0.41367  0.18743  0.20733  Biso   1.000  C
  C600     1.0000 0.81257  0.22623  0.20733  Biso   1.000  C
  C601     1.0000 0.44043  0.91967  0.54067  Biso   1.000  C
  C602     1.0000 0.08033  0.52077  0.54067  Biso   1.000  C
  C603     1.0000 0.47923  0.55957  0.54067  Biso   1.000  C
  C604     1.0000 0.89290  0.74700  0.12600  Biso   1.000  C
  C605     1.0000 0.25300  0.14590  0.12600  Biso   1.000  C
  C606     1.0000 0.85410  0.10710  0.12600  Biso   1.000  C
  C607     1.0000 0.55957  0.08033  0.45933  Biso   1.000  C
  C608     1.0000 0.91967  0.47923  0.45933  Biso   1.000  C
  C609     1.0000 0.52077  0.44043  0.45933  Biso   1.000  C
  C610     1.0000 0.22623  0.41367  0.79267  Biso   1.000  C
  C611     1.0000 0.58633  0.81257  0.79267  Biso   1.000  C
  C612     1.0000 0.18743  0.77377  0.79267  Biso   1.000  C
  H865     1.0000 0.11790  0.25180  0.95040  Biso   1.000  H
  H866     1.0000 0.74820  0.86610  0.95040  Biso   1.000  H
  H867     1.0000 0.13390  0.88210  0.95040  Biso   1.000  H
  H868     1.0000 0.78457  0.58513  0.28373  Biso   1.000  H
  H869     1.0000 0.41487  0.19943  0.28373  Biso   1.000  H
  H870     1.0000 0.80057  0.21543  0.28373  Biso   1.000  H
  H871     1.0000 0.45123  0.91847  0.61707  Biso   1.000  H
  H872     1.0000 0.08153  0.53277  0.61707  Biso   1.000  H
  H873     1.0000 0.46723  0.54877  0.61707  Biso   1.000  H
  H874     1.0000 0.88210  0.74820  0.04960  Biso   1.000  H
  H875     1.0000 0.25180  0.13390  0.04960  Biso   1.000  H
  H876     1.0000 0.86610  0.11790  0.04960  Biso   1.000  H
  H877     1.0000 0.54877  0.08153  0.38293  Biso   1.000  H
  H878     1.0000 0.91847  0.46723  0.38293  Biso   1.000  H
  H879     1.0000 0.53277  0.45123  0.38293  Biso   1.000  H
  H880     1.0000 0.21543  0.41487  0.71627  Biso   1.000  H
  H881     1.0000 0.58513  0.80057  0.71627  Biso   1.000  H
  H882     1.0000 0.19943  0.78457  0.71627  Biso   1.000  H
  H883     1.0000 0.09900  0.26900  0.88430  Biso   1.000  H
  H884     1.0000 0.73100  0.83000  0.88430  Biso   1.000  H
  H885     1.0000 0.17000  0.90100  0.88430  Biso   1.000  H
  H886     1.0000 0.76567  0.60233  0.21763  Biso   1.000  H
  H887     1.0000 0.39767  0.16333  0.21763  Biso   1.000  H
  H888     1.0000 0.83667  0.23433  0.21763  Biso   1.000  H
  H889     1.0000 0.43233  0.93567  0.55097  Biso   1.000  H
  H890     1.0000 0.06433  0.49667  0.55097  Biso   1.000  H
  H891     1.0000 0.50333  0.56767  0.55097  Biso   1.000  H
  H892     1.0000 0.90100  0.73100  0.11570  Biso   1.000  H
  H893     1.0000 0.26900  0.17000  0.11570  Biso   1.000  H
  H894     1.0000 0.83000  0.09900  0.11570  Biso   1.000  H
  H895     1.0000 0.56767  0.06433  0.44903  Biso   1.000  H
  H896     1.0000 0.93567  0.50333  0.44903  Biso   1.000  H
  H897     1.0000 0.49667  0.43233  0.44903  Biso   1.000  H
  H898     1.0000 0.23433  0.39767  0.78237  Biso   1.000  H
  H899     1.0000 0.60233  0.83667  0.78237  Biso   1.000  H
  H900     1.0000 0.16333  0.76567  0.78237  Biso   1.000  H
  H901     1.0000 0.08810  0.23060  0.85390  Biso   1.000  H
  H902     1.0000 0.76940  0.85750  0.85390  Biso   1.000  H
  H903     1.0000 0.14250  0.91190  0.85390  Biso   1.000  H
  H904     1.0000 0.75477  0.56393  0.18723  Biso   1.000  H
  H905     1.0000 0.43607  0.19083  0.18723  Biso   1.000  H
  H906     1.0000 0.80917  0.24523  0.18723  Biso   1.000  H
  H907     1.0000 0.42143  0.89727  0.52057  Biso   1.000  H
  H908     1.0000 0.10273  0.52417  0.52057  Biso   1.000  H
  H909     1.0000 0.47583  0.57857  0.52057  Biso   1.000  H
  H910     1.0000 0.91190  0.76940  0.14610  Biso   1.000  H
  H911     1.0000 0.23060  0.14250  0.14610  Biso   1.000  H
  H912     1.0000 0.85750  0.08810  0.14610  Biso   1.000  H
  H913     1.0000 0.57857  0.10273  0.47943  Biso   1.000  H
  H914     1.0000 0.89727  0.47583  0.47943  Biso   1.000  H
  H915     1.0000 0.52417  0.42143  0.47943  Biso   1.000  H
  H916     1.0000 0.24523  0.43607  0.81277  Biso   1.000  H
  H917     1.0000 0.56393  0.80917  0.81277  Biso   1.000  H
  H918     1.0000 0.19083  0.75477  0.81277  Biso   1.000  H
  C613     1.0000 0.14660  0.26920  0.66100  Biso   1.000  C
  C614     1.0000 0.73080  0.87740  0.66100  Biso   1.000  C
  C615     1.0000 0.12260  0.85340  0.66100  Biso   1.000  C
  C616     1.0000 0.81327  0.60253  0.99433  Biso   1.000  C
  C617     1.0000 0.39747  0.21073  0.99433  Biso   1.000  C
  C618     1.0000 0.78927  0.18673  0.99433  Biso   1.000  C
  C619     1.0000 0.47993  0.93587  0.32767  Biso   1.000  C
  C620     1.0000 0.06413  0.54407  0.32767  Biso   1.000  C
  C621     1.0000 0.45593  0.52007  0.32767  Biso   1.000  C
  C622     1.0000 0.85340  0.73080  0.33900  Biso   1.000  C
  C623     1.0000 0.26920  0.12260  0.33900  Biso   1.000  C
  C624     1.0000 0.87740  0.14660  0.33900  Biso   1.000  C
  C625     1.0000 0.52007  0.06413  0.67233  Biso   1.000  C
  C626     1.0000 0.93587  0.45593  0.67233  Biso   1.000  C
  C627     1.0000 0.54407  0.47993  0.67233  Biso   1.000  C
  C628     1.0000 0.18673  0.39747  0.00567  Biso   1.000  C
  C629     1.0000 0.60253  0.78927  0.00567  Biso   1.000  C
  C630     1.0000 0.21073  0.81327  0.00567  Biso   1.000  C
  C631     1.0000 0.17780  0.26630  0.62900  Biso   1.000  C
  C632     1.0000 0.73370  0.91150  0.62900  Biso   1.000  C
  C633     1.0000 0.08850  0.82220  0.62900  Biso   1.000  C
  C634     1.0000 0.84447  0.59963  0.96233  Biso   1.000  C
  C635     1.0000 0.40037  0.24483  0.96233  Biso   1.000  C
  C636     1.0000 0.75517  0.15553  0.96233  Biso   1.000  C
  C637     1.0000 0.51113  0.93297  0.29567  Biso   1.000  C
  C638     1.0000 0.06703  0.57817  0.29567  Biso   1.000  C
  C639     1.0000 0.42183  0.48887  0.29567  Biso   1.000  C
  C640     1.0000 0.82220  0.73370  0.37100  Biso   1.000  C
  C641     1.0000 0.26630  0.08850  0.37100  Biso   1.000  C
  C642     1.0000 0.91150  0.17780  0.37100  Biso   1.000  C
  C643     1.0000 0.48887  0.06703  0.70433  Biso   1.000  C
  C644     1.0000 0.93297  0.42183  0.70433  Biso   1.000  C
  C645     1.0000 0.57817  0.51113  0.70433  Biso   1.000  C
  C646     1.0000 0.15553  0.40037  0.03767  Biso   1.000  C
  C647     1.0000 0.59963  0.75517  0.03767  Biso   1.000  C
  C648     1.0000 0.24483  0.84447  0.03767  Biso   1.000  C
  H919     1.0000 0.18880  0.26530  0.70510  Biso   1.000  H
  H920     1.0000 0.73470  0.92350  0.70510  Biso   1.000  H
  H921     1.0000 0.07650  0.81120  0.70510  Biso   1.000  H
  H922     1.0000 0.85547  0.59863  0.03843  Biso   1.000  H
  H923     1.0000 0.40137  0.25683  0.03843  Biso   1.000  H
  H924     1.0000 0.74317  0.14453  0.03843  Biso   1.000  H
  H925     1.0000 0.52213  0.93197  0.37177  Biso   1.000  H
  H926     1.0000 0.06803  0.59017  0.37177  Biso   1.000  H
  H927     1.0000 0.40983  0.47787  0.37177  Biso   1.000  H
  H928     1.0000 0.81120  0.73470  0.29490  Biso   1.000  H
  H929     1.0000 0.26530  0.07650  0.29490  Biso   1.000  H
  H930     1.0000 0.92350  0.18880  0.29490  Biso   1.000  H
  H931     1.0000 0.47787  0.06803  0.62823  Biso   1.000  H
  H932     1.0000 0.93197  0.40983  0.62823  Biso   1.000  H
  H933     1.0000 0.59017  0.52213  0.62823  Biso   1.000  H
  H934     1.0000 0.14453  0.40137  0.96157  Biso   1.000  H
  H935     1.0000 0.59863  0.74317  0.96157  Biso   1.000  H
  H936     1.0000 0.25683  0.85547  0.96157  Biso   1.000  H
  H937     1.0000 0.17070  0.24570  0.58010  Biso   1.000  H
  H938     1.0000 0.75430  0.92500  0.58010  Biso   1.000  H
  H939     1.0000 0.07500  0.82930  0.58010  Biso   1.000  H
  H940     1.0000 0.83737  0.57903  0.91343  Biso   1.000  H
  H941     1.0000 0.42097  0.25833  0.91343  Biso   1.000  H
  H942     1.0000 0.74167  0.16263  0.91343  Biso   1.000  H
  H943     1.0000 0.50403  0.91237  0.24677  Biso   1.000  H
  H944     1.0000 0.08763  0.59167  0.24677  Biso   1.000  H
  H945     1.0000 0.40833  0.49597  0.24677  Biso   1.000  H
  H946     1.0000 0.82930  0.75430  0.41990  Biso   1.000  H
  H947     1.0000 0.24570  0.07500  0.41990  Biso   1.000  H
  H948     1.0000 0.92500  0.17070  0.41990  Biso   1.000  H
  H949     1.0000 0.49597  0.08763  0.75323  Biso   1.000  H
  H950     1.0000 0.91237  0.40833  0.75323  Biso   1.000  H
  H951     1.0000 0.59167  0.50403  0.75323  Biso   1.000  H
  H952     1.0000 0.16263  0.42097  0.08657  Biso   1.000  H
  H953     1.0000 0.57903  0.74167  0.08657  Biso   1.000  H
  H954     1.0000 0.25833  0.83737  0.08657  Biso   1.000  H
  H955     1.0000 0.19360  0.28600  0.57980  Biso   1.000  H
  H956     1.0000 0.71400  0.90760  0.57980  Biso   1.000  H
  H957     1.0000 0.09240  0.80640  0.57980  Biso   1.000  H
  H958     1.0000 0.86027  0.61933  0.91313  Biso   1.000  H
  H959     1.0000 0.38067  0.24093  0.91313  Biso   1.000  H
  H960     1.0000 0.75907  0.13973  0.91313  Biso   1.000  H
  H961     1.0000 0.52693  0.95267  0.24647  Biso   1.000  H
  H962     1.0000 0.04733  0.57427  0.24647  Biso   1.000  H
  H963     1.0000 0.42573  0.47307  0.24647  Biso   1.000  H
  H964     1.0000 0.80640  0.71400  0.42020  Biso   1.000  H
  H965     1.0000 0.28600  0.09240  0.42020  Biso   1.000  H
  H966     1.0000 0.90760  0.19360  0.42020  Biso   1.000  H
  H967     1.0000 0.47307  0.04733  0.75353  Biso   1.000  H
  H968     1.0000 0.95267  0.42573  0.75353  Biso   1.000  H
  H969     1.0000 0.57427  0.52693  0.75353  Biso   1.000  H
  H970     1.0000 0.13973  0.38067  0.08687  Biso   1.000  H
  H971     1.0000 0.61933  0.75907  0.08687  Biso   1.000  H
  H972     1.0000 0.24093  0.86027  0.08687  Biso   1.000  H
  C649     1.0000 0.10720  0.27560  0.80200  Biso   1.000  C
  C650     1.0000 0.72440  0.83160  0.80200  Biso   1.000  C
  C651     1.0000 0.16840  0.89280  0.80200  Biso   1.000  C
  C652     1.0000 0.77387  0.60893  0.13533  Biso   1.000  C
  C653     1.0000 0.39107  0.16493  0.13533  Biso   1.000  C
  C654     1.0000 0.83507  0.22613  0.13533  Biso   1.000  C
  C655     1.0000 0.44053  0.94227  0.46867  Biso   1.000  C
  C656     1.0000 0.05773  0.49827  0.46867  Biso   1.000  C
  C657     1.0000 0.50173  0.55947  0.46867  Biso   1.000  C
  C658     1.0000 0.89280  0.72440  0.19800  Biso   1.000  C
  C659     1.0000 0.27560  0.16840  0.19800  Biso   1.000  C
  C660     1.0000 0.83160  0.10720  0.19800  Biso   1.000  C
  C661     1.0000 0.55947  0.05773  0.53133  Biso   1.000  C
  C662     1.0000 0.94227  0.50173  0.53133  Biso   1.000  C
  C663     1.0000 0.49827  0.44053  0.53133  Biso   1.000  C
  C664     1.0000 0.22613  0.39107  0.86467  Biso   1.000  C
  C665     1.0000 0.60893  0.83507  0.86467  Biso   1.000  C
  C666     1.0000 0.16493  0.77387  0.86467  Biso   1.000  C
  H973     1.0000 0.09960  0.26950  0.88790  Biso   1.000  H
  H974     1.0000 0.73050  0.83010  0.88790  Biso   1.000  H
  H975     1.0000 0.16990  0.90040  0.88790  Biso   1.000  H
  H976     1.0000 0.76627  0.60283  0.22123  Biso   1.000  H
  H977     1.0000 0.39717  0.16343  0.22123  Biso   1.000  H
  H978     1.0000 0.83657  0.23373  0.22123  Biso   1.000  H
  H979     1.0000 0.43293  0.93617  0.55457  Biso   1.000  H
  H980     1.0000 0.06383  0.49677  0.55457  Biso   1.000  H
  H981     1.0000 0.50323  0.56707  0.55457  Biso   1.000  H
  H982     1.0000 0.90040  0.73050  0.11210  Biso   1.000  H
  H983     1.0000 0.26950  0.16990  0.11210  Biso   1.000  H
  H984     1.0000 0.83010  0.09960  0.11210  Biso   1.000  H
  H985     1.0000 0.56707  0.06383  0.44543  Biso   1.000  H
  H986     1.0000 0.93617  0.50323  0.44543  Biso   1.000  H
  H987     1.0000 0.49677  0.43293  0.44543  Biso   1.000  H
  H988     1.0000 0.23373  0.39717  0.77877  Biso   1.000  H
  H989     1.0000 0.60283  0.83657  0.77877  Biso   1.000  H
  H990     1.0000 0.16343  0.76627  0.77877  Biso   1.000  H
  H991     1.0000 0.11800  0.30020  0.79190  Biso   1.000  H
  H992     1.0000 0.69980  0.81780  0.79190  Biso   1.000  H
  H993     1.0000 0.18220  0.88200  0.79190  Biso   1.000  H
  H994     1.0000 0.78467  0.63353  0.12523  Biso   1.000  H
  H995     1.0000 0.36647  0.15113  0.12523  Biso   1.000  H
  H996     1.0000 0.84887  0.21533  0.12523  Biso   1.000  H
  H997     1.0000 0.45133  0.96687  0.45857  Biso   1.000  H
  H998     1.0000 0.03313  0.48447  0.45857  Biso   1.000  H
  H999     1.0000 0.51553  0.54867  0.45857  Biso   1.000  H
  H1000    1.0000 0.88200  0.69980  0.20810  Biso   1.000  H
  H1001    1.0000 0.30020  0.18220  0.20810  Biso   1.000  H
  H1002    1.0000 0.81780  0.11800  0.20810  Biso   1.000  H
  H1003    1.0000 0.54867  0.03313  0.54143  Biso   1.000  H
  H1004    1.0000 0.96687  0.51553  0.54143  Biso   1.000  H
  H1005    1.0000 0.48447  0.45133  0.54143  Biso   1.000  H
  H1006    1.0000 0.21533  0.36647  0.87477  Biso   1.000  H
  H1007    1.0000 0.63353  0.84887  0.87477  Biso   1.000  H
  H1008    1.0000 0.15113  0.78467  0.87477  Biso   1.000  H
  H1009    1.0000 0.08770  0.26450  0.74610  Biso   1.000  H
  H1010    1.0000 0.73550  0.82320  0.74610  Biso   1.000  H
  H1011    1.0000 0.17680  0.91230  0.74610  Biso   1.000  H
  H1012    1.0000 0.75437  0.59783  0.07943  Biso   1.000  H
  H1013    1.0000 0.40217  0.15653  0.07943  Biso   1.000  H
  H1014    1.0000 0.84347  0.24563  0.07943  Biso   1.000  H
  H1015    1.0000 0.42103  0.93117  0.41277  Biso   1.000  H
  H1016    1.0000 0.06883  0.48987  0.41277  Biso   1.000  H
  H1017    1.0000 0.51013  0.57897  0.41277  Biso   1.000  H
  H1018    1.0000 0.91230  0.73550  0.25390  Biso   1.000  H
  H1019    1.0000 0.26450  0.17680  0.25390  Biso   1.000  H
  H1020    1.0000 0.82320  0.08770  0.25390  Biso   1.000  H
  H1021    1.0000 0.57897  0.06883  0.58723  Biso   1.000  H
  H1022    1.0000 0.93117  0.51013  0.58723  Biso   1.000  H
  H1023    1.0000 0.48987  0.42103  0.58723  Biso   1.000  H
  H1024    1.0000 0.24563  0.40217  0.92057  Biso   1.000  H
  H1025    1.0000 0.59783  0.84347  0.92057  Biso   1.000  H
  H1026    1.0000 0.15653  0.75437  0.92057  Biso   1.000  H
  C667     1.0000 0.14510  0.25530  0.88600  Biso   1.000  C
  C668     1.0000 0.74470  0.88980  0.88600  Biso   1.000  C
  C669     1.0000 0.11020  0.85490  0.88600  Biso   1.000  C
  C670     1.0000 0.81177  0.58863  0.21933  Biso   1.000  C
  C671     1.0000 0.41137  0.22313  0.21933  Biso   1.000  C
  C672     1.0000 0.77687  0.18823  0.21933  Biso   1.000  C
  C673     1.0000 0.47843  0.92197  0.55267  Biso   1.000  C
  C674     1.0000 0.07803  0.55647  0.55267  Biso   1.000  C
  C675     1.0000 0.44353  0.52157  0.55267  Biso   1.000  C
  C676     1.0000 0.85490  0.74470  0.11400  Biso   1.000  C
  C677     1.0000 0.25530  0.11020  0.11400  Biso   1.000  C
  C678     1.0000 0.88980  0.14510  0.11400  Biso   1.000  C
  C679     1.0000 0.52157  0.07803  0.44733  Biso   1.000  C
  C680     1.0000 0.92197  0.44353  0.44733  Biso   1.000  C
  C681     1.0000 0.55647  0.47843  0.44733  Biso   1.000  C
  C682     1.0000 0.18823  0.41137  0.78067  Biso   1.000  C
  C683     1.0000 0.58863  0.77687  0.78067  Biso   1.000  C
  C684     1.0000 0.22313  0.81177  0.78067  Biso   1.000  C
  H1027    1.0000 0.13070  0.25290  0.95730  Biso   1.000  H
  H1028    1.0000 0.74710  0.87780  0.95730  Biso   1.000  H
  H1029    1.0000 0.12220  0.86930  0.95730  Biso   1.000  H
  H1030    1.0000 0.79737  0.58623  0.29063  Biso   1.000  H
  H1031    1.0000 0.41377  0.21113  0.29063  Biso   1.000  H
  H1032    1.0000 0.78887  0.20263  0.29063  Biso   1.000  H
  H1033    1.0000 0.46403  0.91957  0.62397  Biso   1.000  H
  H1034    1.0000 0.08043  0.54447  0.62397  Biso   1.000  H
  H1035    1.0000 0.45553  0.53597  0.62397  Biso   1.000  H
  H1036    1.0000 0.86930  0.74710  0.04270  Biso   1.000  H
  H1037    1.0000 0.25290  0.12220  0.04270  Biso   1.000  H
  H1038    1.0000 0.87780  0.13070  0.04270  Biso   1.000  H
  H1039    1.0000 0.53597  0.08043  0.37603  Biso   1.000  H
  H1040    1.0000 0.91957  0.45553  0.37603  Biso   1.000  H
  H1041    1.0000 0.54447  0.46403  0.37603  Biso   1.000  H
  H1042    1.0000 0.20263  0.41377  0.70937  Biso   1.000  H
  H1043    1.0000 0.58623  0.78887  0.70937  Biso   1.000  H
  H1044    1.0000 0.21113  0.79737  0.70937  Biso   1.000  H
  H1045    1.0000 0.14460  0.23390  0.87170  Biso   1.000  H
  H1046    1.0000 0.76610  0.91070  0.87170  Biso   1.000  H
  H1047    1.0000 0.08930  0.85540  0.87170  Biso   1.000  H
  H1048    1.0000 0.81127  0.56723  0.20503  Biso   1.000  H
  H1049    1.0000 0.43277  0.24403  0.20503  Biso   1.000  H
  H1050    1.0000 0.75597  0.18873  0.20503  Biso   1.000  H
  H1051    1.0000 0.47793  0.90057  0.53837  Biso   1.000  H
  H1052    1.0000 0.09943  0.57737  0.53837  Biso   1.000  H
  H1053    1.0000 0.42263  0.52207  0.53837  Biso   1.000  H
  H1054    1.0000 0.85540  0.76610  0.12830  Biso   1.000  H
  H1055    1.0000 0.23390  0.08930  0.12830  Biso   1.000  H
  H1056    1.0000 0.91070  0.14460  0.12830  Biso   1.000  H
  H1057    1.0000 0.52207  0.09943  0.46163  Biso   1.000  H
  H1058    1.0000 0.90057  0.42263  0.46163  Biso   1.000  H
  H1059    1.0000 0.57737  0.47793  0.46163  Biso   1.000  H
  H1060    1.0000 0.18873  0.43277  0.79497  Biso   1.000  H
  H1061    1.0000 0.56723  0.75597  0.79497  Biso   1.000  H
  H1062    1.0000 0.24403  0.81127  0.79497  Biso   1.000  H
  H1063    1.0000 0.16830  0.27310  0.90280  Biso   1.000  H
  H1064    1.0000 0.72690  0.89520  0.90280  Biso   1.000  H
  H1065    1.0000 0.10480  0.83170  0.90280  Biso   1.000  H
  H1066    1.0000 0.83497  0.60643  0.23613  Biso   1.000  H
  H1067    1.0000 0.39357  0.22853  0.23613  Biso   1.000  H
  H1068    1.0000 0.77147  0.16503  0.23613  Biso   1.000  H
  H1069    1.0000 0.50163  0.93977  0.56947  Biso   1.000  H
  H1070    1.0000 0.06023  0.56187  0.56947  Biso   1.000  H
  H1071    1.0000 0.43813  0.49837  0.56947  Biso   1.000  H
  H1072    1.0000 0.83170  0.72690  0.09720  Biso   1.000  H
  H1073    1.0000 0.27310  0.10480  0.09720  Biso   1.000  H
  H1074    1.0000 0.89520  0.16830  0.09720  Biso   1.000  H
  H1075    1.0000 0.49837  0.06023  0.43053  Biso   1.000  H
  H1076    1.0000 0.93977  0.43813  0.43053  Biso   1.000  H
  H1077    1.0000 0.56187  0.50163  0.43053  Biso   1.000  H
  H1078    1.0000 0.16503  0.39357  0.76387  Biso   1.000  H
  H1079    1.0000 0.60643  0.77147  0.76387  Biso   1.000  H
  H1080    1.0000 0.22853  0.83497  0.76387  Biso   1.000  H
  H1081    1.0000 0.00410  0.21870  0.17230  Biso   1.000  H
  H1082    1.0000 0.78130  0.78540  0.17230  Biso   1.000  H
  H1083    1.0000 0.21460  0.99590  0.17230  Biso   1.000  H
  H1084    1.0000 0.67077  0.55203  0.50563  Biso   1.000  H
  H1085    1.0000 0.44797  0.11873  0.50563  Biso   1.000  H
  H1086    1.0000 0.88127  0.32923  0.50563  Biso   1.000  H
  H1087    1.0000 0.33743  0.88537  0.83897  Biso   1.000  H
  H1088    1.0000 0.11463  0.45207  0.83897  Biso   1.000  H
  H1089    1.0000 0.54793  0.66257  0.83897  Biso   1.000  H
  H1090    1.0000 0.99590  0.78130  0.82770  Biso   1.000  H
  H1091    1.0000 0.21870  0.21460  0.82770  Biso   1.000  H
  H1092    1.0000 0.78540  0.00410  0.82770  Biso   1.000  H
  H1093    1.0000 0.66257  0.11463  0.16103  Biso   1.000  H
  H1094    1.0000 0.88537  0.54793  0.16103  Biso   1.000  H
  H1095    1.0000 0.45207  0.33743  0.16103  Biso   1.000  H
  H1096    1.0000 0.32923  0.44797  0.49437  Biso   1.000  H
  H1097    1.0000 0.55203  0.88127  0.49437  Biso   1.000  H
  H1098    1.0000 0.11873  0.67077  0.49437  Biso   1.000  H
  H1099    1.0000 0.96030  0.25110  0.08680  Biso   1.000  H
  H1100    1.0000 0.74890  0.70920  0.08680  Biso   1.000  H
  H1101    1.0000 0.29080  0.03970  0.08680  Biso   1.000  H
  H1102    1.0000 0.62697  0.58443  0.42013  Biso   1.000  H
  H1103    1.0000 0.41557  0.04253  0.42013  Biso   1.000  H
  H1104    1.0000 0.95747  0.37303  0.42013  Biso   1.000  H
  H1105    1.0000 0.29363  0.91777  0.75347  Biso   1.000  H
  H1106    1.0000 0.08223  0.37587  0.75347  Biso   1.000  H
  H1107    1.0000 0.62413  0.70637  0.75347  Biso   1.000  H
  H1108    1.0000 0.03970  0.74890  0.91320  Biso   1.000  H
  H1109    1.0000 0.25110  0.29080  0.91320  Biso   1.000  H
  H1110    1.0000 0.70920  0.96030  0.91320  Biso   1.000  H
  H1111    1.0000 0.70637  0.08223  0.24653  Biso   1.000  H
  H1112    1.0000 0.91777  0.62413  0.24653  Biso   1.000  H
  H1113    1.0000 0.37587  0.29363  0.24653  Biso   1.000  H
  H1114    1.0000 0.37303  0.41557  0.57987  Biso   1.000  H
  H1115    1.0000 0.58443  0.95747  0.57987  Biso   1.000  H
  H1116    1.0000 0.04253  0.62697  0.57987  Biso   1.000  H
  N127     1.0000 0.13190  0.26450  0.77110  Biso   1.000  N
  N128     1.0000 0.73550  0.86740  0.77110  Biso   1.000  N
  N129     1.0000 0.13260  0.86810  0.77110  Biso   1.000  N
  N130     1.0000 0.79857  0.59783  0.10443  Biso   1.000  N
  N131     1.0000 0.40217  0.20073  0.10443  Biso   1.000  N
  N132     1.0000 0.79927  0.20143  0.10443  Biso   1.000  N
  N133     1.0000 0.46523  0.93117  0.43777  Biso   1.000  N
  N134     1.0000 0.06883  0.53407  0.43777  Biso   1.000  N
  N135     1.0000 0.46593  0.53477  0.43777  Biso   1.000  N
  N136     1.0000 0.86810  0.73550  0.22890  Biso   1.000  N
  N137     1.0000 0.26450  0.13260  0.22890  Biso   1.000  N
  N138     1.0000 0.86740  0.13190  0.22890  Biso   1.000  N
  N139     1.0000 0.53477  0.06883  0.56223  Biso   1.000  N
  N140     1.0000 0.93117  0.46593  0.56223  Biso   1.000  N
  N141     1.0000 0.53407  0.46523  0.56223  Biso   1.000  N
  N142     1.0000 0.20143  0.40217  0.89557  Biso   1.000  N
  N143     1.0000 0.59783  0.79927  0.89557  Biso   1.000  N
  N144     1.0000 0.20073  0.79857  0.89557  Biso   1.000  N
