data_image0
_cell_length_a       38.2768
_cell_length_b       38.2768
_cell_length_c       34.6107
_cell_angle_alpha    90
_cell_angle_beta     90
_cell_angle_gamma    120

_symmetry_space_group_name_H-M    "P 1"
_symmetry_int_tables_number       1

loop_
  _symmetry_equiv_pos_as_xyz
  'x, y, z'

loop_
  _atom_site_label
  _atom_site_occupancy
  _atom_site_fract_x
  _atom_site_fract_y
  _atom_site_fract_z
  _atom_site_thermal_displace_type
  _atom_site_B_iso_or_equiv
  _atom_site_type_symbol
  Cu1      1.0000 0.59077  0.05483  0.88998  Biso   1.000  Cu
  Cu2      1.0000 0.94517  0.53594  0.88998  Biso   1.000  Cu
  Cu3      1.0000 0.46406  0.40923  0.88998  Biso   1.000  Cu
  Cu4      1.0000 0.25744  0.38816  0.22331  Biso   1.000  Cu
  Cu5      1.0000 0.61184  0.86927  0.22331  Biso   1.000  Cu
  Cu6      1.0000 0.13073  0.74256  0.22331  Biso   1.000  Cu
  Cu7      1.0000 0.92410  0.72150  0.55665  Biso   1.000  Cu
  Cu8      1.0000 0.27850  0.20261  0.55665  Biso   1.000  Cu
  Cu9      1.0000 0.79739  0.07590  0.55665  Biso   1.000  Cu
  Cu10     1.0000 0.73185  0.09150  0.82910  Biso   1.000  Cu
  Cu11     1.0000 0.90850  0.64035  0.82910  Biso   1.000  Cu
  Cu12     1.0000 0.35965  0.26815  0.82910  Biso   1.000  Cu
  Cu13     1.0000 0.39852  0.42483  0.16243  Biso   1.000  Cu
  Cu14     1.0000 0.57517  0.97368  0.16243  Biso   1.000  Cu
  Cu15     1.0000 0.02632  0.60148  0.16243  Biso   1.000  Cu
  Cu16     1.0000 0.06518  0.75817  0.49577  Biso   1.000  Cu
  Cu17     1.0000 0.24183  0.30702  0.49577  Biso   1.000  Cu
  Cu18     1.0000 0.69298  0.93482  0.49577  Biso   1.000  Cu
  Cu19     1.0000 0.44203  0.04381  0.82690  Biso   1.000  Cu
  Cu20     1.0000 0.95619  0.39822  0.82690  Biso   1.000  Cu
  Cu21     1.0000 0.60178  0.55797  0.82690  Biso   1.000  Cu
  Cu22     1.0000 0.10870  0.37714  0.16023  Biso   1.000  Cu
  Cu23     1.0000 0.62286  0.73155  0.16023  Biso   1.000  Cu
  Cu24     1.0000 0.26845  0.89130  0.16023  Biso   1.000  Cu
  Cu25     1.0000 0.77536  0.71048  0.49357  Biso   1.000  Cu
  Cu26     1.0000 0.28952  0.06489  0.49357  Biso   1.000  Cu
  Cu27     1.0000 0.93511  0.22464  0.49357  Biso   1.000  Cu
  Cu28     1.0000 0.40694  0.15181  0.88192  Biso   1.000  Cu
  Cu29     1.0000 0.84819  0.25513  0.88192  Biso   1.000  Cu
  Cu30     1.0000 0.74487  0.59306  0.88192  Biso   1.000  Cu
  Cu31     1.0000 0.07361  0.48514  0.21525  Biso   1.000  Cu
  Cu32     1.0000 0.51486  0.58846  0.21525  Biso   1.000  Cu
  Cu33     1.0000 0.41154  0.92639  0.21525  Biso   1.000  Cu
  Cu34     1.0000 0.74027  0.81848  0.54859  Biso   1.000  Cu
  Cu35     1.0000 0.18152  0.92180  0.54859  Biso   1.000  Cu
  Cu36     1.0000 0.07820  0.25973  0.54859  Biso   1.000  Cu
  Cu37     1.0000 0.60154  0.02641  0.69556  Biso   1.000  Cu
  Cu38     1.0000 0.97359  0.57513  0.69556  Biso   1.000  Cu
  Cu39     1.0000 0.42487  0.39846  0.69556  Biso   1.000  Cu
  Cu40     1.0000 0.26821  0.35974  0.02889  Biso   1.000  Cu
  Cu41     1.0000 0.64026  0.90846  0.02889  Biso   1.000  Cu
  Cu42     1.0000 0.09154  0.73179  0.02889  Biso   1.000  Cu
  Cu43     1.0000 0.93487  0.69308  0.36223  Biso   1.000  Cu
  Cu44     1.0000 0.30692  0.24180  0.36223  Biso   1.000  Cu
  Cu45     1.0000 0.75820  0.06513  0.36223  Biso   1.000  Cu
  Cu46     1.0000 0.74269  0.13082  0.63469  Biso   1.000  Cu
  Cu47     1.0000 0.86918  0.61187  0.63469  Biso   1.000  Cu
  Cu48     1.0000 0.38813  0.25731  0.63469  Biso   1.000  Cu
  Cu49     1.0000 0.40936  0.46415  0.96802  Biso   1.000  Cu
  Cu50     1.0000 0.53585  0.94520  0.96802  Biso   1.000  Cu
  Cu51     1.0000 0.05480  0.59064  0.96802  Biso   1.000  Cu
  Cu52     1.0000 0.07602  0.79749  0.30136  Biso   1.000  Cu
  Cu53     1.0000 0.20251  0.27854  0.30136  Biso   1.000  Cu
  Cu54     1.0000 0.72146  0.92398  0.30136  Biso   1.000  Cu
  Cu55     1.0000 0.48507  0.07361  0.64276  Biso   1.000  Cu
  Cu56     1.0000 0.92639  0.41146  0.64276  Biso   1.000  Cu
  Cu57     1.0000 0.58854  0.51493  0.64276  Biso   1.000  Cu
  Cu58     1.0000 0.15174  0.40694  0.97609  Biso   1.000  Cu
  Cu59     1.0000 0.59306  0.74479  0.97609  Biso   1.000  Cu
  Cu60     1.0000 0.25521  0.84826  0.97609  Biso   1.000  Cu
  Cu61     1.0000 0.81840  0.74028  0.30943  Biso   1.000  Cu
  Cu62     1.0000 0.25972  0.07813  0.30943  Biso   1.000  Cu
  Cu63     1.0000 0.92187  0.18160  0.30943  Biso   1.000  Cu
  Cu64     1.0000 0.37734  0.10869  0.69780  Biso   1.000  Cu
  Cu65     1.0000 0.89131  0.26865  0.69780  Biso   1.000  Cu
  Cu66     1.0000 0.73135  0.62266  0.69780  Biso   1.000  Cu
  Cu67     1.0000 0.04401  0.44202  0.03113  Biso   1.000  Cu
  Cu68     1.0000 0.55798  0.60198  0.03113  Biso   1.000  Cu
  Cu69     1.0000 0.39802  0.95599  0.03113  Biso   1.000  Cu
  Cu70     1.0000 0.71067  0.77536  0.36447  Biso   1.000  Cu
  Cu71     1.0000 0.22464  0.93532  0.36447  Biso   1.000  Cu
  Cu72     1.0000 0.06468  0.28933  0.36447  Biso   1.000  Cu
  O1       1.0000 0.74890  0.08210  0.59570  Biso   1.000  O
  O2       1.0000 0.91790  0.66680  0.59570  Biso   1.000  O
  O3       1.0000 0.33320  0.25110  0.59570  Biso   1.000  O
  O4       1.0000 0.41557  0.41543  0.92903  Biso   1.000  O
  O5       1.0000 0.58457  0.00013  0.92903  Biso   1.000  O
  O6       1.0000 0.99987  0.58443  0.92903  Biso   1.000  O
  O7       1.0000 0.08223  0.74877  0.26237  Biso   1.000  O
  O8       1.0000 0.25123  0.33347  0.26237  Biso   1.000  O
  O9       1.0000 0.66653  0.91777  0.26237  Biso   1.000  O
  O10      1.0000 0.74390  0.04300  0.85430  Biso   1.000  O
  O11      1.0000 0.95700  0.70090  0.85430  Biso   1.000  O
  O12      1.0000 0.29910  0.25610  0.85430  Biso   1.000  O
  O13      1.0000 0.41057  0.37633  0.18763  Biso   1.000  O
  O14      1.0000 0.62367  0.03423  0.18763  Biso   1.000  O
  O15      1.0000 0.96577  0.58943  0.18763  Biso   1.000  O
  O16      1.0000 0.07723  0.70967  0.52097  Biso   1.000  O
  O17      1.0000 0.29033  0.36757  0.52097  Biso   1.000  O
  O18      1.0000 0.63243  0.92277  0.52097  Biso   1.000  O
  O19      1.0000 0.58880  0.96340  0.67110  Biso   1.000  O
  O20      1.0000 0.03660  0.62540  0.67110  Biso   1.000  O
  O21      1.0000 0.37460  0.41120  0.67110  Biso   1.000  O
  O22      1.0000 0.25547  0.29673  0.00443  Biso   1.000  O
  O23      1.0000 0.70327  0.95873  0.00443  Biso   1.000  O
  O24      1.0000 0.04127  0.74453  0.00443  Biso   1.000  O
  O25      1.0000 0.92213  0.63007  0.33777  Biso   1.000  O
  O26      1.0000 0.36993  0.29207  0.33777  Biso   1.000  O
  O27      1.0000 0.70793  0.07787  0.33777  Biso   1.000  O
  O28      1.0000 0.32160  0.05930  0.66490  Biso   1.000  O
  O29      1.0000 0.94070  0.26230  0.66490  Biso   1.000  O
  O30      1.0000 0.73770  0.67840  0.66490  Biso   1.000  O
  O31      1.0000 0.98827  0.39263  0.99823  Biso   1.000  O
  O32      1.0000 0.60737  0.59563  0.99823  Biso   1.000  O
  O33      1.0000 0.40437  0.01173  0.99823  Biso   1.000  O
  O34      1.0000 0.65493  0.72597  0.33157  Biso   1.000  O
  O35      1.0000 0.27403  0.92897  0.33157  Biso   1.000  O
  O36      1.0000 0.07103  0.34507  0.33157  Biso   1.000  O
  O37      1.0000 0.39330  0.98840  0.85980  Biso   1.000  O
  O38      1.0000 0.01160  0.40490  0.85980  Biso   1.000  O
  O39      1.0000 0.59510  0.60670  0.85980  Biso   1.000  O
  O40      1.0000 0.05997  0.32173  0.19313  Biso   1.000  O
  O41      1.0000 0.67827  0.73823  0.19313  Biso   1.000  O
  O42      1.0000 0.26177  0.94003  0.19313  Biso   1.000  O
  O43      1.0000 0.72663  0.65507  0.52647  Biso   1.000  O
  O44      1.0000 0.34493  0.07157  0.52647  Biso   1.000  O
  O45      1.0000 0.92843  0.27337  0.52647  Biso   1.000  O
  N1       1.0000 0.65100  0.08660  0.90380  Biso   1.000  N
  N2       1.0000 0.91340  0.56440  0.90380  Biso   1.000  N
  N3       1.0000 0.43560  0.34900  0.90380  Biso   1.000  N
  N4       1.0000 0.31767  0.41993  0.23713  Biso   1.000  N
  N5       1.0000 0.58007  0.89773  0.23713  Biso   1.000  N
  N6       1.0000 0.10227  0.68233  0.23713  Biso   1.000  N
  N7       1.0000 0.98433  0.75327  0.57047  Biso   1.000  N
  N8       1.0000 0.24673  0.23107  0.57047  Biso   1.000  N
  N9       1.0000 0.76893  0.01567  0.57047  Biso   1.000  N
  N10      1.0000 0.61150  0.03670  0.84590  Biso   1.000  N
  N11      1.0000 0.96330  0.57480  0.84590  Biso   1.000  N
  N12      1.0000 0.42520  0.38850  0.84590  Biso   1.000  N
  N13      1.0000 0.27817  0.37003  0.17923  Biso   1.000  N
  N14      1.0000 0.62997  0.90813  0.17923  Biso   1.000  N
  N15      1.0000 0.09187  0.72183  0.17923  Biso   1.000  N
  N16      1.0000 0.94483  0.70337  0.51257  Biso   1.000  N
  N17      1.0000 0.29663  0.24147  0.51257  Biso   1.000  N
  N18      1.0000 0.75853  0.05517  0.51257  Biso   1.000  N
  N19      1.0000 0.53800  0.03450  0.86170  Biso   1.000  N
  N20      1.0000 0.96550  0.50350  0.86170  Biso   1.000  N
  N21      1.0000 0.49650  0.46200  0.86170  Biso   1.000  N
  N22      1.0000 0.20467  0.36783  0.19503  Biso   1.000  N
  N23      1.0000 0.63217  0.83683  0.19503  Biso   1.000  N
  N24      1.0000 0.16317  0.79533  0.19503  Biso   1.000  N
  N25      1.0000 0.87133  0.70117  0.52837  Biso   1.000  N
  N26      1.0000 0.29883  0.17017  0.52837  Biso   1.000  N
  N27      1.0000 0.82983  0.12867  0.52837  Biso   1.000  N
  N28      1.0000 0.48610  0.03270  0.83610  Biso   1.000  N
  N29      1.0000 0.96730  0.45340  0.83610  Biso   1.000  N
  N30      1.0000 0.54660  0.51390  0.83610  Biso   1.000  N
  N31      1.0000 0.15277  0.36603  0.16943  Biso   1.000  N
  N32      1.0000 0.63397  0.78673  0.16943  Biso   1.000  N
  N33      1.0000 0.21327  0.84723  0.16943  Biso   1.000  N
  N34      1.0000 0.81943  0.69937  0.50277  Biso   1.000  N
  N35      1.0000 0.30063  0.12007  0.50277  Biso   1.000  N
  N36      1.0000 0.87993  0.18057  0.50277  Biso   1.000  N
  N37      1.0000 0.35720  0.21560  0.83630  Biso   1.000  N
  N38      1.0000 0.78440  0.14160  0.83630  Biso   1.000  N
  N39      1.0000 0.85840  0.64280  0.83630  Biso   1.000  N
  N40      1.0000 0.02387  0.54893  0.16963  Biso   1.000  N
  N41      1.0000 0.45107  0.47493  0.16963  Biso   1.000  N
  N42      1.0000 0.52507  0.97613  0.16963  Biso   1.000  N
  N43      1.0000 0.69053  0.88227  0.50297  Biso   1.000  N
  N44      1.0000 0.11773  0.80827  0.50297  Biso   1.000  N
  N45      1.0000 0.19173  0.30947  0.50297  Biso   1.000  N
  N46      1.0000 0.44490  0.13170  0.89450  Biso   1.000  N
  N47      1.0000 0.86830  0.31320  0.89450  Biso   1.000  N
  N48      1.0000 0.68680  0.55510  0.89450  Biso   1.000  N
  N49      1.0000 0.11157  0.46503  0.22783  Biso   1.000  N
  N50      1.0000 0.53497  0.64653  0.22783  Biso   1.000  N
  N51      1.0000 0.35347  0.88843  0.22783  Biso   1.000  N
  N52      1.0000 0.77823  0.79837  0.56117  Biso   1.000  N
  N53      1.0000 0.20163  0.97987  0.56117  Biso   1.000  N
  N54      1.0000 0.02013  0.22177  0.56117  Biso   1.000  N
  N55      1.0000 0.38430  0.10620  0.84410  Biso   1.000  N
  N56      1.0000 0.89380  0.27810  0.84410  Biso   1.000  N
  N57      1.0000 0.72190  0.61570  0.84410  Biso   1.000  N
  N58      1.0000 0.05097  0.43953  0.17743  Biso   1.000  N
  N59      1.0000 0.56047  0.61143  0.17743  Biso   1.000  N
  N60      1.0000 0.38857  0.94903  0.17743  Biso   1.000  N
  N61      1.0000 0.71763  0.77287  0.51077  Biso   1.000  N
  N62      1.0000 0.22713  0.94477  0.51077  Biso   1.000  N
  N63      1.0000 0.05523  0.28237  0.51077  Biso   1.000  N
  N64      1.0000 0.72240  0.09200  0.67820  Biso   1.000  N
  N65      1.0000 0.90800  0.63040  0.67820  Biso   1.000  N
  N66      1.0000 0.36960  0.27760  0.67820  Biso   1.000  N
  N67      1.0000 0.38907  0.42533  0.01153  Biso   1.000  N
  N68      1.0000 0.57467  0.96373  0.01153  Biso   1.000  N
  N69      1.0000 0.03627  0.61093  0.01153  Biso   1.000  N
  N70      1.0000 0.05573  0.75867  0.34487  Biso   1.000  N
  N71      1.0000 0.24133  0.29707  0.34487  Biso   1.000  N
  N72      1.0000 0.70293  0.94427  0.34487  Biso   1.000  N
  N73      1.0000 0.68340  0.10330  0.61980  Biso   1.000  N
  N74      1.0000 0.89670  0.58010  0.61980  Biso   1.000  N
  N75      1.0000 0.41990  0.31660  0.61980  Biso   1.000  N
  N76      1.0000 0.35007  0.43663  0.95313  Biso   1.000  N
  N77      1.0000 0.56337  0.91343  0.95313  Biso   1.000  N
  N78      1.0000 0.08657  0.64993  0.95313  Biso   1.000  N
  N79      1.0000 0.01673  0.76997  0.28647  Biso   1.000  N
  N80      1.0000 0.23003  0.24677  0.28647  Biso   1.000  N
  N81      1.0000 0.75323  0.98327  0.28647  Biso   1.000  N
  N82      1.0000 0.79550  0.16300  0.66260  Biso   1.000  N
  N83      1.0000 0.83700  0.63250  0.66260  Biso   1.000  N
  N84      1.0000 0.36750  0.20450  0.66260  Biso   1.000  N
  N85      1.0000 0.46217  0.49633  0.99593  Biso   1.000  N
  N86      1.0000 0.50367  0.96583  0.99593  Biso   1.000  N
  N87      1.0000 0.03417  0.53783  0.99593  Biso   1.000  N
  N88      1.0000 0.12883  0.82967  0.32927  Biso   1.000  N
  N89      1.0000 0.17033  0.29917  0.32927  Biso   1.000  N
  N90      1.0000 0.70083  0.87117  0.32927  Biso   1.000  N
  N91      1.0000 0.37220  0.17120  0.86130  Biso   1.000  N
  N92      1.0000 0.82880  0.20100  0.86130  Biso   1.000  N
  N93      1.0000 0.79900  0.62780  0.86130  Biso   1.000  N
  N94      1.0000 0.03887  0.50453  0.19463  Biso   1.000  N
  N95      1.0000 0.49547  0.53433  0.19463  Biso   1.000  N
  N96      1.0000 0.46567  0.96113  0.19463  Biso   1.000  N
  N97      1.0000 0.70553  0.83787  0.52797  Biso   1.000  N
  N98      1.0000 0.16213  0.86767  0.52797  Biso   1.000  N
  N99      1.0000 0.13233  0.29447  0.52797  Biso   1.000  N
  N100     1.0000 0.54980  0.02440  0.68820  Biso   1.000  N
  N101     1.0000 0.97560  0.52540  0.68820  Biso   1.000  N
  N102     1.0000 0.47460  0.45020  0.68820  Biso   1.000  N
  N103     1.0000 0.21647  0.35773  0.02153  Biso   1.000  N
  N104     1.0000 0.64227  0.85873  0.02153  Biso   1.000  N
  N105     1.0000 0.14127  0.78353  0.02153  Biso   1.000  N
  N106     1.0000 0.88313  0.69107  0.35487  Biso   1.000  N
  N107     1.0000 0.30893  0.19207  0.35487  Biso   1.000  N
  N108     1.0000 0.80793  0.11687  0.35487  Biso   1.000  N
  N109     1.0000 0.50570  0.03970  0.66290  Biso   1.000  N
  N110     1.0000 0.96030  0.46600  0.66290  Biso   1.000  N
  N111     1.0000 0.53400  0.49430  0.66290  Biso   1.000  N
  N112     1.0000 0.17237  0.37303  0.99623  Biso   1.000  N
  N113     1.0000 0.62697  0.79933  0.99623  Biso   1.000  N
  N114     1.0000 0.20067  0.82763  0.99623  Biso   1.000  N
  N115     1.0000 0.83903  0.70637  0.32957  Biso   1.000  N
  N116     1.0000 0.29363  0.13267  0.32957  Biso   1.000  N
  N117     1.0000 0.86733  0.16097  0.32957  Biso   1.000  N
  N118     1.0000 0.43920  0.04980  0.68040  Biso   1.000  N
  N119     1.0000 0.95020  0.38940  0.68040  Biso   1.000  N
  N120     1.0000 0.61060  0.56080  0.68040  Biso   1.000  N
  N121     1.0000 0.10587  0.38313  0.01373  Biso   1.000  N
  N122     1.0000 0.61687  0.72273  0.01373  Biso   1.000  N
  N123     1.0000 0.27727  0.89413  0.01373  Biso   1.000  N
  N124     1.0000 0.77253  0.71647  0.34707  Biso   1.000  N
  N125     1.0000 0.28353  0.05607  0.34707  Biso   1.000  N
  N126     1.0000 0.94393  0.22747  0.34707  Biso   1.000  N
  N127     1.0000 0.46610  0.11190  0.63070  Biso   1.000  N
  N128     1.0000 0.88810  0.35420  0.63070  Biso   1.000  N
  N129     1.0000 0.64580  0.53390  0.63070  Biso   1.000  N
  N130     1.0000 0.13277  0.44523  0.96403  Biso   1.000  N
  N131     1.0000 0.55477  0.68753  0.96403  Biso   1.000  N
  N132     1.0000 0.31247  0.86723  0.96403  Biso   1.000  N
  N133     1.0000 0.79943  0.77857  0.29737  Biso   1.000  N
  N134     1.0000 0.22143  0.02087  0.29737  Biso   1.000  N
  N135     1.0000 0.97913  0.20057  0.29737  Biso   1.000  N
  N136     1.0000 0.84790  0.21360  0.68870  Biso   1.000  N
  N137     1.0000 0.78640  0.63430  0.68870  Biso   1.000  N
  N138     1.0000 0.36570  0.15210  0.68870  Biso   1.000  N
  N139     1.0000 0.51457  0.54693  0.02203  Biso   1.000  N
  N140     1.0000 0.45307  0.96763  0.02203  Biso   1.000  N
  N141     1.0000 0.03237  0.48543  0.02203  Biso   1.000  N
  N142     1.0000 0.18123  0.88027  0.35537  Biso   1.000  N
  N143     1.0000 0.11973  0.30097  0.35537  Biso   1.000  N
  N144     1.0000 0.69903  0.81877  0.35537  Biso   1.000  N
  N145     1.0000 0.57690  0.07810  0.93400  Biso   1.000  N
  N146     1.0000 0.92190  0.49880  0.93400  Biso   1.000  N
  N147     1.0000 0.50120  0.42310  0.93400  Biso   1.000  N
  N148     1.0000 0.24357  0.41143  0.26733  Biso   1.000  N
  N149     1.0000 0.58857  0.83213  0.26733  Biso   1.000  N
  N150     1.0000 0.16787  0.75643  0.26733  Biso   1.000  N
  N151     1.0000 0.91023  0.74477  0.60067  Biso   1.000  N
  N152     1.0000 0.25523  0.16547  0.60067  Biso   1.000  N
  N153     1.0000 0.83453  0.08977  0.60067  Biso   1.000  N
  N154     1.0000 0.53990  0.08180  0.98380  Biso   1.000  N
  N155     1.0000 0.91820  0.45810  0.98380  Biso   1.000  N
  N156     1.0000 0.54190  0.46010  0.98380  Biso   1.000  N
  N157     1.0000 0.20657  0.41513  0.31713  Biso   1.000  N
  N158     1.0000 0.58487  0.79143  0.31713  Biso   1.000  N
  N159     1.0000 0.20857  0.79343  0.31713  Biso   1.000  N
  N160     1.0000 0.87323  0.74847  0.65047  Biso   1.000  N
  N161     1.0000 0.25153  0.12477  0.65047  Biso   1.000  N
  N162     1.0000 0.87523  0.12677  0.65047  Biso   1.000  N
  H1       1.0000 0.51900  0.07690  0.99820  Biso   1.000  H
  H2       1.0000 0.92310  0.44210  0.99820  Biso   1.000  H
  H3       1.0000 0.55790  0.48100  0.99820  Biso   1.000  H
  H4       1.0000 0.18567  0.41023  0.33153  Biso   1.000  H
  H5       1.0000 0.58977  0.77543  0.33153  Biso   1.000  H
  H6       1.0000 0.22457  0.81433  0.33153  Biso   1.000  H
  H7       1.0000 0.85233  0.74357  0.66487  Biso   1.000  H
  H8       1.0000 0.25643  0.10877  0.66487  Biso   1.000  H
  H9       1.0000 0.89123  0.14767  0.66487  Biso   1.000  H
  N163     1.0000 0.52040  0.09080  0.59760  Biso   1.000  N
  N164     1.0000 0.90920  0.42960  0.59760  Biso   1.000  N
  N165     1.0000 0.57040  0.47960  0.59760  Biso   1.000  N
  N166     1.0000 0.18707  0.42413  0.93093  Biso   1.000  N
  N167     1.0000 0.57587  0.76293  0.93093  Biso   1.000  N
  N168     1.0000 0.23707  0.81293  0.93093  Biso   1.000  N
  N169     1.0000 0.85373  0.75747  0.26427  Biso   1.000  N
  N170     1.0000 0.24253  0.09627  0.26427  Biso   1.000  N
  N171     1.0000 0.90373  0.14627  0.26427  Biso   1.000  N
  N172     1.0000 0.55200  0.09250  0.54410  Biso   1.000  N
  N173     1.0000 0.90750  0.45950  0.54410  Biso   1.000  N
  N174     1.0000 0.54050  0.44800  0.54410  Biso   1.000  N
  N175     1.0000 0.21867  0.42583  0.87743  Biso   1.000  N
  N176     1.0000 0.57417  0.79283  0.87743  Biso   1.000  N
  N177     1.0000 0.20717  0.78133  0.87743  Biso   1.000  N
  N178     1.0000 0.88533  0.75917  0.21077  Biso   1.000  N
  N179     1.0000 0.24083  0.12617  0.21077  Biso   1.000  N
  N180     1.0000 0.87383  0.11467  0.21077  Biso   1.000  N
  H10      1.0000 0.56230  0.08460  0.52570  Biso   1.000  H
  H11      1.0000 0.91540  0.47770  0.52570  Biso   1.000  H
  H12      1.0000 0.52230  0.43770  0.52570  Biso   1.000  H
  H13      1.0000 0.22897  0.41793  0.85903  Biso   1.000  H
  H14      1.0000 0.58207  0.81103  0.85903  Biso   1.000  H
  H15      1.0000 0.18897  0.77103  0.85903  Biso   1.000  H
  H16      1.0000 0.89563  0.75127  0.19237  Biso   1.000  H
  H17      1.0000 0.24873  0.14437  0.19237  Biso   1.000  H
  H18      1.0000 0.85563  0.10437  0.19237  Biso   1.000  H
  N181     1.0000 0.42610  0.18820  0.92630  Biso   1.000  N
  N182     1.0000 0.81180  0.23790  0.92630  Biso   1.000  N
  N183     1.0000 0.76210  0.57390  0.92630  Biso   1.000  N
  N184     1.0000 0.09277  0.52153  0.25963  Biso   1.000  N
  N185     1.0000 0.47847  0.57123  0.25963  Biso   1.000  N
  N186     1.0000 0.42877  0.90723  0.25963  Biso   1.000  N
  N187     1.0000 0.75943  0.85487  0.59297  Biso   1.000  N
  N188     1.0000 0.14513  0.90457  0.59297  Biso   1.000  N
  N189     1.0000 0.09543  0.24057  0.59297  Biso   1.000  N
  N190     1.0000 0.75740  0.16830  0.58940  Biso   1.000  N
  N191     1.0000 0.83170  0.58910  0.58940  Biso   1.000  N
  N192     1.0000 0.41090  0.24260  0.58940  Biso   1.000  N
  N193     1.0000 0.42407  0.50163  0.92273  Biso   1.000  N
  N194     1.0000 0.49837  0.92243  0.92273  Biso   1.000  N
  N195     1.0000 0.07757  0.57593  0.92273  Biso   1.000  N
  N196     1.0000 0.09073  0.83497  0.25607  Biso   1.000  N
  N197     1.0000 0.16503  0.25577  0.25607  Biso   1.000  N
  N198     1.0000 0.74423  0.90927  0.25607  Biso   1.000  N
  N199     1.0000 0.79190  0.20840  0.54030  Biso   1.000  N
  N200     1.0000 0.79160  0.58350  0.54030  Biso   1.000  N
  N201     1.0000 0.41650  0.20810  0.54030  Biso   1.000  N
  N202     1.0000 0.45857  0.54173  0.87363  Biso   1.000  N
  N203     1.0000 0.45827  0.91683  0.87363  Biso   1.000  N
  N204     1.0000 0.08317  0.54143  0.87363  Biso   1.000  N
  N205     1.0000 0.12523  0.87507  0.20697  Biso   1.000  N
  N206     1.0000 0.12493  0.25017  0.20697  Biso   1.000  N
  N207     1.0000 0.74983  0.87477  0.20697  Biso   1.000  N
  H19      1.0000 0.81200  0.22390  0.52480  Biso   1.000  H
  H20      1.0000 0.77610  0.58810  0.52480  Biso   1.000  H
  H21      1.0000 0.41190  0.18800  0.52480  Biso   1.000  H
  H22      1.0000 0.47867  0.55723  0.85813  Biso   1.000  H
  H23      1.0000 0.44277  0.92143  0.85813  Biso   1.000  H
  H24      1.0000 0.07857  0.52133  0.85813  Biso   1.000  H
  H25      1.0000 0.14533  0.89057  0.19147  Biso   1.000  H
  H26      1.0000 0.10943  0.25477  0.19147  Biso   1.000  H
  H27      1.0000 0.74523  0.85467  0.19147  Biso   1.000  H
  N208     1.0000 0.42470  0.21490  0.98250  Biso   1.000  N
  N209     1.0000 0.78510  0.20980  0.98250  Biso   1.000  N
  N210     1.0000 0.79020  0.57530  0.98250  Biso   1.000  N
  N211     1.0000 0.09137  0.54823  0.31583  Biso   1.000  N
  N212     1.0000 0.45177  0.54313  0.31583  Biso   1.000  N
  N213     1.0000 0.45687  0.90863  0.31583  Biso   1.000  N
  N214     1.0000 0.75803  0.88157  0.64917  Biso   1.000  N
  N215     1.0000 0.11843  0.87647  0.64917  Biso   1.000  N
  N216     1.0000 0.12353  0.24197  0.64917  Biso   1.000  N
  H28      1.0000 0.41620  0.22400  0.00160  Biso   1.000  H
  H29      1.0000 0.77600  0.19220  0.00160  Biso   1.000  H
  H30      1.0000 0.80780  0.58380  0.00160  Biso   1.000  H
  H31      1.0000 0.08287  0.55733  0.33493  Biso   1.000  H
  H32      1.0000 0.44267  0.52553  0.33493  Biso   1.000  H
  H33      1.0000 0.47447  0.91713  0.33493  Biso   1.000  H
  H34      1.0000 0.74953  0.89067  0.66827  Biso   1.000  H
  H35      1.0000 0.10933  0.85887  0.66827  Biso   1.000  H
  H36      1.0000 0.14113  0.25047  0.66827  Biso   1.000  H
  O46      1.0000 0.71060  0.10100  0.87850  Biso   1.000  O
  O47      1.0000 0.89900  0.60960  0.87850  Biso   1.000  O
  O48      1.0000 0.39040  0.28940  0.87850  Biso   1.000  O
  O49      1.0000 0.37727  0.43433  0.21183  Biso   1.000  O
  O50      1.0000 0.56567  0.94293  0.21183  Biso   1.000  O
  O51      1.0000 0.05707  0.62273  0.21183  Biso   1.000  O
  O52      1.0000 0.04393  0.76767  0.54517  Biso   1.000  O
  O53      1.0000 0.23233  0.27627  0.54517  Biso   1.000  O
  O54      1.0000 0.72373  0.95607  0.54517  Biso   1.000  O
  O55      1.0000 0.67380  0.05160  0.82000  Biso   1.000  O
  O56      1.0000 0.94840  0.62220  0.82000  Biso   1.000  O
  O57      1.0000 0.37780  0.32620  0.82000  Biso   1.000  O
  O58      1.0000 0.34047  0.38493  0.15333  Biso   1.000  O
  O59      1.0000 0.61507  0.95553  0.15333  Biso   1.000  O
  O60      1.0000 0.04447  0.65953  0.15333  Biso   1.000  O
  O61      1.0000 0.00713  0.71827  0.48667  Biso   1.000  O
  O62      1.0000 0.28173  0.28887  0.48667  Biso   1.000  O
  O63      1.0000 0.71113  0.99287  0.48667  Biso   1.000  O
  O64      1.0000 0.74450  0.07870  0.77700  Biso   1.000  O
  O65      1.0000 0.92130  0.66580  0.77700  Biso   1.000  O
  O66      1.0000 0.33420  0.25550  0.77700  Biso   1.000  O
  O67      1.0000 0.41117  0.41203  0.11033  Biso   1.000  O
  O68      1.0000 0.58797  0.99913  0.11033  Biso   1.000  O
  O69      1.0000 0.00087  0.58883  0.11033  Biso   1.000  O
  O70      1.0000 0.07783  0.74537  0.44367  Biso   1.000  O
  O71      1.0000 0.25463  0.33247  0.44367  Biso   1.000  O
  O72      1.0000 0.66753  0.92217  0.44367  Biso   1.000  O
  O73      1.0000 0.73050  0.12540  0.75320  Biso   1.000  O
  O74      1.0000 0.87460  0.60510  0.75320  Biso   1.000  O
  O75      1.0000 0.39490  0.26950  0.75320  Biso   1.000  O
  O76      1.0000 0.39717  0.45873  0.08653  Biso   1.000  O
  O77      1.0000 0.54127  0.93843  0.08653  Biso   1.000  O
  O78      1.0000 0.06157  0.60283  0.08653  Biso   1.000  O
  O79      1.0000 0.06383  0.79207  0.41987  Biso   1.000  O
  O80      1.0000 0.20793  0.27177  0.41987  Biso   1.000  O
  O81      1.0000 0.72823  0.93617  0.41987  Biso   1.000  O
  O82      1.0000 0.60360  0.06190  0.77120  Biso   1.000  O
  O83      1.0000 0.93810  0.54170  0.77120  Biso   1.000  O
  O84      1.0000 0.45830  0.39640  0.77120  Biso   1.000  O
  O85      1.0000 0.27027  0.39523  0.10453  Biso   1.000  O
  O86      1.0000 0.60477  0.87503  0.10453  Biso   1.000  O
  O87      1.0000 0.12497  0.72973  0.10453  Biso   1.000  O
  O88      1.0000 0.93693  0.72857  0.43787  Biso   1.000  O
  O89      1.0000 0.27143  0.20837  0.43787  Biso   1.000  O
  O90      1.0000 0.79163  0.06307  0.43787  Biso   1.000  O
  O91      1.0000 0.58950  0.00190  0.74740  Biso   1.000  O
  O92      1.0000 0.99810  0.58760  0.74740  Biso   1.000  O
  O93      1.0000 0.41240  0.41050  0.74740  Biso   1.000  O
  O94      1.0000 0.25617  0.33523  0.08073  Biso   1.000  O
  O95      1.0000 0.66477  0.92093  0.08073  Biso   1.000  O
  O96      1.0000 0.07907  0.74383  0.08073  Biso   1.000  O
  O97      1.0000 0.92283  0.66857  0.41407  Biso   1.000  O
  O98      1.0000 0.33143  0.25427  0.41407  Biso   1.000  O
  O99      1.0000 0.74573  0.07717  0.41407  Biso   1.000  O
  O100     1.0000 0.42220  0.01190  0.77800  Biso   1.000  O
  O101     1.0000 0.98810  0.41030  0.77800  Biso   1.000  O
  O102     1.0000 0.58970  0.57780  0.77800  Biso   1.000  O
  O103     1.0000 0.08887  0.34523  0.11133  Biso   1.000  O
  O104     1.0000 0.65477  0.74363  0.11133  Biso   1.000  O
  O105     1.0000 0.25637  0.91113  0.11133  Biso   1.000  O
  O106     1.0000 0.75553  0.67857  0.44467  Biso   1.000  O
  O107     1.0000 0.32143  0.07697  0.44467  Biso   1.000  O
  O108     1.0000 0.92303  0.24447  0.44467  Biso   1.000  O
  O109     1.0000 0.47310  0.07160  0.75450  Biso   1.000  O
  O110     1.0000 0.92840  0.40150  0.75450  Biso   1.000  O
  O111     1.0000 0.59850  0.52690  0.75450  Biso   1.000  O
  O112     1.0000 0.13977  0.40493  0.08783  Biso   1.000  O
  O113     1.0000 0.59507  0.73483  0.08783  Biso   1.000  O
  O114     1.0000 0.26517  0.86023  0.08783  Biso   1.000  O
  O115     1.0000 0.80643  0.73827  0.42117  Biso   1.000  O
  O116     1.0000 0.26173  0.06817  0.42117  Biso   1.000  O
  O117     1.0000 0.93183  0.19357  0.42117  Biso   1.000  O
  O118     1.0000 0.46110  0.08430  0.87010  Biso   1.000  O
  O119     1.0000 0.91570  0.37680  0.87010  Biso   1.000  O
  O120     1.0000 0.62320  0.53890  0.87010  Biso   1.000  O
  O121     1.0000 0.12777  0.41763  0.20343  Biso   1.000  O
  O122     1.0000 0.58237  0.71013  0.20343  Biso   1.000  O
  O123     1.0000 0.28987  0.87223  0.20343  Biso   1.000  O
  O124     1.0000 0.79443  0.75097  0.53677  Biso   1.000  O
  O125     1.0000 0.24903  0.04347  0.53677  Biso   1.000  O
  O126     1.0000 0.95653  0.20557  0.53677  Biso   1.000  O
  O127     1.0000 0.40260  0.06230  0.81730  Biso   1.000  O
  O128     1.0000 0.93770  0.34030  0.81730  Biso   1.000  O
  O129     1.0000 0.65970  0.59740  0.81730  Biso   1.000  O
  O130     1.0000 0.06927  0.39563  0.15063  Biso   1.000  O
  O131     1.0000 0.60437  0.67363  0.15063  Biso   1.000  O
  O132     1.0000 0.32637  0.93073  0.15063  Biso   1.000  O
  O133     1.0000 0.73593  0.72897  0.48397  Biso   1.000  O
  O134     1.0000 0.27103  0.00697  0.48397  Biso   1.000  O
  O135     1.0000 0.99303  0.26407  0.48397  Biso   1.000  O
  O136     1.0000 0.40500  0.14010  0.77040  Biso   1.000  O
  O137     1.0000 0.85990  0.26490  0.77040  Biso   1.000  O
  O138     1.0000 0.73510  0.59500  0.77040  Biso   1.000  O
  O139     1.0000 0.07167  0.47343  0.10373  Biso   1.000  O
  O140     1.0000 0.52657  0.59823  0.10373  Biso   1.000  O
  O141     1.0000 0.40177  0.92833  0.10373  Biso   1.000  O
  O142     1.0000 0.73833  0.80677  0.43707  Biso   1.000  O
  O143     1.0000 0.19323  0.93157  0.43707  Biso   1.000  O
  O144     1.0000 0.06843  0.26167  0.43707  Biso   1.000  O
  O145     1.0000 0.34500  0.08890  0.74640  Biso   1.000  O
  O146     1.0000 0.91110  0.25610  0.74640  Biso   1.000  O
  O147     1.0000 0.74390  0.65500  0.74640  Biso   1.000  O
  O148     1.0000 0.01167  0.42223  0.07973  Biso   1.000  O
  O149     1.0000 0.57777  0.58943  0.07973  Biso   1.000  O
  O150     1.0000 0.41057  0.98833  0.07973  Biso   1.000  O
  O151     1.0000 0.67833  0.75557  0.41307  Biso   1.000  O
  O152     1.0000 0.24443  0.92277  0.41307  Biso   1.000  O
  O153     1.0000 0.07723  0.32167  0.41307  Biso   1.000  O
  O154     1.0000 0.65970  0.04470  0.70520  Biso   1.000  O
  O155     1.0000 0.95530  0.61500  0.70520  Biso   1.000  O
  O156     1.0000 0.38500  0.34030  0.70520  Biso   1.000  O
  O157     1.0000 0.32637  0.37803  0.03853  Biso   1.000  O
  O158     1.0000 0.62197  0.94833  0.03853  Biso   1.000  O
  O159     1.0000 0.05167  0.67363  0.03853  Biso   1.000  O
  O160     1.0000 0.99303  0.71137  0.37187  Biso   1.000  O
  O161     1.0000 0.28863  0.28167  0.37187  Biso   1.000  O
  O162     1.0000 0.71833  0.00697  0.37187  Biso   1.000  O
  O163     1.0000 0.62300  0.05680  0.64600  Biso   1.000  O
  O164     1.0000 0.94320  0.56620  0.64600  Biso   1.000  O
  O165     1.0000 0.43380  0.37700  0.64600  Biso   1.000  O
  O166     1.0000 0.28967  0.39013  0.97933  Biso   1.000  O
  O167     1.0000 0.60987  0.89953  0.97933  Biso   1.000  O
  O168     1.0000 0.10047  0.71033  0.97933  Biso   1.000  O
  O169     1.0000 0.95633  0.72347  0.31267  Biso   1.000  O
  O170     1.0000 0.27653  0.23287  0.31267  Biso   1.000  O
  O171     1.0000 0.76713  0.04367  0.31267  Biso   1.000  O
  O172     1.0000 0.39560  0.06970  0.70740  Biso   1.000  O
  O173     1.0000 0.93030  0.32590  0.70740  Biso   1.000  O
  O174     1.0000 0.67410  0.60440  0.70740  Biso   1.000  O
  O175     1.0000 0.06227  0.40303  0.04073  Biso   1.000  O
  O176     1.0000 0.59697  0.65923  0.04073  Biso   1.000  O
  O177     1.0000 0.34077  0.93773  0.04073  Biso   1.000  O
  O178     1.0000 0.72893  0.73637  0.37407  Biso   1.000  O
  O179     1.0000 0.26363  0.99257  0.37407  Biso   1.000  O
  O180     1.0000 0.00743  0.27107  0.37407  Biso   1.000  O
  O181     1.0000 0.41710  0.12720  0.65400  Biso   1.000  O
  O182     1.0000 0.87280  0.28990  0.65400  Biso   1.000  O
  O183     1.0000 0.71010  0.58290  0.65400  Biso   1.000  O
  O184     1.0000 0.08377  0.46053  0.98733  Biso   1.000  O
  O185     1.0000 0.53947  0.62323  0.98733  Biso   1.000  O
  O186     1.0000 0.37677  0.91623  0.98733  Biso   1.000  O
  O187     1.0000 0.75043  0.79387  0.32067  Biso   1.000  O
  O188     1.0000 0.20613  0.95657  0.32067  Biso   1.000  O
  O189     1.0000 0.04343  0.24957  0.32067  Biso   1.000  O
  O190     1.0000 0.43170  0.09440  0.55860  Biso   1.000  O
  O191     1.0000 0.90560  0.33730  0.55860  Biso   1.000  O
  O192     1.0000 0.66270  0.56830  0.55860  Biso   1.000  O
  O193     1.0000 0.09837  0.42773  0.89193  Biso   1.000  O
  O194     1.0000 0.57227  0.67063  0.89193  Biso   1.000  O
  O195     1.0000 0.32937  0.90163  0.89193  Biso   1.000  O
  O196     1.0000 0.76503  0.76107  0.22527  Biso   1.000  O
  O197     1.0000 0.23893  0.00397  0.22527  Biso   1.000  O
  O198     1.0000 0.99603  0.23497  0.22527  Biso   1.000  O
  O199     1.0000 0.47200  0.15570  0.53570  Biso   1.000  O
  O200     1.0000 0.84430  0.31630  0.53570  Biso   1.000  O
  O201     1.0000 0.68370  0.52800  0.53570  Biso   1.000  O
  O202     1.0000 0.13867  0.48903  0.86903  Biso   1.000  O
  O203     1.0000 0.51097  0.64963  0.86903  Biso   1.000  O
  O204     1.0000 0.35037  0.86133  0.86903  Biso   1.000  O
  O205     1.0000 0.80533  0.82237  0.20237  Biso   1.000  O
  O206     1.0000 0.17763  0.98297  0.20237  Biso   1.000  O
  O207     1.0000 0.01703  0.19467  0.20237  Biso   1.000  O
  O208     1.0000 0.65210  0.05030  0.97220  Biso   1.000  O
  O209     1.0000 0.94970  0.60180  0.97220  Biso   1.000  O
  O210     1.0000 0.39820  0.34790  0.97220  Biso   1.000  O
  O211     1.0000 0.31877  0.38363  0.30553  Biso   1.000  O
  O212     1.0000 0.61637  0.93513  0.30553  Biso   1.000  O
  O213     1.0000 0.06487  0.68123  0.30553  Biso   1.000  O
  O214     1.0000 0.98543  0.71697  0.63887  Biso   1.000  O
  O215     1.0000 0.28303  0.26847  0.63887  Biso   1.000  O
  O216     1.0000 0.73153  0.01457  0.63887  Biso   1.000  O
  O217     1.0000 0.67960  0.10980  0.00500  Biso   1.000  O
  O218     1.0000 0.89020  0.56980  0.00500  Biso   1.000  O
  O219     1.0000 0.43020  0.32040  0.00500  Biso   1.000  O
  O220     1.0000 0.34627  0.44313  0.33833  Biso   1.000  O
  O221     1.0000 0.55687  0.90313  0.33833  Biso   1.000  O
  O222     1.0000 0.09687  0.65373  0.33833  Biso   1.000  O
  O223     1.0000 0.01293  0.77647  0.67167  Biso   1.000  O
  O224     1.0000 0.22353  0.23647  0.67167  Biso   1.000  O
  O225     1.0000 0.76353  0.98707  0.67167  Biso   1.000  O
  O226     1.0000 0.68120  0.06600  0.55240  Biso   1.000  O
  O227     1.0000 0.93400  0.61520  0.55240  Biso   1.000  O
  O228     1.0000 0.38480  0.31880  0.55240  Biso   1.000  O
  O229     1.0000 0.34787  0.39933  0.88573  Biso   1.000  O
  O230     1.0000 0.60067  0.94853  0.88573  Biso   1.000  O
  O231     1.0000 0.05147  0.65213  0.88573  Biso   1.000  O
  O232     1.0000 0.01453  0.73267  0.21907  Biso   1.000  O
  O233     1.0000 0.26733  0.28187  0.21907  Biso   1.000  O
  O234     1.0000 0.71813  0.98547  0.21907  Biso   1.000  O
  O235     1.0000 0.65460  0.09860  0.51880  Biso   1.000  O
  O236     1.0000 0.90140  0.55600  0.51880  Biso   1.000  O
  O237     1.0000 0.44400  0.34540  0.51880  Biso   1.000  O
  O238     1.0000 0.32127  0.43193  0.85213  Biso   1.000  O
  O239     1.0000 0.56807  0.88933  0.85213  Biso   1.000  O
  O240     1.0000 0.11067  0.67873  0.85213  Biso   1.000  O
  O241     1.0000 0.98793  0.76527  0.18547  Biso   1.000  O
  O242     1.0000 0.23473  0.22267  0.18547  Biso   1.000  O
  O243     1.0000 0.77733  0.01207  0.18547  Biso   1.000  O
  O244     1.0000 0.49030  0.13910  0.98870  Biso   1.000  O
  O245     1.0000 0.86090  0.35120  0.98870  Biso   1.000  O
  O246     1.0000 0.64880  0.50970  0.98870  Biso   1.000  O
  O247     1.0000 0.15697  0.47243  0.32203  Biso   1.000  O
  O248     1.0000 0.52757  0.68453  0.32203  Biso   1.000  O
  O249     1.0000 0.31547  0.84303  0.32203  Biso   1.000  O
  O250     1.0000 0.82363  0.80577  0.65537  Biso   1.000  O
  O251     1.0000 0.19423  0.01787  0.65537  Biso   1.000  O
  O252     1.0000 0.98213  0.17637  0.65537  Biso   1.000  O
  O253     1.0000 0.42630  0.09910  0.96600  Biso   1.000  O
  O254     1.0000 0.90090  0.32720  0.96600  Biso   1.000  O
  O255     1.0000 0.67280  0.57370  0.96600  Biso   1.000  O
  O256     1.0000 0.09297  0.43243  0.29933  Biso   1.000  O
  O257     1.0000 0.56757  0.66053  0.29933  Biso   1.000  O
  O258     1.0000 0.33947  0.90703  0.29933  Biso   1.000  O
  O259     1.0000 0.75963  0.76577  0.63267  Biso   1.000  O
  O260     1.0000 0.23423  0.99387  0.63267  Biso   1.000  O
  O261     1.0000 0.00613  0.24037  0.63267  Biso   1.000  O
  C1       1.0000 0.67280  0.08440  0.87870  Biso   1.000  C
  C2       1.0000 0.91560  0.58840  0.87870  Biso   1.000  C
  C3       1.0000 0.41160  0.32720  0.87870  Biso   1.000  C
  C4       1.0000 0.33947  0.41773  0.21203  Biso   1.000  C
  C5       1.0000 0.58227  0.92173  0.21203  Biso   1.000  C
  C6       1.0000 0.07827  0.66053  0.21203  Biso   1.000  C
  C7       1.0000 0.00613  0.75107  0.54537  Biso   1.000  C
  C8       1.0000 0.24893  0.25507  0.54537  Biso   1.000  C
  C9       1.0000 0.74493  0.99387  0.54537  Biso   1.000  C
  C10      1.0000 0.64920  0.05480  0.84620  Biso   1.000  C
  C11      1.0000 0.94520  0.59440  0.84620  Biso   1.000  C
  C12      1.0000 0.40560  0.35080  0.84620  Biso   1.000  C
  C13      1.0000 0.31587  0.38813  0.17953  Biso   1.000  C
  C14      1.0000 0.61187  0.92773  0.17953  Biso   1.000  C
  C15      1.0000 0.07227  0.68413  0.17953  Biso   1.000  C
  C16      1.0000 0.98253  0.72147  0.51287  Biso   1.000  C
  C17      1.0000 0.27853  0.26107  0.51287  Biso   1.000  C
  C18      1.0000 0.73893  0.01747  0.51287  Biso   1.000  C
  C19      1.0000 0.66780  0.11320  0.93760  Biso   1.000  C
  C20      1.0000 0.88680  0.55460  0.93760  Biso   1.000  C
  C21      1.0000 0.44540  0.33220  0.93760  Biso   1.000  C
  C22      1.0000 0.33447  0.44653  0.27093  Biso   1.000  C
  C23      1.0000 0.55347  0.88793  0.27093  Biso   1.000  C
  C24      1.0000 0.11207  0.66553  0.27093  Biso   1.000  C
  C25      1.0000 0.00113  0.77987  0.60427  Biso   1.000  C
  C26      1.0000 0.22013  0.22127  0.60427  Biso   1.000  C
  C27      1.0000 0.77873  0.99887  0.60427  Biso   1.000  C
  H37      1.0000 0.69690  0.13310  0.93280  Biso   1.000  H
  H38      1.0000 0.86690  0.56380  0.93280  Biso   1.000  H
  H39      1.0000 0.43620  0.30310  0.93280  Biso   1.000  H
  H40      1.0000 0.36357  0.46643  0.26613  Biso   1.000  H
  H41      1.0000 0.53357  0.89713  0.26613  Biso   1.000  H
  H42      1.0000 0.10287  0.63643  0.26613  Biso   1.000  H
  H43      1.0000 0.03023  0.79977  0.59947  Biso   1.000  H
  H44      1.0000 0.20023  0.23047  0.59947  Biso   1.000  H
  H45      1.0000 0.76953  0.96977  0.59947  Biso   1.000  H
  C28      1.0000 0.66420  0.08740  0.97440  Biso   1.000  C
  C29      1.0000 0.91260  0.57680  0.97440  Biso   1.000  C
  C30      1.0000 0.42320  0.33580  0.97440  Biso   1.000  C
  C31      1.0000 0.33087  0.42073  0.30773  Biso   1.000  C
  C32      1.0000 0.57927  0.91013  0.30773  Biso   1.000  C
  C33      1.0000 0.08987  0.66913  0.30773  Biso   1.000  C
  C34      1.0000 0.99753  0.75407  0.64107  Biso   1.000  C
  C35      1.0000 0.24593  0.24347  0.64107  Biso   1.000  C
  C36      1.0000 0.75653  0.00247  0.64107  Biso   1.000  C
  C37      1.0000 0.64420  0.13600  0.94330  Biso   1.000  C
  C38      1.0000 0.86400  0.50820  0.94330  Biso   1.000  C
  C39      1.0000 0.49180  0.35580  0.94330  Biso   1.000  C
  C40      1.0000 0.31087  0.46933  0.27663  Biso   1.000  C
  C41      1.0000 0.53067  0.84153  0.27663  Biso   1.000  C
  C42      1.0000 0.15847  0.68913  0.27663  Biso   1.000  C
  C43      1.0000 0.97753  0.80267  0.60997  Biso   1.000  C
  C44      1.0000 0.19733  0.17487  0.60997  Biso   1.000  C
  C45      1.0000 0.82513  0.02247  0.60997  Biso   1.000  C
  H46      1.0000 0.65840  0.15750  0.96280  Biso   1.000  H
  H47      1.0000 0.84250  0.50090  0.96280  Biso   1.000  H
  H48      1.0000 0.49910  0.34160  0.96280  Biso   1.000  H
  H49      1.0000 0.32507  0.49083  0.29613  Biso   1.000  H
  H50      1.0000 0.50917  0.83423  0.29613  Biso   1.000  H
  H51      1.0000 0.16577  0.67493  0.29613  Biso   1.000  H
  H52      1.0000 0.99173  0.82417  0.62947  Biso   1.000  H
  H53      1.0000 0.17583  0.16757  0.62947  Biso   1.000  H
  H54      1.0000 0.83243  0.00827  0.62947  Biso   1.000  H
  H55      1.0000 0.64450  0.14930  0.91860  Biso   1.000  H
  H56      1.0000 0.85070  0.49520  0.91860  Biso   1.000  H
  H57      1.0000 0.50480  0.35550  0.91860  Biso   1.000  H
  H58      1.0000 0.31117  0.48263  0.25193  Biso   1.000  H
  H59      1.0000 0.51737  0.82853  0.25193  Biso   1.000  H
  H60      1.0000 0.17147  0.68883  0.25193  Biso   1.000  H
  H61      1.0000 0.97783  0.81597  0.58527  Biso   1.000  H
  H62      1.0000 0.18403  0.16187  0.58527  Biso   1.000  H
  H63      1.0000 0.83813  0.02217  0.58527  Biso   1.000  H
  C46      1.0000 0.59000  0.00780  0.81600  Biso   1.000  C
  C47      1.0000 0.99220  0.58220  0.81600  Biso   1.000  C
  C48      1.0000 0.41780  0.41000  0.81600  Biso   1.000  C
  C49      1.0000 0.25667  0.34113  0.14933  Biso   1.000  C
  C50      1.0000 0.65887  0.91553  0.14933  Biso   1.000  C
  C51      1.0000 0.08447  0.74333  0.14933  Biso   1.000  C
  C52      1.0000 0.92333  0.67447  0.48267  Biso   1.000  C
  C53      1.0000 0.32553  0.24887  0.48267  Biso   1.000  C
  C54      1.0000 0.75113  0.07667  0.48267  Biso   1.000  C
  H64      1.0000 0.60140  0.98940  0.81550  Biso   1.000  H
  H65      1.0000 0.01060  0.61200  0.81550  Biso   1.000  H
  H66      1.0000 0.38800  0.39860  0.81550  Biso   1.000  H
  H67      1.0000 0.26807  0.32273  0.14883  Biso   1.000  H
  H68      1.0000 0.67727  0.94533  0.14883  Biso   1.000  H
  H69      1.0000 0.05467  0.73193  0.14883  Biso   1.000  H
  H70      1.0000 0.93473  0.65607  0.48217  Biso   1.000  H
  H71      1.0000 0.34393  0.27867  0.48217  Biso   1.000  H
  H72      1.0000 0.72133  0.06527  0.48217  Biso   1.000  H
  C55      1.0000 0.59440  0.02400  0.77530  Biso   1.000  C
  C56      1.0000 0.97600  0.57040  0.77530  Biso   1.000  C
  C57      1.0000 0.42960  0.40560  0.77530  Biso   1.000  C
  C58      1.0000 0.26107  0.35733  0.10863  Biso   1.000  C
  C59      1.0000 0.64267  0.90373  0.10863  Biso   1.000  C
  C60      1.0000 0.09627  0.73893  0.10863  Biso   1.000  C
  C61      1.0000 0.92773  0.69067  0.44197  Biso   1.000  C
  C62      1.0000 0.30933  0.23707  0.44197  Biso   1.000  C
  C63      1.0000 0.76293  0.07227  0.44197  Biso   1.000  C
  C64      1.0000 0.54380  0.98030  0.82570  Biso   1.000  C
  C65      1.0000 0.01970  0.56350  0.82570  Biso   1.000  C
  C66      1.0000 0.43650  0.45620  0.82570  Biso   1.000  C
  C67      1.0000 0.21047  0.31363  0.15903  Biso   1.000  C
  C68      1.0000 0.68637  0.89683  0.15903  Biso   1.000  C
  C69      1.0000 0.10317  0.78953  0.15903  Biso   1.000  C
  C70      1.0000 0.87713  0.64697  0.49237  Biso   1.000  C
  C71      1.0000 0.35303  0.23017  0.49237  Biso   1.000  C
  C72      1.0000 0.76983  0.12287  0.49237  Biso   1.000  C
  H73      1.0000 0.53000  0.96210  0.80360  Biso   1.000  H
  H74      1.0000 0.03790  0.56790  0.80360  Biso   1.000  H
  H75      1.0000 0.43210  0.47000  0.80360  Biso   1.000  H
  H76      1.0000 0.19667  0.29543  0.13693  Biso   1.000  H
  H77      1.0000 0.70457  0.90123  0.13693  Biso   1.000  H
  H78      1.0000 0.09877  0.80333  0.13693  Biso   1.000  H
  H79      1.0000 0.86333  0.62877  0.47027  Biso   1.000  H
  H80      1.0000 0.37123  0.23457  0.47027  Biso   1.000  H
  H81      1.0000 0.76543  0.13667  0.47027  Biso   1.000  H
  H82      1.0000 0.54080  0.96340  0.84850  Biso   1.000  H
  H83      1.0000 0.03660  0.57740  0.84850  Biso   1.000  H
  H84      1.0000 0.42260  0.45920  0.84850  Biso   1.000  H
  H85      1.0000 0.20747  0.29673  0.18183  Biso   1.000  H
  H86      1.0000 0.70327  0.91073  0.18183  Biso   1.000  H
  H87      1.0000 0.08927  0.79253  0.18183  Biso   1.000  H
  H88      1.0000 0.87413  0.63007  0.51517  Biso   1.000  H
  H89      1.0000 0.36993  0.24407  0.51517  Biso   1.000  H
  H90      1.0000 0.75593  0.12587  0.51517  Biso   1.000  H
  C73      1.0000 0.52490  0.00490  0.83360  Biso   1.000  C
  C74      1.0000 0.99510  0.52000  0.83360  Biso   1.000  C
  C75      1.0000 0.48000  0.47510  0.83360  Biso   1.000  C
  C76      1.0000 0.19157  0.33823  0.16693  Biso   1.000  C
  C77      1.0000 0.66177  0.85333  0.16693  Biso   1.000  C
  C78      1.0000 0.14667  0.80843  0.16693  Biso   1.000  C
  C79      1.0000 0.85823  0.67157  0.50027  Biso   1.000  C
  C80      1.0000 0.32843  0.18667  0.50027  Biso   1.000  C
  C81      1.0000 0.81333  0.14177  0.50027  Biso   1.000  C
  C82      1.0000 0.49270  0.00420  0.81630  Biso   1.000  C
  C83      1.0000 0.99580  0.48850  0.81630  Biso   1.000  C
  C84      1.0000 0.51150  0.50730  0.81630  Biso   1.000  C
  C85      1.0000 0.15937  0.33753  0.14963  Biso   1.000  C
  C86      1.0000 0.66247  0.82183  0.14963  Biso   1.000  C
  C87      1.0000 0.17817  0.84063  0.14963  Biso   1.000  C
  C88      1.0000 0.82603  0.67087  0.48297  Biso   1.000  C
  C89      1.0000 0.32913  0.15517  0.48297  Biso   1.000  C
  C90      1.0000 0.84483  0.17397  0.48297  Biso   1.000  C
  H91      1.0000 0.47760  0.98780  0.79510  Biso   1.000  H
  H92      1.0000 0.01220  0.48980  0.79510  Biso   1.000  H
  H93      1.0000 0.51020  0.52240  0.79510  Biso   1.000  H
  H94      1.0000 0.14427  0.32113  0.12843  Biso   1.000  H
  H95      1.0000 0.67887  0.82313  0.12843  Biso   1.000  H
  H96      1.0000 0.17687  0.85573  0.12843  Biso   1.000  H
  H97      1.0000 0.81093  0.65447  0.46177  Biso   1.000  H
  H98      1.0000 0.34553  0.15647  0.46177  Biso   1.000  H
  H99      1.0000 0.84353  0.18907  0.46177  Biso   1.000  H
  C91      1.0000 0.51320  0.04840  0.86200  Biso   1.000  C
  C92      1.0000 0.95160  0.46480  0.86200  Biso   1.000  C
  C93      1.0000 0.53520  0.48680  0.86200  Biso   1.000  C
  C94      1.0000 0.17987  0.38173  0.19533  Biso   1.000  C
  C95      1.0000 0.61827  0.79813  0.19533  Biso   1.000  C
  C96      1.0000 0.20187  0.82013  0.19533  Biso   1.000  C
  C97      1.0000 0.84653  0.71507  0.52867  Biso   1.000  C
  C98      1.0000 0.28493  0.13147  0.52867  Biso   1.000  C
  C99      1.0000 0.86853  0.15347  0.52867  Biso   1.000  C
  H100     1.0000 0.51520  0.06820  0.87970  Biso   1.000  H
  H101     1.0000 0.93180  0.44700  0.87970  Biso   1.000  H
  H102     1.0000 0.55300  0.48480  0.87970  Biso   1.000  H
  H103     1.0000 0.18187  0.40153  0.21303  Biso   1.000  H
  H104     1.0000 0.59847  0.78033  0.21303  Biso   1.000  H
  H105     1.0000 0.21967  0.81813  0.21303  Biso   1.000  H
  H106     1.0000 0.84853  0.73487  0.54637  Biso   1.000  H
  H107     1.0000 0.26513  0.11367  0.54637  Biso   1.000  H
  H108     1.0000 0.88633  0.15147  0.54637  Biso   1.000  H
  C100     1.0000 0.33280  0.17950  0.81980  Biso   1.000  C
  C101     1.0000 0.82050  0.15330  0.81980  Biso   1.000  C
  C102     1.0000 0.84670  0.66720  0.81980  Biso   1.000  C
  C103     1.0000 0.99947  0.51283  0.15313  Biso   1.000  C
  C104     1.0000 0.48717  0.48663  0.15313  Biso   1.000  C
  C105     1.0000 0.51337  0.00053  0.15313  Biso   1.000  C
  C106     1.0000 0.66613  0.84617  0.48647  Biso   1.000  C
  C107     1.0000 0.15383  0.81997  0.48647  Biso   1.000  C
  C108     1.0000 0.18003  0.33387  0.48647  Biso   1.000  C
  H109     1.0000 0.31290  0.17410  0.80080  Biso   1.000  H
  H110     1.0000 0.82590  0.13880  0.80080  Biso   1.000  H
  H111     1.0000 0.86120  0.68710  0.80080  Biso   1.000  H
  H112     1.0000 0.97957  0.50743  0.13413  Biso   1.000  H
  H113     1.0000 0.49257  0.47213  0.13413  Biso   1.000  H
  H114     1.0000 0.52787  0.02043  0.13413  Biso   1.000  H
  H115     1.0000 0.64623  0.84077  0.46747  Biso   1.000  H
  H116     1.0000 0.15923  0.80547  0.46747  Biso   1.000  H
  H117     1.0000 0.19453  0.35377  0.46747  Biso   1.000  H
  C109     1.0000 0.73780  0.09810  0.74860  Biso   1.000  C
  C110     1.0000 0.90190  0.63970  0.74860  Biso   1.000  C
  C111     1.0000 0.36030  0.26220  0.74860  Biso   1.000  C
  C112     1.0000 0.40447  0.43143  0.08193  Biso   1.000  C
  C113     1.0000 0.56857  0.97303  0.08193  Biso   1.000  C
  C114     1.0000 0.02697  0.59553  0.08193  Biso   1.000  C
  C115     1.0000 0.07113  0.76477  0.41527  Biso   1.000  C
  C116     1.0000 0.23523  0.30637  0.41527  Biso   1.000  C
  C117     1.0000 0.69363  0.92887  0.41527  Biso   1.000  C
  C118     1.0000 0.74270  0.08400  0.70670  Biso   1.000  C
  C119     1.0000 0.91600  0.65870  0.70670  Biso   1.000  C
  C120     1.0000 0.34130  0.25730  0.70670  Biso   1.000  C
  C121     1.0000 0.40937  0.41733  0.04003  Biso   1.000  C
  C122     1.0000 0.58267  0.99203  0.04003  Biso   1.000  C
  C123     1.0000 0.00797  0.59063  0.04003  Biso   1.000  C
  C124     1.0000 0.07603  0.75067  0.37337  Biso   1.000  C
  C125     1.0000 0.24933  0.32537  0.37337  Biso   1.000  C
  C126     1.0000 0.67463  0.92397  0.37337  Biso   1.000  C
  H118     1.0000 0.73130  0.05410  0.70760  Biso   1.000  H
  H119     1.0000 0.94590  0.67720  0.70760  Biso   1.000  H
  H120     1.0000 0.32280  0.26870  0.70760  Biso   1.000  H
  H121     1.0000 0.39797  0.38743  0.04093  Biso   1.000  H
  H122     1.0000 0.61257  0.01053  0.04093  Biso   1.000  H
  H123     1.0000 0.98947  0.60203  0.04093  Biso   1.000  H
  H124     1.0000 0.06463  0.72077  0.37427  Biso   1.000  H
  H125     1.0000 0.27923  0.34387  0.37427  Biso   1.000  H
  H126     1.0000 0.65613  0.93537  0.37427  Biso   1.000  H
  C127     1.0000 0.78830  0.10340  0.69910  Biso   1.000  C
  C128     1.0000 0.89660  0.68490  0.69910  Biso   1.000  C
  C129     1.0000 0.31510  0.21170  0.69910  Biso   1.000  C
  C130     1.0000 0.45497  0.43673  0.03243  Biso   1.000  C
  C131     1.0000 0.56327  0.01823  0.03243  Biso   1.000  C
  C132     1.0000 0.98177  0.54503  0.03243  Biso   1.000  C
  C133     1.0000 0.12163  0.77007  0.36577  Biso   1.000  C
  C134     1.0000 0.22993  0.35157  0.36577  Biso   1.000  C
  C135     1.0000 0.64843  0.87837  0.36577  Biso   1.000  C
  H127     1.0000 0.80140  0.09960  0.72210  Biso   1.000  H
  H128     1.0000 0.90040  0.70180  0.72210  Biso   1.000  H
  H129     1.0000 0.29820  0.19860  0.72210  Biso   1.000  H
  H130     1.0000 0.46807  0.43293  0.05543  Biso   1.000  H
  H131     1.0000 0.56707  0.03513  0.05543  Biso   1.000  H
  H132     1.0000 0.96487  0.53193  0.05543  Biso   1.000  H
  H133     1.0000 0.13473  0.76627  0.38877  Biso   1.000  H
  H134     1.0000 0.23373  0.36847  0.38877  Biso   1.000  H
  H135     1.0000 0.63153  0.86527  0.38877  Biso   1.000  H
  H136     1.0000 0.79270  0.08970  0.67700  Biso   1.000  H
  H137     1.0000 0.91030  0.70300  0.67700  Biso   1.000  H
  H138     1.0000 0.29700  0.20730  0.67700  Biso   1.000  H
  H139     1.0000 0.45937  0.42303  0.01033  Biso   1.000  H
  H140     1.0000 0.57697  0.03633  0.01033  Biso   1.000  H
  H141     1.0000 0.96367  0.54063  0.01033  Biso   1.000  H
  H142     1.0000 0.12603  0.75637  0.34367  Biso   1.000  H
  H143     1.0000 0.24363  0.36967  0.34367  Biso   1.000  H
  H144     1.0000 0.63033  0.87397  0.34367  Biso   1.000  H
  C136     1.0000 0.80740  0.14730  0.69060  Biso   1.000  C
  C137     1.0000 0.85270  0.66010  0.69060  Biso   1.000  C
  C138     1.0000 0.33990  0.19260  0.69060  Biso   1.000  C
  C139     1.0000 0.47407  0.48063  0.02393  Biso   1.000  C
  C140     1.0000 0.51937  0.99343  0.02393  Biso   1.000  C
  C141     1.0000 0.00657  0.52593  0.02393  Biso   1.000  C
  C142     1.0000 0.14073  0.81397  0.35727  Biso   1.000  C
  C143     1.0000 0.18603  0.32677  0.35727  Biso   1.000  C
  C144     1.0000 0.67323  0.85927  0.35727  Biso   1.000  C
  C145     1.0000 0.68120  0.06990  0.67950  Biso   1.000  C
  C146     1.0000 0.93010  0.61130  0.67950  Biso   1.000  C
  C147     1.0000 0.38870  0.31880  0.67950  Biso   1.000  C
  C148     1.0000 0.34787  0.40323  0.01283  Biso   1.000  C
  C149     1.0000 0.59677  0.94463  0.01283  Biso   1.000  C
  C150     1.0000 0.05537  0.65213  0.01283  Biso   1.000  C
  C151     1.0000 0.01453  0.73657  0.34617  Biso   1.000  C
  C152     1.0000 0.26343  0.27797  0.34617  Biso   1.000  C
  C153     1.0000 0.72203  0.98547  0.34617  Biso   1.000  C
  C154     1.0000 0.66050  0.07810  0.64540  Biso   1.000  C
  C155     1.0000 0.92190  0.58240  0.64540  Biso   1.000  C
  C156     1.0000 0.41760  0.33950  0.64540  Biso   1.000  C
  C157     1.0000 0.32717  0.41143  0.97873  Biso   1.000  C
  C158     1.0000 0.58857  0.91573  0.97873  Biso   1.000  C
  C159     1.0000 0.08427  0.67283  0.97873  Biso   1.000  C
  C160     1.0000 0.99383  0.74477  0.31207  Biso   1.000  C
  C161     1.0000 0.25523  0.24907  0.31207  Biso   1.000  C
  C162     1.0000 0.75093  0.00617  0.31207  Biso   1.000  C
  C163     1.0000 0.68950  0.15910  0.58050  Biso   1.000  C
  C164     1.0000 0.84090  0.53040  0.58050  Biso   1.000  C
  C165     1.0000 0.46960  0.31050  0.58050  Biso   1.000  C
  C166     1.0000 0.35617  0.49243  0.91383  Biso   1.000  C
  C167     1.0000 0.50757  0.86373  0.91383  Biso   1.000  C
  C168     1.0000 0.13627  0.64383  0.91383  Biso   1.000  C
  C169     1.0000 0.02283  0.82577  0.24717  Biso   1.000  C
  C170     1.0000 0.17423  0.19707  0.24717  Biso   1.000  C
  C171     1.0000 0.80293  0.97717  0.24717  Biso   1.000  C
  H145     1.0000 0.67500  0.16660  0.56150  Biso   1.000  H
  H146     1.0000 0.83340  0.50840  0.56150  Biso   1.000  H
  H147     1.0000 0.49160  0.32500  0.56150  Biso   1.000  H
  H148     1.0000 0.34167  0.49993  0.89483  Biso   1.000  H
  H149     1.0000 0.50007  0.84173  0.89483  Biso   1.000  H
  H150     1.0000 0.15827  0.65833  0.89483  Biso   1.000  H
  H151     1.0000 0.00833  0.83327  0.22817  Biso   1.000  H
  H152     1.0000 0.16673  0.17507  0.22817  Biso   1.000  H
  H153     1.0000 0.82493  0.99167  0.22817  Biso   1.000  H
  H154     1.0000 0.68990  0.17200  0.60540  Biso   1.000  H
  H155     1.0000 0.82800  0.51790  0.60540  Biso   1.000  H
  H156     1.0000 0.48210  0.31010  0.60540  Biso   1.000  H
  H157     1.0000 0.35657  0.50533  0.93873  Biso   1.000  H
  H158     1.0000 0.49467  0.85123  0.93873  Biso   1.000  H
  H159     1.0000 0.14877  0.64343  0.93873  Biso   1.000  H
  H160     1.0000 0.02323  0.83867  0.27207  Biso   1.000  H
  H161     1.0000 0.16133  0.18457  0.27207  Biso   1.000  H
  H162     1.0000 0.81543  0.97677  0.27207  Biso   1.000  H
  C172     1.0000 0.55480  0.12610  0.54770  Biso   1.000  C
  C173     1.0000 0.87390  0.42870  0.54770  Biso   1.000  C
  C174     1.0000 0.57130  0.44520  0.54770  Biso   1.000  C
  C175     1.0000 0.22147  0.45943  0.88103  Biso   1.000  C
  C176     1.0000 0.54057  0.76203  0.88103  Biso   1.000  C
  C177     1.0000 0.23797  0.77853  0.88103  Biso   1.000  C
  C178     1.0000 0.88813  0.79277  0.21437  Biso   1.000  C
  C179     1.0000 0.20723  0.09537  0.21437  Biso   1.000  C
  C180     1.0000 0.90463  0.11187  0.21437  Biso   1.000  C
  H163     1.0000 0.57050  0.14860  0.53140  Biso   1.000  H
  H164     1.0000 0.85140  0.42190  0.53140  Biso   1.000  H
  H165     1.0000 0.57810  0.42950  0.53140  Biso   1.000  H
  H166     1.0000 0.23717  0.48193  0.86473  Biso   1.000  H
  H167     1.0000 0.51807  0.75523  0.86473  Biso   1.000  H
  H168     1.0000 0.24477  0.76283  0.86473  Biso   1.000  H
  H169     1.0000 0.90383  0.81527  0.19807  Biso   1.000  H
  H170     1.0000 0.18473  0.08857  0.19807  Biso   1.000  H
  H171     1.0000 0.91143  0.09617  0.19807  Biso   1.000  H
  C181     1.0000 0.44000  0.10180  0.87080  Biso   1.000  C
  C182     1.0000 0.89820  0.33820  0.87080  Biso   1.000  C
  C183     1.0000 0.66180  0.56000  0.87080  Biso   1.000  C
  C184     1.0000 0.10667  0.43513  0.20413  Biso   1.000  C
  C185     1.0000 0.56487  0.67153  0.20413  Biso   1.000  C
  C186     1.0000 0.32847  0.89333  0.20413  Biso   1.000  C
  C187     1.0000 0.77333  0.76847  0.53747  Biso   1.000  C
  C188     1.0000 0.23153  0.00487  0.53747  Biso   1.000  C
  C189     1.0000 0.99513  0.22667  0.53747  Biso   1.000  C
  C190     1.0000 0.40740  0.08880  0.84180  Biso   1.000  C
  C191     1.0000 0.91120  0.31860  0.84180  Biso   1.000  C
  C192     1.0000 0.68140  0.59260  0.84180  Biso   1.000  C
  C193     1.0000 0.07407  0.42213  0.17513  Biso   1.000  C
  C194     1.0000 0.57787  0.65193  0.17513  Biso   1.000  C
  C195     1.0000 0.34807  0.92593  0.17513  Biso   1.000  C
  C196     1.0000 0.74073  0.75547  0.50847  Biso   1.000  C
  C197     1.0000 0.24453  0.98527  0.50847  Biso   1.000  C
  C198     1.0000 0.01473  0.25927  0.50847  Biso   1.000  C
  C199     1.0000 0.49610  0.19350  0.92930  Biso   1.000  C
  C200     1.0000 0.80650  0.30260  0.92930  Biso   1.000  C
  C201     1.0000 0.69740  0.50390  0.92930  Biso   1.000  C
  C202     1.0000 0.16277  0.52683  0.26263  Biso   1.000  C
  C203     1.0000 0.47317  0.63593  0.26263  Biso   1.000  C
  C204     1.0000 0.36407  0.83723  0.26263  Biso   1.000  C
  C205     1.0000 0.82943  0.86017  0.59597  Biso   1.000  C
  C206     1.0000 0.13983  0.96927  0.59597  Biso   1.000  C
  C207     1.0000 0.03073  0.17057  0.59597  Biso   1.000  C
  H172     1.0000 0.50640  0.20750  0.90430  Biso   1.000  H
  H173     1.0000 0.79250  0.29890  0.90430  Biso   1.000  H
  H174     1.0000 0.70110  0.49360  0.90430  Biso   1.000  H
  H175     1.0000 0.17307  0.54083  0.23763  Biso   1.000  H
  H176     1.0000 0.45917  0.63223  0.23763  Biso   1.000  H
  H177     1.0000 0.36777  0.82693  0.23763  Biso   1.000  H
  H178     1.0000 0.83973  0.87417  0.57097  Biso   1.000  H
  H179     1.0000 0.12583  0.96557  0.57097  Biso   1.000  H
  H180     1.0000 0.03443  0.16027  0.57097  Biso   1.000  H
  H181     1.0000 0.51880  0.20360  0.94790  Biso   1.000  H
  H182     1.0000 0.79640  0.31520  0.94790  Biso   1.000  H
  H183     1.0000 0.68480  0.48120  0.94790  Biso   1.000  H
  H184     1.0000 0.18547  0.53693  0.28123  Biso   1.000  H
  H185     1.0000 0.46307  0.64853  0.28123  Biso   1.000  H
  H186     1.0000 0.35147  0.81453  0.28123  Biso   1.000  H
  H187     1.0000 0.85213  0.87027  0.61457  Biso   1.000  H
  H188     1.0000 0.12973  0.98187  0.61457  Biso   1.000  H
  H189     1.0000 0.01813  0.14787  0.61457  Biso   1.000  H
  C208     1.0000 0.35240  0.09490  0.81480  Biso   1.000  C
  C209     1.0000 0.90510  0.25750  0.81480  Biso   1.000  C
  C210     1.0000 0.74250  0.64760  0.81480  Biso   1.000  C
  C211     1.0000 0.01907  0.42823  0.14813  Biso   1.000  C
  C212     1.0000 0.57177  0.59083  0.14813  Biso   1.000  C
  C213     1.0000 0.40917  0.98093  0.14813  Biso   1.000  C
  C214     1.0000 0.68573  0.76157  0.48147  Biso   1.000  C
  C215     1.0000 0.23843  0.92417  0.48147  Biso   1.000  C
  C216     1.0000 0.07583  0.31427  0.48147  Biso   1.000  C
  H190     1.0000 0.33740  0.06480  0.81340  Biso   1.000  H
  H191     1.0000 0.93520  0.27260  0.81340  Biso   1.000  H
  H192     1.0000 0.72740  0.66260  0.81340  Biso   1.000  H
  H193     1.0000 0.00407  0.39813  0.14673  Biso   1.000  H
  H194     1.0000 0.60187  0.60593  0.14673  Biso   1.000  H
  H195     1.0000 0.39407  0.99593  0.14673  Biso   1.000  H
  H196     1.0000 0.67073  0.73147  0.48007  Biso   1.000  H
  H197     1.0000 0.26853  0.93927  0.48007  Biso   1.000  H
  H198     1.0000 0.06073  0.32927  0.48007  Biso   1.000  H
  C217     1.0000 0.32380  0.10680  0.82910  Biso   1.000  C
  C218     1.0000 0.89320  0.21700  0.82910  Biso   1.000  C
  C219     1.0000 0.78300  0.67620  0.82910  Biso   1.000  C
  C220     1.0000 0.99047  0.44013  0.16243  Biso   1.000  C
  C221     1.0000 0.55987  0.55033  0.16243  Biso   1.000  C
  C222     1.0000 0.44967  0.00953  0.16243  Biso   1.000  C
  C223     1.0000 0.65713  0.77347  0.49577  Biso   1.000  C
  C224     1.0000 0.22653  0.88367  0.49577  Biso   1.000  C
  C225     1.0000 0.11633  0.34287  0.49577  Biso   1.000  C
  H199     1.0000 0.31260  0.09300  0.85400  Biso   1.000  H
  H200     1.0000 0.90700  0.21960  0.85400  Biso   1.000  H
  H201     1.0000 0.78040  0.68740  0.85400  Biso   1.000  H
  H202     1.0000 0.97927  0.42633  0.18733  Biso   1.000  H
  H203     1.0000 0.57367  0.55293  0.18733  Biso   1.000  H
  H204     1.0000 0.44707  0.02073  0.18733  Biso   1.000  H
  H205     1.0000 0.64593  0.75967  0.52067  Biso   1.000  H
  H206     1.0000 0.24033  0.88627  0.52067  Biso   1.000  H
  H207     1.0000 0.11373  0.35407  0.52067  Biso   1.000  H
  H208     1.0000 0.30110  0.09730  0.81060  Biso   1.000  H
  H209     1.0000 0.90270  0.20380  0.81060  Biso   1.000  H
  H210     1.0000 0.79620  0.69890  0.81060  Biso   1.000  H
  H211     1.0000 0.96777  0.43063  0.14393  Biso   1.000  H
  H212     1.0000 0.56937  0.53713  0.14393  Biso   1.000  H
  H213     1.0000 0.46287  0.03223  0.14393  Biso   1.000  H
  H214     1.0000 0.63443  0.76397  0.47727  Biso   1.000  H
  H215     1.0000 0.23603  0.87047  0.47727  Biso   1.000  H
  H216     1.0000 0.12953  0.36557  0.47727  Biso   1.000  H
  C226     1.0000 0.34170  0.15240  0.83510  Biso   1.000  C
  C227     1.0000 0.84760  0.18930  0.83510  Biso   1.000  C
  C228     1.0000 0.81070  0.65830  0.83510  Biso   1.000  C
  C229     1.0000 0.00837  0.48573  0.16843  Biso   1.000  C
  C230     1.0000 0.51427  0.52263  0.16843  Biso   1.000  C
  C231     1.0000 0.47737  0.99163  0.16843  Biso   1.000  C
  C232     1.0000 0.67503  0.81907  0.50177  Biso   1.000  C
  C233     1.0000 0.18093  0.85597  0.50177  Biso   1.000  C
  C234     1.0000 0.14403  0.32497  0.50177  Biso   1.000  C
  C235     1.0000 0.37800  0.20870  0.85910  Biso   1.000  C
  C236     1.0000 0.79130  0.16930  0.85910  Biso   1.000  C
  C237     1.0000 0.83070  0.62200  0.85910  Biso   1.000  C
  C238     1.0000 0.04467  0.54203  0.19243  Biso   1.000  C
  C239     1.0000 0.45797  0.50263  0.19243  Biso   1.000  C
  C240     1.0000 0.49737  0.95533  0.19243  Biso   1.000  C
  C241     1.0000 0.71133  0.87537  0.52577  Biso   1.000  C
  C242     1.0000 0.12463  0.83597  0.52577  Biso   1.000  C
  C243     1.0000 0.16403  0.28867  0.52577  Biso   1.000  C
  H217     1.0000 0.39780  0.22960  0.87480  Biso   1.000  H
  H218     1.0000 0.77040  0.16820  0.87480  Biso   1.000  H
  H219     1.0000 0.83180  0.60220  0.87480  Biso   1.000  H
  H220     1.0000 0.06447  0.56293  0.20813  Biso   1.000  H
  H221     1.0000 0.43707  0.50153  0.20813  Biso   1.000  H
  H222     1.0000 0.49847  0.93553  0.20813  Biso   1.000  H
  H223     1.0000 0.73113  0.89627  0.54147  Biso   1.000  H
  H224     1.0000 0.10373  0.83487  0.54147  Biso   1.000  H
  H225     1.0000 0.16513  0.26887  0.54147  Biso   1.000  H
  C244     1.0000 0.82000  0.20210  0.66140  Biso   1.000  C
  C245     1.0000 0.79790  0.61790  0.66140  Biso   1.000  C
  C246     1.0000 0.38210  0.18000  0.66140  Biso   1.000  C
  C247     1.0000 0.48667  0.53543  0.99473  Biso   1.000  C
  C248     1.0000 0.46457  0.95123  0.99473  Biso   1.000  C
  C249     1.0000 0.04877  0.51333  0.99473  Biso   1.000  C
  C250     1.0000 0.15333  0.86877  0.32807  Biso   1.000  C
  C251     1.0000 0.13123  0.28457  0.32807  Biso   1.000  C
  C252     1.0000 0.71543  0.84667  0.32807  Biso   1.000  C
  H226     1.0000 0.81810  0.21990  0.64340  Biso   1.000  H
  H227     1.0000 0.78010  0.59820  0.64340  Biso   1.000  H
  H228     1.0000 0.40180  0.18190  0.64340  Biso   1.000  H
  H229     1.0000 0.48477  0.55323  0.97673  Biso   1.000  H
  H230     1.0000 0.44677  0.93153  0.97673  Biso   1.000  H
  H231     1.0000 0.06847  0.51523  0.97673  Biso   1.000  H
  H232     1.0000 0.15143  0.88657  0.31007  Biso   1.000  H
  H233     1.0000 0.11343  0.26487  0.31007  Biso   1.000  H
  H234     1.0000 0.73513  0.84857  0.31007  Biso   1.000  H
  C253     1.0000 0.51290  0.99960  0.70470  Biso   1.000  C
  C254     1.0000 0.00040  0.51330  0.70470  Biso   1.000  C
  C255     1.0000 0.48670  0.48710  0.70470  Biso   1.000  C
  C256     1.0000 0.17957  0.33293  0.03803  Biso   1.000  C
  C257     1.0000 0.66707  0.84663  0.03803  Biso   1.000  C
  C258     1.0000 0.15337  0.82043  0.03803  Biso   1.000  C
  C259     1.0000 0.84623  0.66627  0.37137  Biso   1.000  C
  C260     1.0000 0.33373  0.17997  0.37137  Biso   1.000  C
  C261     1.0000 0.82003  0.15377  0.37137  Biso   1.000  C
  H235     1.0000 0.50760  0.97970  0.72380  Biso   1.000  H
  H236     1.0000 0.02030  0.52790  0.72380  Biso   1.000  H
  H237     1.0000 0.47210  0.49240  0.72380  Biso   1.000  H
  H238     1.0000 0.17427  0.31303  0.05713  Biso   1.000  H
  H239     1.0000 0.68697  0.86123  0.05713  Biso   1.000  H
  H240     1.0000 0.13877  0.82573  0.05713  Biso   1.000  H
  H241     1.0000 0.84093  0.64637  0.39047  Biso   1.000  H
  H242     1.0000 0.35363  0.19457  0.39047  Biso   1.000  H
  H243     1.0000 0.80543  0.15907  0.39047  Biso   1.000  H
  C262     1.0000 0.54260  0.04520  0.66580  Biso   1.000  C
  C263     1.0000 0.95480  0.49740  0.66580  Biso   1.000  C
  C264     1.0000 0.50260  0.45740  0.66580  Biso   1.000  C
  C265     1.0000 0.20927  0.37853  0.99913  Biso   1.000  C
  C266     1.0000 0.62147  0.83073  0.99913  Biso   1.000  C
  C267     1.0000 0.16927  0.79073  0.99913  Biso   1.000  C
  C268     1.0000 0.87593  0.71187  0.33247  Biso   1.000  C
  C269     1.0000 0.28813  0.16407  0.33247  Biso   1.000  C
  C270     1.0000 0.83593  0.12407  0.33247  Biso   1.000  C
  H244     1.0000 0.56380  0.06520  0.65060  Biso   1.000  H
  H245     1.0000 0.93480  0.49860  0.65060  Biso   1.000  H
  H246     1.0000 0.50140  0.43620  0.65060  Biso   1.000  H
  H247     1.0000 0.23047  0.39853  0.98393  Biso   1.000  H
  H248     1.0000 0.60147  0.83193  0.98393  Biso   1.000  H
  H249     1.0000 0.16807  0.76953  0.98393  Biso   1.000  H
  H250     1.0000 0.89713  0.73187  0.31727  Biso   1.000  H
  H251     1.0000 0.26813  0.16527  0.31727  Biso   1.000  H
  H252     1.0000 0.83473  0.10287  0.31727  Biso   1.000  H
  C271     1.0000 0.48500  0.00810  0.68950  Biso   1.000  C
  C272     1.0000 0.99190  0.47690  0.68950  Biso   1.000  C
  C273     1.0000 0.52310  0.51500  0.68950  Biso   1.000  C
  C274     1.0000 0.15167  0.34143  0.02283  Biso   1.000  C
  C275     1.0000 0.65857  0.81023  0.02283  Biso   1.000  C
  C276     1.0000 0.18977  0.84833  0.02283  Biso   1.000  C
  C277     1.0000 0.81833  0.67477  0.35617  Biso   1.000  C
  C278     1.0000 0.32523  0.14357  0.35617  Biso   1.000  C
  C279     1.0000 0.85643  0.18167  0.35617  Biso   1.000  C
  C280     1.0000 0.44020  0.98930  0.69620  Biso   1.000  C
  C281     1.0000 0.01070  0.45090  0.69620  Biso   1.000  C
  C282     1.0000 0.54910  0.55980  0.69620  Biso   1.000  C
  C283     1.0000 0.10687  0.32263  0.02953  Biso   1.000  C
  C284     1.0000 0.67737  0.78423  0.02953  Biso   1.000  C
  C285     1.0000 0.21577  0.89313  0.02953  Biso   1.000  C
  C286     1.0000 0.77353  0.65597  0.36287  Biso   1.000  C
  C287     1.0000 0.34403  0.11757  0.36287  Biso   1.000  C
  C288     1.0000 0.88243  0.22647  0.36287  Biso   1.000  C
  H253     1.0000 0.43160  0.96780  0.71590  Biso   1.000  H
  H254     1.0000 0.03220  0.46380  0.71590  Biso   1.000  H
  H255     1.0000 0.53620  0.56840  0.71590  Biso   1.000  H
  H256     1.0000 0.09827  0.30113  0.04923  Biso   1.000  H
  H257     1.0000 0.69887  0.79713  0.04923  Biso   1.000  H
  H258     1.0000 0.20287  0.90173  0.04923  Biso   1.000  H
  H259     1.0000 0.76493  0.63447  0.38257  Biso   1.000  H
  H260     1.0000 0.36553  0.13047  0.38257  Biso   1.000  H
  H261     1.0000 0.86953  0.23507  0.38257  Biso   1.000  H
  H262     1.0000 0.42580  0.97660  0.67180  Biso   1.000  H
  H263     1.0000 0.02340  0.44920  0.67180  Biso   1.000  H
  H264     1.0000 0.55080  0.57420  0.67180  Biso   1.000  H
  H265     1.0000 0.09247  0.30993  0.00513  Biso   1.000  H
  H266     1.0000 0.69007  0.78253  0.00513  Biso   1.000  H
  H267     1.0000 0.21747  0.90753  0.00513  Biso   1.000  H
  H268     1.0000 0.75913  0.64327  0.33847  Biso   1.000  H
  H269     1.0000 0.35673  0.11587  0.33847  Biso   1.000  H
  H270     1.0000 0.88413  0.24087  0.33847  Biso   1.000  H
  C289     1.0000 0.42800  0.01960  0.70950  Biso   1.000  C
  C290     1.0000 0.98040  0.40840  0.70950  Biso   1.000  C
  C291     1.0000 0.59160  0.57200  0.70950  Biso   1.000  C
  C292     1.0000 0.09467  0.35293  0.04283  Biso   1.000  C
  C293     1.0000 0.64707  0.74173  0.04283  Biso   1.000  C
  C294     1.0000 0.25827  0.90533  0.04283  Biso   1.000  C
  C295     1.0000 0.76133  0.68627  0.37617  Biso   1.000  C
  C296     1.0000 0.31373  0.07507  0.37617  Biso   1.000  C
  C297     1.0000 0.92493  0.23867  0.37617  Biso   1.000  C
  H271     1.0000 0.39780  0.00470  0.71050  Biso   1.000  H
  H272     1.0000 0.99530  0.39310  0.71050  Biso   1.000  H
  H273     1.0000 0.60690  0.60220  0.71050  Biso   1.000  H
  H274     1.0000 0.06447  0.33803  0.04383  Biso   1.000  H
  H275     1.0000 0.66197  0.72643  0.04383  Biso   1.000  H
  H276     1.0000 0.27357  0.93553  0.04383  Biso   1.000  H
  H277     1.0000 0.73113  0.67137  0.37717  Biso   1.000  H
  H278     1.0000 0.32863  0.05977  0.37717  Biso   1.000  H
  H279     1.0000 0.94023  0.26887  0.37717  Biso   1.000  H
  C298     1.0000 0.44210  0.03660  0.74890  Biso   1.000  C
  C299     1.0000 0.96340  0.40550  0.74890  Biso   1.000  C
  C300     1.0000 0.59450  0.55790  0.74890  Biso   1.000  C
  C301     1.0000 0.10877  0.36993  0.08223  Biso   1.000  C
  C302     1.0000 0.63007  0.73883  0.08223  Biso   1.000  C
  C303     1.0000 0.26117  0.89123  0.08223  Biso   1.000  C
  C304     1.0000 0.77543  0.70327  0.41557  Biso   1.000  C
  C305     1.0000 0.29673  0.07217  0.41557  Biso   1.000  C
  C306     1.0000 0.92783  0.22457  0.41557  Biso   1.000  C
  C307     1.0000 0.42190  0.07530  0.68370  Biso   1.000  C
  C308     1.0000 0.92470  0.34660  0.68370  Biso   1.000  C
  C309     1.0000 0.65340  0.57810  0.68370  Biso   1.000  C
  C310     1.0000 0.08857  0.40863  0.01703  Biso   1.000  C
  C311     1.0000 0.59137  0.67993  0.01703  Biso   1.000  C
  C312     1.0000 0.32007  0.91143  0.01703  Biso   1.000  C
  C313     1.0000 0.75523  0.74197  0.35037  Biso   1.000  C
  C314     1.0000 0.25803  0.01327  0.35037  Biso   1.000  C
  C315     1.0000 0.98673  0.24477  0.35037  Biso   1.000  C
  C316     1.0000 0.43600  0.10770  0.65250  Biso   1.000  C
  C317     1.0000 0.89230  0.32830  0.65250  Biso   1.000  C
  C318     1.0000 0.67170  0.56400  0.65250  Biso   1.000  C
  C319     1.0000 0.10267  0.44103  0.98583  Biso   1.000  C
  C320     1.0000 0.55897  0.66163  0.98583  Biso   1.000  C
  C321     1.0000 0.33837  0.89733  0.98583  Biso   1.000  C
  C322     1.0000 0.76933  0.77437  0.31917  Biso   1.000  C
  C323     1.0000 0.22563  0.99497  0.31917  Biso   1.000  C
  C324     1.0000 0.00503  0.23067  0.31917  Biso   1.000  C
  C325     1.0000 0.52790  0.16170  0.59410  Biso   1.000  C
  C326     1.0000 0.83830  0.36620  0.59410  Biso   1.000  C
  C327     1.0000 0.63380  0.47210  0.59410  Biso   1.000  C
  C328     1.0000 0.19457  0.49503  0.92743  Biso   1.000  C
  C329     1.0000 0.50497  0.69953  0.92743  Biso   1.000  C
  C330     1.0000 0.30047  0.80543  0.92743  Biso   1.000  C
  C331     1.0000 0.86123  0.82837  0.26077  Biso   1.000  C
  C332     1.0000 0.17163  0.03287  0.26077  Biso   1.000  C
  C333     1.0000 0.96713  0.13877  0.26077  Biso   1.000  C
  H280     1.0000 0.53910  0.18460  0.57570  Biso   1.000  H
  H281     1.0000 0.81540  0.35450  0.57570  Biso   1.000  H
  H282     1.0000 0.64550  0.46090  0.57570  Biso   1.000  H
  H283     1.0000 0.20577  0.51793  0.90903  Biso   1.000  H
  H284     1.0000 0.48207  0.68783  0.90903  Biso   1.000  H
  H285     1.0000 0.31217  0.79423  0.90903  Biso   1.000  H
  H286     1.0000 0.87243  0.85127  0.24237  Biso   1.000  H
  H287     1.0000 0.14873  0.02117  0.24237  Biso   1.000  H
  H288     1.0000 0.97883  0.12757  0.24237  Biso   1.000  H
  H289     1.0000 0.54250  0.17110  0.61890  Biso   1.000  H
  H290     1.0000 0.82890  0.37140  0.61890  Biso   1.000  H
  H291     1.0000 0.62860  0.45750  0.61890  Biso   1.000  H
  H292     1.0000 0.20917  0.50443  0.95223  Biso   1.000  H
  H293     1.0000 0.49557  0.70473  0.95223  Biso   1.000  H
  H294     1.0000 0.29527  0.79083  0.95223  Biso   1.000  H
  H295     1.0000 0.87583  0.83777  0.28557  Biso   1.000  H
  H296     1.0000 0.16223  0.03807  0.28557  Biso   1.000  H
  H297     1.0000 0.96193  0.12417  0.28557  Biso   1.000  H
  C334     1.0000 0.60080  0.10980  0.95590  Biso   1.000  C
  C335     1.0000 0.89020  0.49100  0.95590  Biso   1.000  C
  C336     1.0000 0.50900  0.39920  0.95590  Biso   1.000  C
  C337     1.0000 0.26747  0.44313  0.28923  Biso   1.000  C
  C338     1.0000 0.55687  0.82433  0.28923  Biso   1.000  C
  C339     1.0000 0.17567  0.73253  0.28923  Biso   1.000  C
  C340     1.0000 0.93413  0.77647  0.62257  Biso   1.000  C
  C341     1.0000 0.22353  0.15767  0.62257  Biso   1.000  C
  C342     1.0000 0.84233  0.06587  0.62257  Biso   1.000  C
  C343     1.0000 0.54000  0.06090  0.95480  Biso   1.000  C
  C344     1.0000 0.93910  0.47910  0.95480  Biso   1.000  C
  C345     1.0000 0.52090  0.46000  0.95480  Biso   1.000  C
  C346     1.0000 0.20667  0.39423  0.28813  Biso   1.000  C
  C347     1.0000 0.60577  0.81243  0.28813  Biso   1.000  C
  C348     1.0000 0.18757  0.79333  0.28813  Biso   1.000  C
  C349     1.0000 0.87333  0.72757  0.62147  Biso   1.000  C
  C350     1.0000 0.27243  0.14577  0.62147  Biso   1.000  C
  C351     1.0000 0.85423  0.12667  0.62147  Biso   1.000  C
  H298     1.0000 0.51720  0.03580  0.94780  Biso   1.000  H
  H299     1.0000 0.96420  0.48140  0.94780  Biso   1.000  H
  H300     1.0000 0.51860  0.48280  0.94780  Biso   1.000  H
  H301     1.0000 0.18387  0.36913  0.28113  Biso   1.000  H
  H302     1.0000 0.63087  0.81473  0.28113  Biso   1.000  H
  H303     1.0000 0.18527  0.81613  0.28113  Biso   1.000  H
  H304     1.0000 0.85053  0.70247  0.61447  Biso   1.000  H
  H305     1.0000 0.29753  0.14807  0.61447  Biso   1.000  H
  H306     1.0000 0.85193  0.14947  0.61447  Biso   1.000  H
  C352     1.0000 0.57920  0.11390  0.98800  Biso   1.000  C
  C353     1.0000 0.88610  0.46530  0.98800  Biso   1.000  C
  C354     1.0000 0.53470  0.42080  0.98800  Biso   1.000  C
  C355     1.0000 0.24587  0.44723  0.32133  Biso   1.000  C
  C356     1.0000 0.55277  0.79863  0.32133  Biso   1.000  C
  C357     1.0000 0.20137  0.75413  0.32133  Biso   1.000  C
  C358     1.0000 0.91253  0.78057  0.65467  Biso   1.000  C
  C359     1.0000 0.21943  0.13197  0.65467  Biso   1.000  C
  C360     1.0000 0.86803  0.08747  0.65467  Biso   1.000  C
  H307     1.0000 0.58930  0.13390  0.00760  Biso   1.000  H
  H308     1.0000 0.86610  0.45540  0.00760  Biso   1.000  H
  H309     1.0000 0.54460  0.41070  0.00760  Biso   1.000  H
  H310     1.0000 0.25597  0.46723  0.34093  Biso   1.000  H
  H311     1.0000 0.53277  0.78873  0.34093  Biso   1.000  H
  H312     1.0000 0.21127  0.74403  0.34093  Biso   1.000  H
  H313     1.0000 0.92263  0.80057  0.67427  Biso   1.000  H
  H314     1.0000 0.19943  0.12207  0.67427  Biso   1.000  H
  H315     1.0000 0.87793  0.07737  0.67427  Biso   1.000  H
  C361     1.0000 0.73260  0.17560  0.56680  Biso   1.000  C
  C362     1.0000 0.82440  0.55700  0.56680  Biso   1.000  C
  C363     1.0000 0.44300  0.26740  0.56680  Biso   1.000  C
  C364     1.0000 0.39927  0.50893  0.90013  Biso   1.000  C
  C365     1.0000 0.49107  0.89033  0.90013  Biso   1.000  C
  C366     1.0000 0.10967  0.60073  0.90013  Biso   1.000  C
  C367     1.0000 0.06593  0.84227  0.23347  Biso   1.000  C
  C368     1.0000 0.15773  0.22367  0.23347  Biso   1.000  C
  C369     1.0000 0.77633  0.93407  0.23347  Biso   1.000  C
  C370     1.0000 0.79430  0.18910  0.57070  Biso   1.000  C
  C371     1.0000 0.81090  0.60520  0.57070  Biso   1.000  C
  C372     1.0000 0.39480  0.20570  0.57070  Biso   1.000  C
  C373     1.0000 0.46097  0.52243  0.90403  Biso   1.000  C
  C374     1.0000 0.47757  0.93853  0.90403  Biso   1.000  C
  C375     1.0000 0.06147  0.53903  0.90403  Biso   1.000  C
  C376     1.0000 0.12763  0.85577  0.23737  Biso   1.000  C
  C377     1.0000 0.14423  0.27187  0.23737  Biso   1.000  C
  C378     1.0000 0.72813  0.87237  0.23737  Biso   1.000  C
  H316     1.0000 0.81820  0.18920  0.57860  Biso   1.000  H
  H317     1.0000 0.81080  0.62900  0.57860  Biso   1.000  H
  H318     1.0000 0.37100  0.18180  0.57860  Biso   1.000  H
  H319     1.0000 0.48487  0.52253  0.91193  Biso   1.000  H
  H320     1.0000 0.47747  0.96233  0.91193  Biso   1.000  H
  H321     1.0000 0.03767  0.51513  0.91193  Biso   1.000  H
  H322     1.0000 0.15153  0.85587  0.24527  Biso   1.000  H
  H323     1.0000 0.14413  0.29567  0.24527  Biso   1.000  H
  H324     1.0000 0.70433  0.84847  0.24527  Biso   1.000  H
  C379     1.0000 0.75280  0.20070  0.53670  Biso   1.000  C
  C380     1.0000 0.79930  0.55210  0.53670  Biso   1.000  C
  C381     1.0000 0.44790  0.24720  0.53670  Biso   1.000  C
  C382     1.0000 0.41947  0.53403  0.87003  Biso   1.000  C
  C383     1.0000 0.46597  0.88543  0.87003  Biso   1.000  C
  C384     1.0000 0.11457  0.58053  0.87003  Biso   1.000  C
  C385     1.0000 0.08613  0.86737  0.20337  Biso   1.000  C
  C386     1.0000 0.13263  0.21877  0.20337  Biso   1.000  C
  C387     1.0000 0.78123  0.91387  0.20337  Biso   1.000  C
  H325     1.0000 0.74230  0.21060  0.51750  Biso   1.000  H
  H326     1.0000 0.78940  0.53170  0.51750  Biso   1.000  H
  H327     1.0000 0.46830  0.25770  0.51750  Biso   1.000  H
  H328     1.0000 0.40897  0.54393  0.85083  Biso   1.000  H
  H329     1.0000 0.45607  0.86503  0.85083  Biso   1.000  H
  H330     1.0000 0.13497  0.59103  0.85083  Biso   1.000  H
  H331     1.0000 0.07563  0.87727  0.18417  Biso   1.000  H
  H332     1.0000 0.12273  0.19837  0.18417  Biso   1.000  H
  H333     1.0000 0.80163  0.92437  0.18417  Biso   1.000  H
  C388     1.0000 0.66620  0.11310  0.58570  Biso   1.000  C
  C389     1.0000 0.88690  0.55310  0.58570  Biso   1.000  C
  C390     1.0000 0.44690  0.33380  0.58570  Biso   1.000  C
  C391     1.0000 0.33287  0.44643  0.91903  Biso   1.000  C
  C392     1.0000 0.55357  0.88643  0.91903  Biso   1.000  C
  C393     1.0000 0.11357  0.66713  0.91903  Biso   1.000  C
  C394     1.0000 0.99953  0.77977  0.25237  Biso   1.000  C
  C395     1.0000 0.22023  0.21977  0.25237  Biso   1.000  C
  C396     1.0000 0.78023  0.00047  0.25237  Biso   1.000  C
  H334     1.0000 0.63720  0.10420  0.59110  Biso   1.000  H
  H335     1.0000 0.89580  0.53300  0.59110  Biso   1.000  H
  H336     1.0000 0.46700  0.36280  0.59110  Biso   1.000  H
  H337     1.0000 0.30387  0.43753  0.92443  Biso   1.000  H
  H338     1.0000 0.56247  0.86633  0.92443  Biso   1.000  H
  H339     1.0000 0.13367  0.69613  0.92443  Biso   1.000  H
  H340     1.0000 0.97053  0.77087  0.25777  Biso   1.000  H
  H341     1.0000 0.22913  0.19967  0.25777  Biso   1.000  H
  H342     1.0000 0.80033  0.02947  0.25777  Biso   1.000  H
  C397     1.0000 0.66850  0.09190  0.55000  Biso   1.000  C
  C398     1.0000 0.90810  0.57660  0.55000  Biso   1.000  C
  C399     1.0000 0.42340  0.33150  0.55000  Biso   1.000  C
  C400     1.0000 0.33517  0.42523  0.88333  Biso   1.000  C
  C401     1.0000 0.57477  0.90993  0.88333  Biso   1.000  C
  C402     1.0000 0.09007  0.66483  0.88333  Biso   1.000  C
  C403     1.0000 0.00183  0.75857  0.21667  Biso   1.000  C
  C404     1.0000 0.24143  0.24327  0.21667  Biso   1.000  C
  C405     1.0000 0.75673  0.99817  0.21667  Biso   1.000  C
  C406     1.0000 0.47940  0.14460  0.60070  Biso   1.000  C
  C407     1.0000 0.85540  0.33480  0.60070  Biso   1.000  C
  C408     1.0000 0.66520  0.52060  0.60070  Biso   1.000  C
  C409     1.0000 0.14607  0.47793  0.93403  Biso   1.000  C
  C410     1.0000 0.52207  0.66813  0.93403  Biso   1.000  C
  C411     1.0000 0.33187  0.85393  0.93403  Biso   1.000  C
  C412     1.0000 0.81273  0.81127  0.26737  Biso   1.000  C
  C413     1.0000 0.18873  0.00147  0.26737  Biso   1.000  C
  C414     1.0000 0.99853  0.18727  0.26737  Biso   1.000  C
  H343     1.0000 0.47580  0.16690  0.61140  Biso   1.000  H
  H344     1.0000 0.83310  0.30890  0.61140  Biso   1.000  H
  H345     1.0000 0.69110  0.52420  0.61140  Biso   1.000  H
  H346     1.0000 0.14247  0.50023  0.94473  Biso   1.000  H
  H347     1.0000 0.49977  0.64223  0.94473  Biso   1.000  H
  H348     1.0000 0.35777  0.85753  0.94473  Biso   1.000  H
  H349     1.0000 0.80913  0.83357  0.27807  Biso   1.000  H
  H350     1.0000 0.16643  0.97557  0.27807  Biso   1.000  H
  H351     1.0000 0.02443  0.19087  0.27807  Biso   1.000  H
  C415     1.0000 0.45780  0.13120  0.56370  Biso   1.000  C
  C416     1.0000 0.86880  0.32660  0.56370  Biso   1.000  C
  C417     1.0000 0.67340  0.54220  0.56370  Biso   1.000  C
  C418     1.0000 0.12447  0.46453  0.89703  Biso   1.000  C
  C419     1.0000 0.53547  0.65993  0.89703  Biso   1.000  C
  C420     1.0000 0.34007  0.87553  0.89703  Biso   1.000  C
  C421     1.0000 0.79113  0.79787  0.23037  Biso   1.000  C
  C422     1.0000 0.20213  0.99327  0.23037  Biso   1.000  C
  C423     1.0000 0.00673  0.20887  0.23037  Biso   1.000  C
  C424     1.0000 0.53270  0.12650  0.57750  Biso   1.000  C
  C425     1.0000 0.87350  0.40620  0.57750  Biso   1.000  C
  C426     1.0000 0.59380  0.46730  0.57750  Biso   1.000  C
  C427     1.0000 0.19937  0.45983  0.91083  Biso   1.000  C
  C428     1.0000 0.54017  0.73953  0.91083  Biso   1.000  C
  C429     1.0000 0.26047  0.80063  0.91083  Biso   1.000  C
  C430     1.0000 0.86603  0.79317  0.24417  Biso   1.000  C
  C431     1.0000 0.20683  0.07287  0.24417  Biso   1.000  C
  C432     1.0000 0.92713  0.13397  0.24417  Biso   1.000  C
  C433     1.0000 0.52910  0.07010  0.57530  Biso   1.000  C
  C434     1.0000 0.92990  0.45900  0.57530  Biso   1.000  C
  C435     1.0000 0.54100  0.47090  0.57530  Biso   1.000  C
  C436     1.0000 0.19577  0.40343  0.90863  Biso   1.000  C
  C437     1.0000 0.59657  0.79233  0.90863  Biso   1.000  C
  C438     1.0000 0.20767  0.80423  0.90863  Biso   1.000  C
  C439     1.0000 0.86243  0.73677  0.24197  Biso   1.000  C
  C440     1.0000 0.26323  0.12567  0.24197  Biso   1.000  C
  C441     1.0000 0.87433  0.13757  0.24197  Biso   1.000  C
  H352     1.0000 0.52100  0.04250  0.57950  Biso   1.000  H
  H353     1.0000 0.95750  0.47850  0.57950  Biso   1.000  H
  H354     1.0000 0.52150  0.47900  0.57950  Biso   1.000  H
  H355     1.0000 0.18767  0.37583  0.91283  Biso   1.000  H
  H356     1.0000 0.62417  0.81183  0.91283  Biso   1.000  H
  H357     1.0000 0.18817  0.81233  0.91283  Biso   1.000  H
  H358     1.0000 0.85433  0.70917  0.24617  Biso   1.000  H
  H359     1.0000 0.29083  0.14517  0.24617  Biso   1.000  H
  H360     1.0000 0.85483  0.14567  0.24617  Biso   1.000  H
  C442     1.0000 0.47710  0.14860  0.92420  Biso   1.000  C
  C443     1.0000 0.85140  0.32850  0.92420  Biso   1.000  C
  C444     1.0000 0.67150  0.52290  0.92420  Biso   1.000  C
  C445     1.0000 0.14377  0.48193  0.25753  Biso   1.000  C
  C446     1.0000 0.51807  0.66183  0.25753  Biso   1.000  C
  C447     1.0000 0.33817  0.85623  0.25753  Biso   1.000  C
  C448     1.0000 0.81043  0.81527  0.59087  Biso   1.000  C
  C449     1.0000 0.18473  0.99517  0.59087  Biso   1.000  C
  C450     1.0000 0.00483  0.18957  0.59087  Biso   1.000  C
  H361     1.0000 0.49900  0.14390  0.91450  Biso   1.000  H
  H362     1.0000 0.85610  0.35510  0.91450  Biso   1.000  H
  H363     1.0000 0.64490  0.50100  0.91450  Biso   1.000  H
  H364     1.0000 0.16567  0.47723  0.24783  Biso   1.000  H
  H365     1.0000 0.52277  0.68843  0.24783  Biso   1.000  H
  H366     1.0000 0.31157  0.83433  0.24783  Biso   1.000  H
  H367     1.0000 0.83233  0.81057  0.58117  Biso   1.000  H
  H368     1.0000 0.18943  0.02177  0.58117  Biso   1.000  H
  H369     1.0000 0.97823  0.16767  0.58117  Biso   1.000  H
  C451     1.0000 0.46300  0.12610  0.96080  Biso   1.000  C
  C452     1.0000 0.87390  0.33690  0.96080  Biso   1.000  C
  C453     1.0000 0.66310  0.53700  0.96080  Biso   1.000  C
  C454     1.0000 0.12967  0.45943  0.29413  Biso   1.000  C
  C455     1.0000 0.54057  0.67023  0.29413  Biso   1.000  C
  C456     1.0000 0.32977  0.87033  0.29413  Biso   1.000  C
  C457     1.0000 0.79633  0.79277  0.62747  Biso   1.000  C
  C458     1.0000 0.20723  0.00357  0.62747  Biso   1.000  C
  C459     1.0000 0.99643  0.20367  0.62747  Biso   1.000  C
  C460     1.0000 0.84050  0.17850  0.70800  Biso   1.000  C
  C461     1.0000 0.82150  0.66200  0.70800  Biso   1.000  C
  C462     1.0000 0.33800  0.15950  0.70800  Biso   1.000  C
  C463     1.0000 0.50717  0.51183  0.04133  Biso   1.000  C
  C464     1.0000 0.48817  0.99533  0.04133  Biso   1.000  C
  C465     1.0000 0.00467  0.49283  0.04133  Biso   1.000  C
  C466     1.0000 0.17383  0.84517  0.37467  Biso   1.000  C
  C467     1.0000 0.15483  0.32867  0.37467  Biso   1.000  C
  C468     1.0000 0.67133  0.82617  0.37467  Biso   1.000  C
  H370     1.0000 0.85540  0.17660  0.72910  Biso   1.000  H
  H371     1.0000 0.82340  0.67880  0.72910  Biso   1.000  H
  H372     1.0000 0.32120  0.14460  0.72910  Biso   1.000  H
  H373     1.0000 0.52207  0.50993  0.06243  Biso   1.000  H
  H374     1.0000 0.49007  0.01213  0.06243  Biso   1.000  H
  H375     1.0000 0.98787  0.47793  0.06243  Biso   1.000  H
  H376     1.0000 0.18873  0.84327  0.39577  Biso   1.000  H
  H377     1.0000 0.15673  0.34547  0.39577  Biso   1.000  H
  H378     1.0000 0.65453  0.81127  0.39577  Biso   1.000  H
  C469     1.0000 0.36820  0.10990  0.77470  Biso   1.000  C
  C470     1.0000 0.89010  0.25830  0.77470  Biso   1.000  C
  C471     1.0000 0.74170  0.63180  0.77470  Biso   1.000  C
  C472     1.0000 0.03487  0.44323  0.10803  Biso   1.000  C
  C473     1.0000 0.55677  0.59163  0.10803  Biso   1.000  C
  C474     1.0000 0.40837  0.96513  0.10803  Biso   1.000  C
  C475     1.0000 0.70153  0.77657  0.44137  Biso   1.000  C
  C476     1.0000 0.22343  0.92497  0.44137  Biso   1.000  C
  C477     1.0000 0.07503  0.29847  0.44137  Biso   1.000  C
  C478     1.0000 0.45790  0.21840  0.97980  Biso   1.000  C
  C479     1.0000 0.78160  0.23950  0.97980  Biso   1.000  C
  C480     1.0000 0.76050  0.54210  0.97980  Biso   1.000  C
  C481     1.0000 0.12457  0.55173  0.31313  Biso   1.000  C
  C482     1.0000 0.44827  0.57283  0.31313  Biso   1.000  C
  C483     1.0000 0.42717  0.87543  0.31313  Biso   1.000  C
  C484     1.0000 0.79123  0.88507  0.64647  Biso   1.000  C
  C485     1.0000 0.11493  0.90617  0.64647  Biso   1.000  C
  C486     1.0000 0.09383  0.20877  0.64647  Biso   1.000  C
  H379     1.0000 0.47880  0.23110  0.99850  Biso   1.000  H
  H380     1.0000 0.76890  0.24770  0.99850  Biso   1.000  H
  H381     1.0000 0.75230  0.52120  0.99850  Biso   1.000  H
  H382     1.0000 0.14547  0.56443  0.33183  Biso   1.000  H
  H383     1.0000 0.43557  0.58103  0.33183  Biso   1.000  H
  H384     1.0000 0.41897  0.85453  0.33183  Biso   1.000  H
  H385     1.0000 0.81213  0.89777  0.66517  Biso   1.000  H
  H386     1.0000 0.10223  0.91437  0.66517  Biso   1.000  H
  H387     1.0000 0.08563  0.18787  0.66517  Biso   1.000  H
  C487     1.0000 0.46120  0.20120  0.94550  Biso   1.000  C
  C488     1.0000 0.79880  0.26000  0.94550  Biso   1.000  C
  C489     1.0000 0.74000  0.53880  0.94550  Biso   1.000  C
  C490     1.0000 0.12787  0.53453  0.27883  Biso   1.000  C
  C491     1.0000 0.46547  0.59333  0.27883  Biso   1.000  C
  C492     1.0000 0.40667  0.87213  0.27883  Biso   1.000  C
  C493     1.0000 0.79453  0.86787  0.61217  Biso   1.000  C
  C494     1.0000 0.13213  0.92667  0.61217  Biso   1.000  C
  C495     1.0000 0.07333  0.20547  0.61217  Biso   1.000  C
  C496     1.0000 0.40240  0.19420  0.95030  Biso   1.000  C
  C497     1.0000 0.80580  0.20820  0.95030  Biso   1.000  C
  C498     1.0000 0.79180  0.59760  0.95030  Biso   1.000  C
  C499     1.0000 0.06907  0.52753  0.28363  Biso   1.000  C
  C500     1.0000 0.47247  0.54153  0.28363  Biso   1.000  C
  C501     1.0000 0.45847  0.93093  0.28363  Biso   1.000  C
  C502     1.0000 0.73573  0.86087  0.61697  Biso   1.000  C
  C503     1.0000 0.13913  0.87487  0.61697  Biso   1.000  C
  C504     1.0000 0.12513  0.26427  0.61697  Biso   1.000  C
  H388     1.0000 0.37480  0.18570  0.94600  Biso   1.000  H
  H389     1.0000 0.81430  0.18910  0.94600  Biso   1.000  H
  H390     1.0000 0.81090  0.62520  0.94600  Biso   1.000  H
  H391     1.0000 0.04147  0.51903  0.27933  Biso   1.000  H
  H392     1.0000 0.48097  0.52243  0.27933  Biso   1.000  H
  H393     1.0000 0.47757  0.95853  0.27933  Biso   1.000  H
  H394     1.0000 0.70813  0.85237  0.61267  Biso   1.000  H
  H395     1.0000 0.14763  0.85577  0.61267  Biso   1.000  H
  H396     1.0000 0.14423  0.29187  0.61267  Biso   1.000  H
  N217     1.0000 0.78100  0.20580  0.77410  Biso   1.000  N
  N218     1.0000 0.79420  0.57520  0.77410  Biso   1.000  N
  N219     1.0000 0.42480  0.21900  0.77410  Biso   1.000  N
  N220     1.0000 0.44767  0.53913  0.10743  Biso   1.000  N
  N221     1.0000 0.46087  0.90853  0.10743  Biso   1.000  N
  N222     1.0000 0.09147  0.55233  0.10743  Biso   1.000  N
  N223     1.0000 0.11433  0.87247  0.44077  Biso   1.000  N
  N224     1.0000 0.12753  0.24187  0.44077  Biso   1.000  N
  N225     1.0000 0.75813  0.88567  0.44077  Biso   1.000  N
  H397     1.0000 0.80780  0.21530  0.77030  Biso   1.000  H
  H398     1.0000 0.78470  0.59250  0.77030  Biso   1.000  H
  H399     1.0000 0.40750  0.19220  0.77030  Biso   1.000  H
  H400     1.0000 0.47447  0.54863  0.10363  Biso   1.000  H
  H401     1.0000 0.45137  0.92583  0.10363  Biso   1.000  H
  H402     1.0000 0.07417  0.52553  0.10363  Biso   1.000  H
  H403     1.0000 0.14113  0.88197  0.43697  Biso   1.000  H
  H404     1.0000 0.11803  0.25917  0.43697  Biso   1.000  H
  H405     1.0000 0.74083  0.85887  0.43697  Biso   1.000  H
  H406     1.0000 0.76780  0.17830  0.77540  Biso   1.000  H
  H407     1.0000 0.82170  0.58950  0.77540  Biso   1.000  H
  H408     1.0000 0.41050  0.23220  0.77540  Biso   1.000  H
  H409     1.0000 0.43447  0.51163  0.10873  Biso   1.000  H
  H410     1.0000 0.48837  0.92283  0.10873  Biso   1.000  H
  H411     1.0000 0.07717  0.56553  0.10873  Biso   1.000  H
  H412     1.0000 0.10113  0.84497  0.44207  Biso   1.000  H
  H413     1.0000 0.15503  0.25617  0.44207  Biso   1.000  H
  H414     1.0000 0.74383  0.89887  0.44207  Biso   1.000  H
  H415     1.0000 0.77740  0.21580  0.79670  Biso   1.000  H
  H416     1.0000 0.78420  0.56160  0.79670  Biso   1.000  H
  H417     1.0000 0.43840  0.22260  0.79670  Biso   1.000  H
  H418     1.0000 0.44407  0.54913  0.13003  Biso   1.000  H
  H419     1.0000 0.45087  0.89493  0.13003  Biso   1.000  H
  H420     1.0000 0.10507  0.55593  0.13003  Biso   1.000  H
  H421     1.0000 0.11073  0.88247  0.46337  Biso   1.000  H
  H422     1.0000 0.11753  0.22827  0.46337  Biso   1.000  H
  H423     1.0000 0.77173  0.88927  0.46337  Biso   1.000  H
  C505     1.0000 0.76600  0.21740  0.74430  Biso   1.000  C
  C506     1.0000 0.78260  0.54860  0.74430  Biso   1.000  C
  C507     1.0000 0.45140  0.23400  0.74430  Biso   1.000  C
  C508     1.0000 0.43267  0.55073  0.07763  Biso   1.000  C
  C509     1.0000 0.44927  0.88193  0.07763  Biso   1.000  C
  C510     1.0000 0.11807  0.56733  0.07763  Biso   1.000  C
  C511     1.0000 0.09933  0.88407  0.41097  Biso   1.000  C
  C512     1.0000 0.11593  0.21527  0.41097  Biso   1.000  C
  C513     1.0000 0.78473  0.90067  0.41097  Biso   1.000  C
  H424     1.0000 0.76440  0.24120  0.75200  Biso   1.000  H
  H425     1.0000 0.75880  0.52320  0.75200  Biso   1.000  H
  H426     1.0000 0.47680  0.23560  0.75200  Biso   1.000  H
  H427     1.0000 0.43107  0.57453  0.08533  Biso   1.000  H
  H428     1.0000 0.42547  0.85653  0.08533  Biso   1.000  H
  H429     1.0000 0.14347  0.56893  0.08533  Biso   1.000  H
  H430     1.0000 0.09773  0.90787  0.41867  Biso   1.000  H
  H431     1.0000 0.09213  0.18987  0.41867  Biso   1.000  H
  H432     1.0000 0.81013  0.90227  0.41867  Biso   1.000  H
  H433     1.0000 0.73900  0.19540  0.73770  Biso   1.000  H
  H434     1.0000 0.80460  0.54360  0.73770  Biso   1.000  H
  H435     1.0000 0.45640  0.26100  0.73770  Biso   1.000  H
  H436     1.0000 0.40567  0.52873  0.07103  Biso   1.000  H
  H437     1.0000 0.47127  0.87693  0.07103  Biso   1.000  H
  H438     1.0000 0.12307  0.59433  0.07103  Biso   1.000  H
  H439     1.0000 0.07233  0.86207  0.40437  Biso   1.000  H
  H440     1.0000 0.13793  0.21027  0.40437  Biso   1.000  H
  H441     1.0000 0.78973  0.92767  0.40437  Biso   1.000  H
  H442     1.0000 0.78380  0.22400  0.72190  Biso   1.000  H
  H443     1.0000 0.77600  0.55980  0.72190  Biso   1.000  H
  H444     1.0000 0.44020  0.21620  0.72190  Biso   1.000  H
  H445     1.0000 0.45047  0.55733  0.05523  Biso   1.000  H
  H446     1.0000 0.44267  0.89313  0.05523  Biso   1.000  H
  H447     1.0000 0.10687  0.54953  0.05523  Biso   1.000  H
  H448     1.0000 0.11713  0.89067  0.38857  Biso   1.000  H
  H449     1.0000 0.10933  0.22647  0.38857  Biso   1.000  H
  H450     1.0000 0.77353  0.88287  0.38857  Biso   1.000  H
  N226     1.0000 0.55250  0.09240  0.74870  Biso   1.000  N
  N227     1.0000 0.90760  0.46010  0.74870  Biso   1.000  N
  N228     1.0000 0.53990  0.44750  0.74870  Biso   1.000  N
  N229     1.0000 0.21917  0.42573  0.08203  Biso   1.000  N
  N230     1.0000 0.57427  0.79343  0.08203  Biso   1.000  N
  N231     1.0000 0.20657  0.78083  0.08203  Biso   1.000  N
  N232     1.0000 0.88583  0.75907  0.41537  Biso   1.000  N
  N233     1.0000 0.24093  0.12677  0.41537  Biso   1.000  N
  N234     1.0000 0.87323  0.11417  0.41537  Biso   1.000  N
  H451     1.0000 0.55440  0.10650  0.72690  Biso   1.000  H
  H452     1.0000 0.89350  0.44790  0.72690  Biso   1.000  H
  H453     1.0000 0.55210  0.44560  0.72690  Biso   1.000  H
  H454     1.0000 0.22107  0.43983  0.06023  Biso   1.000  H
  H455     1.0000 0.56017  0.78123  0.06023  Biso   1.000  H
  H456     1.0000 0.21877  0.77893  0.06023  Biso   1.000  H
  H457     1.0000 0.88773  0.77317  0.39357  Biso   1.000  H
  H458     1.0000 0.22683  0.11457  0.39357  Biso   1.000  H
  H459     1.0000 0.88543  0.11227  0.39357  Biso   1.000  H
  H460     1.0000 0.52620  0.07410  0.75350  Biso   1.000  H
  H461     1.0000 0.92590  0.45210  0.75350  Biso   1.000  H
  H462     1.0000 0.54790  0.47380  0.75350  Biso   1.000  H
  H463     1.0000 0.19287  0.40743  0.08683  Biso   1.000  H
  H464     1.0000 0.59257  0.78543  0.08683  Biso   1.000  H
  H465     1.0000 0.21457  0.80713  0.08683  Biso   1.000  H
  H466     1.0000 0.85953  0.74077  0.42017  Biso   1.000  H
  H467     1.0000 0.25923  0.11877  0.42017  Biso   1.000  H
  H468     1.0000 0.88123  0.14047  0.42017  Biso   1.000  H
  H469     1.0000 0.56660  0.07930  0.74540  Biso   1.000  H
  H470     1.0000 0.92070  0.48730  0.74540  Biso   1.000  H
  H471     1.0000 0.51270  0.43340  0.74540  Biso   1.000  H
  H472     1.0000 0.23327  0.41263  0.07873  Biso   1.000  H
  H473     1.0000 0.58737  0.82063  0.07873  Biso   1.000  H
  H474     1.0000 0.17937  0.76673  0.07873  Biso   1.000  H
  H475     1.0000 0.89993  0.74597  0.41207  Biso   1.000  H
  H476     1.0000 0.25403  0.15397  0.41207  Biso   1.000  H
  H477     1.0000 0.84603  0.10007  0.41207  Biso   1.000  H
  C514     1.0000 0.56880  0.11930  0.78030  Biso   1.000  C
  C515     1.0000 0.88070  0.44950  0.78030  Biso   1.000  C
  C516     1.0000 0.55050  0.43120  0.78030  Biso   1.000  C
  C517     1.0000 0.23547  0.45263  0.11363  Biso   1.000  C
  C518     1.0000 0.54737  0.78283  0.11363  Biso   1.000  C
  C519     1.0000 0.21717  0.76453  0.11363  Biso   1.000  C
  C520     1.0000 0.90213  0.78597  0.44697  Biso   1.000  C
  C521     1.0000 0.21403  0.11617  0.44697  Biso   1.000  C
  C522     1.0000 0.88383  0.09787  0.44697  Biso   1.000  C
  H478     1.0000 0.54770  0.11260  0.79970  Biso   1.000  H
  H479     1.0000 0.88740  0.43510  0.79970  Biso   1.000  H
  H480     1.0000 0.56490  0.45230  0.79970  Biso   1.000  H
  H481     1.0000 0.21437  0.44593  0.13303  Biso   1.000  H
  H482     1.0000 0.55407  0.76843  0.13303  Biso   1.000  H
  H483     1.0000 0.23157  0.78563  0.13303  Biso   1.000  H
  H484     1.0000 0.88103  0.77927  0.46637  Biso   1.000  H
  H485     1.0000 0.22073  0.10177  0.46637  Biso   1.000  H
  H486     1.0000 0.89823  0.11897  0.46637  Biso   1.000  H
  H487     1.0000 0.57900  0.14700  0.77130  Biso   1.000  H
  H488     1.0000 0.85300  0.43200  0.77130  Biso   1.000  H
  H489     1.0000 0.56800  0.42100  0.77130  Biso   1.000  H
  H490     1.0000 0.24567  0.48033  0.10463  Biso   1.000  H
  H491     1.0000 0.51967  0.76533  0.10463  Biso   1.000  H
  H492     1.0000 0.23467  0.75433  0.10463  Biso   1.000  H
  H493     1.0000 0.91233  0.81367  0.43797  Biso   1.000  H
  H494     1.0000 0.18633  0.09867  0.43797  Biso   1.000  H
  H495     1.0000 0.90133  0.08767  0.43797  Biso   1.000  H
  H496     1.0000 0.59090  0.11700  0.79180  Biso   1.000  H
  H497     1.0000 0.88300  0.47390  0.79180  Biso   1.000  H
  H498     1.0000 0.52610  0.40910  0.79180  Biso   1.000  H
  H499     1.0000 0.25757  0.45033  0.12513  Biso   1.000  H
  H500     1.0000 0.54967  0.80723  0.12513  Biso   1.000  H
  H501     1.0000 0.19277  0.74243  0.12513  Biso   1.000  H
  H502     1.0000 0.92423  0.78367  0.45847  Biso   1.000  H
  H503     1.0000 0.21633  0.14057  0.45847  Biso   1.000  H
  H504     1.0000 0.85943  0.07577  0.45847  Biso   1.000  H
  N235     1.0000 0.66880  0.25820  0.72610  Biso   1.000  N
  N236     1.0000 0.74180  0.41060  0.72610  Biso   1.000  N
  N237     1.0000 0.58940  0.33120  0.72610  Biso   1.000  N
  N238     1.0000 0.33547  0.59153  0.05943  Biso   1.000  N
  N239     1.0000 0.40847  0.74393  0.05943  Biso   1.000  N
  N240     1.0000 0.25607  0.66453  0.05943  Biso   1.000  N
  N241     1.0000 0.00213  0.92487  0.39277  Biso   1.000  N
  N242     1.0000 0.07513  0.07727  0.39277  Biso   1.000  N
  N243     1.0000 0.92273  0.99787  0.39277  Biso   1.000  N
  H505     1.0000 0.65980  0.27220  0.74030  Biso   1.000  H
  H506     1.0000 0.72780  0.38760  0.74030  Biso   1.000  H
  H507     1.0000 0.61240  0.34020  0.74030  Biso   1.000  H
  H508     1.0000 0.32647  0.60553  0.07363  Biso   1.000  H
  H509     1.0000 0.39447  0.72093  0.07363  Biso   1.000  H
  H510     1.0000 0.27907  0.67353  0.07363  Biso   1.000  H
  H511     1.0000 0.99313  0.93887  0.40697  Biso   1.000  H
  H512     1.0000 0.06113  0.05427  0.40697  Biso   1.000  H
  H513     1.0000 0.94573  0.00687  0.40697  Biso   1.000  H
  H514     1.0000 0.65090  0.24460  0.70690  Biso   1.000  H
  H515     1.0000 0.75540  0.40630  0.70690  Biso   1.000  H
  H516     1.0000 0.59370  0.34910  0.70690  Biso   1.000  H
  H517     1.0000 0.31757  0.57793  0.04023  Biso   1.000  H
  H518     1.0000 0.42207  0.73963  0.04023  Biso   1.000  H
  H519     1.0000 0.26037  0.68243  0.04023  Biso   1.000  H
  H520     1.0000 0.98423  0.91127  0.37357  Biso   1.000  H
  H521     1.0000 0.08873  0.07297  0.37357  Biso   1.000  H
  H522     1.0000 0.92703  0.01577  0.37357  Biso   1.000  H
  H523     1.0000 0.69330  0.27550  0.71590  Biso   1.000  H
  H524     1.0000 0.72450  0.41780  0.71590  Biso   1.000  H
  H525     1.0000 0.58220  0.30670  0.71590  Biso   1.000  H
  H526     1.0000 0.35997  0.60883  0.04923  Biso   1.000  H
  H527     1.0000 0.39117  0.75113  0.04923  Biso   1.000  H
  H528     1.0000 0.24887  0.64003  0.04923  Biso   1.000  H
  H529     1.0000 0.02663  0.94217  0.38257  Biso   1.000  H
  H530     1.0000 0.05783  0.08447  0.38257  Biso   1.000  H
  H531     1.0000 0.91553  0.97337  0.38257  Biso   1.000  H
  C523     1.0000 0.67240  0.22900  0.75220  Biso   1.000  C
  C524     1.0000 0.77100  0.44340  0.75220  Biso   1.000  C
  C525     1.0000 0.55660  0.32760  0.75220  Biso   1.000  C
  C526     1.0000 0.33907  0.56233  0.08553  Biso   1.000  C
  C527     1.0000 0.43767  0.77673  0.08553  Biso   1.000  C
  C528     1.0000 0.22327  0.66093  0.08553  Biso   1.000  C
  C529     1.0000 0.00573  0.89567  0.41887  Biso   1.000  C
  C530     1.0000 0.10433  0.11007  0.41887  Biso   1.000  C
  C531     1.0000 0.88993  0.99427  0.41887  Biso   1.000  C
  H532     1.0000 0.69370  0.24350  0.77100  Biso   1.000  H
  H533     1.0000 0.75650  0.45020  0.77100  Biso   1.000  H
  H534     1.0000 0.54980  0.30630  0.77100  Biso   1.000  H
  H535     1.0000 0.36037  0.57683  0.10433  Biso   1.000  H
  H536     1.0000 0.42317  0.78353  0.10433  Biso   1.000  H
  H537     1.0000 0.21647  0.63963  0.10433  Biso   1.000  H
  H538     1.0000 0.02703  0.91017  0.43767  Biso   1.000  H
  H539     1.0000 0.08983  0.11687  0.43767  Biso   1.000  H
  H540     1.0000 0.88313  0.97297  0.43767  Biso   1.000  H
  H541     1.0000 0.67910  0.21160  0.73630  Biso   1.000  H
  H542     1.0000 0.78840  0.46750  0.73630  Biso   1.000  H
  H543     1.0000 0.53250  0.32090  0.73630  Biso   1.000  H
  H544     1.0000 0.34577  0.54493  0.06963  Biso   1.000  H
  H545     1.0000 0.45507  0.80083  0.06963  Biso   1.000  H
  H546     1.0000 0.19917  0.65423  0.06963  Biso   1.000  H
  H547     1.0000 0.01243  0.87827  0.40297  Biso   1.000  H
  H548     1.0000 0.12173  0.13417  0.40297  Biso   1.000  H
  H549     1.0000 0.86583  0.98757  0.40297  Biso   1.000  H
  H550     1.0000 0.64670  0.21200  0.76520  Biso   1.000  H
  H551     1.0000 0.78800  0.43470  0.76520  Biso   1.000  H
  H552     1.0000 0.56530  0.35330  0.76520  Biso   1.000  H
  H553     1.0000 0.31337  0.54533  0.09853  Biso   1.000  H
  H554     1.0000 0.45467  0.76803  0.09853  Biso   1.000  H
  H555     1.0000 0.23197  0.68663  0.09853  Biso   1.000  H
  H556     1.0000 0.98003  0.87867  0.43187  Biso   1.000  H
  H557     1.0000 0.12133  0.10137  0.43187  Biso   1.000  H
  H558     1.0000 0.89863  0.01997  0.43187  Biso   1.000  H
  N244     1.0000 0.74800  0.19470  0.42420  Biso   1.000  N
  N245     1.0000 0.80530  0.55330  0.42420  Biso   1.000  N
  N246     1.0000 0.44670  0.25200  0.42420  Biso   1.000  N
  N247     1.0000 0.41467  0.52803  0.75753  Biso   1.000  N
  N248     1.0000 0.47197  0.88663  0.75753  Biso   1.000  N
  N249     1.0000 0.11337  0.58533  0.75753  Biso   1.000  N
  N250     1.0000 0.08133  0.86137  0.09087  Biso   1.000  N
  N251     1.0000 0.13863  0.21997  0.09087  Biso   1.000  N
  N252     1.0000 0.78003  0.91867  0.09087  Biso   1.000  N
  H559     1.0000 0.74090  0.17090  0.43650  Biso   1.000  H
  H560     1.0000 0.82910  0.57000  0.43650  Biso   1.000  H
  H561     1.0000 0.43000  0.25910  0.43650  Biso   1.000  H
  H562     1.0000 0.40757  0.50423  0.76983  Biso   1.000  H
  H563     1.0000 0.49577  0.90333  0.76983  Biso   1.000  H
  H564     1.0000 0.09667  0.59243  0.76983  Biso   1.000  H
  H565     1.0000 0.07423  0.83757  0.10317  Biso   1.000  H
  H566     1.0000 0.16243  0.23667  0.10317  Biso   1.000  H
  H567     1.0000 0.76333  0.92577  0.10317  Biso   1.000  H
  H568     1.0000 0.74230  0.19150  0.39970  Biso   1.000  H
  H569     1.0000 0.80850  0.55080  0.39970  Biso   1.000  H
  H570     1.0000 0.44920  0.25770  0.39970  Biso   1.000  H
  H571     1.0000 0.40897  0.52483  0.73303  Biso   1.000  H
  H572     1.0000 0.47517  0.88413  0.73303  Biso   1.000  H
  H573     1.0000 0.11587  0.59103  0.73303  Biso   1.000  H
  H574     1.0000 0.07563  0.85817  0.06637  Biso   1.000  H
  H575     1.0000 0.14183  0.21747  0.06637  Biso   1.000  H
  H576     1.0000 0.78253  0.92437  0.06637  Biso   1.000  H
  H577     1.0000 0.73750  0.20790  0.43700  Biso   1.000  H
  H578     1.0000 0.79210  0.52960  0.43700  Biso   1.000  H
  H579     1.0000 0.47040  0.26250  0.43700  Biso   1.000  H
  H580     1.0000 0.40417  0.54123  0.77033  Biso   1.000  H
  H581     1.0000 0.45877  0.86293  0.77033  Biso   1.000  H
  H582     1.0000 0.13707  0.59583  0.77033  Biso   1.000  H
  H583     1.0000 0.07083  0.87457  0.10367  Biso   1.000  H
  H584     1.0000 0.12543  0.19627  0.10367  Biso   1.000  H
  H585     1.0000 0.80373  0.92917  0.10367  Biso   1.000  H
  C532     1.0000 0.79390  0.21990  0.42850  Biso   1.000  C
  C533     1.0000 0.78010  0.57400  0.42850  Biso   1.000  C
  C534     1.0000 0.42600  0.20610  0.42850  Biso   1.000  C
  C535     1.0000 0.46057  0.55323  0.76183  Biso   1.000  C
  C536     1.0000 0.44677  0.90733  0.76183  Biso   1.000  C
  C537     1.0000 0.09267  0.53943  0.76183  Biso   1.000  C
  C538     1.0000 0.12723  0.88657  0.09517  Biso   1.000  C
  C539     1.0000 0.11343  0.24067  0.09517  Biso   1.000  C
  C540     1.0000 0.75933  0.87277  0.09517  Biso   1.000  C
  H586     1.0000 0.80400  0.24980  0.42450  Biso   1.000  H
  H587     1.0000 0.75020  0.55420  0.42450  Biso   1.000  H
  H588     1.0000 0.44580  0.19600  0.42450  Biso   1.000  H
  H589     1.0000 0.47067  0.58313  0.75783  Biso   1.000  H
  H590     1.0000 0.41687  0.88753  0.75783  Biso   1.000  H
  H591     1.0000 0.11247  0.52933  0.75783  Biso   1.000  H
  H592     1.0000 0.13733  0.91647  0.09117  Biso   1.000  H
  H593     1.0000 0.08353  0.22087  0.09117  Biso   1.000  H
  H594     1.0000 0.77913  0.86267  0.09117  Biso   1.000  H
  H595     1.0000 0.80880  0.21290  0.40970  Biso   1.000  H
  H596     1.0000 0.78710  0.59590  0.40970  Biso   1.000  H
  H597     1.0000 0.40410  0.19120  0.40970  Biso   1.000  H
  H598     1.0000 0.47547  0.54623  0.74303  Biso   1.000  H
  H599     1.0000 0.45377  0.92923  0.74303  Biso   1.000  H
  H600     1.0000 0.07077  0.52453  0.74303  Biso   1.000  H
  H601     1.0000 0.14213  0.87957  0.07637  Biso   1.000  H
  H602     1.0000 0.12043  0.26257  0.07637  Biso   1.000  H
  H603     1.0000 0.73743  0.85787  0.07637  Biso   1.000  H
  H604     1.0000 0.80390  0.21820  0.45480  Biso   1.000  H
  H605     1.0000 0.78180  0.58570  0.45480  Biso   1.000  H
  H606     1.0000 0.41430  0.19610  0.45480  Biso   1.000  H
  H607     1.0000 0.47057  0.55153  0.78813  Biso   1.000  H
  H608     1.0000 0.44847  0.91903  0.78813  Biso   1.000  H
  H609     1.0000 0.08097  0.52943  0.78813  Biso   1.000  H
  H610     1.0000 0.13723  0.88487  0.12147  Biso   1.000  H
  H611     1.0000 0.11513  0.25237  0.12147  Biso   1.000  H
  H612     1.0000 0.74763  0.86277  0.12147  Biso   1.000  H
  O262     1.0000 0.47790  0.14400  0.76300  Biso   1.000  O
  O263     1.0000 0.85600  0.33390  0.76300  Biso   1.000  O
  O264     1.0000 0.66610  0.52210  0.76300  Biso   1.000  O
  O265     1.0000 0.14457  0.47733  0.09633  Biso   1.000  O
  O266     1.0000 0.52267  0.66723  0.09633  Biso   1.000  O
  O267     1.0000 0.33277  0.85543  0.09633  Biso   1.000  O
  O268     1.0000 0.81123  0.81067  0.42967  Biso   1.000  O
  O269     1.0000 0.18933  0.00057  0.42967  Biso   1.000  O
  O270     1.0000 0.99943  0.18877  0.42967  Biso   1.000  O
  O271     1.0000 0.41120  0.14320  0.49140  Biso   1.000  O
  O272     1.0000 0.85680  0.26800  0.49140  Biso   1.000  O
  O273     1.0000 0.73200  0.58880  0.49140  Biso   1.000  O
  O274     1.0000 0.07787  0.47653  0.82473  Biso   1.000  O
  O275     1.0000 0.52347  0.60133  0.82473  Biso   1.000  O
  O276     1.0000 0.39867  0.92213  0.82473  Biso   1.000  O
  O277     1.0000 0.74453  0.80987  0.15807  Biso   1.000  O
  O278     1.0000 0.19013  0.93467  0.15807  Biso   1.000  O
  O279     1.0000 0.06533  0.25547  0.15807  Biso   1.000  O
  O280     1.0000 0.52740  0.18820  0.82460  Biso   1.000  O
  O281     1.0000 0.81180  0.33920  0.82460  Biso   1.000  O
  O282     1.0000 0.66080  0.47260  0.82460  Biso   1.000  O
  O283     1.0000 0.19407  0.52153  0.15793  Biso   1.000  O
  O284     1.0000 0.47847  0.67253  0.15793  Biso   1.000  O
  O285     1.0000 0.32747  0.80593  0.15793  Biso   1.000  O
  O286     1.0000 0.86073  0.85487  0.49127  Biso   1.000  O
  O287     1.0000 0.14513  0.00587  0.49127  Biso   1.000  O
  O288     1.0000 0.99413  0.13927  0.49127  Biso   1.000  O
  O289     1.0000 0.33260  0.99180  0.64900  Biso   1.000  O
  O290     1.0000 0.00820  0.34080  0.64900  Biso   1.000  O
  O291     1.0000 0.65920  0.66740  0.64900  Biso   1.000  O
  O292     1.0000 0.99927  0.32513  0.98233  Biso   1.000  O
  O293     1.0000 0.67487  0.67413  0.98233  Biso   1.000  O
  O294     1.0000 0.32587  0.00073  0.98233  Biso   1.000  O
  O295     1.0000 0.66593  0.65847  0.31567  Biso   1.000  O
  O296     1.0000 0.34153  0.00747  0.31567  Biso   1.000  O
  O297     1.0000 0.99253  0.33407  0.31567  Biso   1.000  O
  O298     1.0000 0.66780  0.99420  0.76280  Biso   1.000  O
  O299     1.0000 0.00580  0.67360  0.76280  Biso   1.000  O
  O300     1.0000 0.32640  0.33220  0.76280  Biso   1.000  O
  O301     1.0000 0.33447  0.32753  0.09613  Biso   1.000  O
  O302     1.0000 0.67247  0.00693  0.09613  Biso   1.000  O
  O303     1.0000 0.99307  0.66553  0.09613  Biso   1.000  O
  O304     1.0000 0.00113  0.66087  0.42947  Biso   1.000  O
  O305     1.0000 0.33913  0.34027  0.42947  Biso   1.000  O
  O306     1.0000 0.65973  0.99887  0.42947  Biso   1.000  O
  O307     1.0000 0.38920  0.09650  0.03470  Biso   1.000  O
  O308     1.0000 0.90350  0.29270  0.03470  Biso   1.000  O
  O309     1.0000 0.70730  0.61080  0.03470  Biso   1.000  O
  O310     1.0000 0.05587  0.42983  0.36803  Biso   1.000  O
  O311     1.0000 0.57017  0.62603  0.36803  Biso   1.000  O
  O312     1.0000 0.37397  0.94413  0.36803  Biso   1.000  O
  O313     1.0000 0.72253  0.76317  0.70137  Biso   1.000  O
  O314     1.0000 0.23683  0.95937  0.70137  Biso   1.000  O
  O315     1.0000 0.04063  0.27747  0.70137  Biso   1.000  O
  O316     1.0000 0.57740  0.16310  0.86970  Biso   1.000  O
  O317     1.0000 0.83690  0.41430  0.86970  Biso   1.000  O
  O318     1.0000 0.58570  0.42260  0.86970  Biso   1.000  O
  O319     1.0000 0.24407  0.49643  0.20303  Biso   1.000  O
  O320     1.0000 0.50357  0.74763  0.20303  Biso   1.000  O
  O321     1.0000 0.25237  0.75593  0.20303  Biso   1.000  O
  O322     1.0000 0.91073  0.82977  0.53637  Biso   1.000  O
  O323     1.0000 0.17023  0.08097  0.53637  Biso   1.000  O
  O324     1.0000 0.91903  0.08927  0.53637  Biso   1.000  O
  O325     1.0000 0.72660  0.27380  0.58690  Biso   1.000  O
  O326     1.0000 0.72620  0.45280  0.58690  Biso   1.000  O
  O327     1.0000 0.54720  0.27340  0.58690  Biso   1.000  O
  O328     1.0000 0.39327  0.60713  0.92023  Biso   1.000  O
  O329     1.0000 0.39287  0.78613  0.92023  Biso   1.000  O
  O330     1.0000 0.21387  0.60673  0.92023  Biso   1.000  O
  O331     1.0000 0.05993  0.94047  0.25357  Biso   1.000  O
  O332     1.0000 0.05953  0.11947  0.25357  Biso   1.000  O
  O333     1.0000 0.88053  0.94007  0.25357  Biso   1.000  O
  O334     1.0000 0.75440  0.24920  0.65380  Biso   1.000  O
  O335     1.0000 0.75080  0.50520  0.65380  Biso   1.000  O
  O336     1.0000 0.49480  0.24560  0.65380  Biso   1.000  O
  O337     1.0000 0.42107  0.58253  0.98713  Biso   1.000  O
  O338     1.0000 0.41747  0.83853  0.98713  Biso   1.000  O
  O339     1.0000 0.16147  0.57893  0.98713  Biso   1.000  O
  O340     1.0000 0.08773  0.91587  0.32047  Biso   1.000  O
  O341     1.0000 0.08413  0.17187  0.32047  Biso   1.000  O
  O342     1.0000 0.82813  0.91227  0.32047  Biso   1.000  O
  O343     1.0000 0.52190  0.19340  0.69930  Biso   1.000  O
  O344     1.0000 0.80660  0.32850  0.69930  Biso   1.000  O
  O345     1.0000 0.67150  0.47810  0.69930  Biso   1.000  O
  O346     1.0000 0.18857  0.52673  0.03263  Biso   1.000  O
  O347     1.0000 0.47327  0.66183  0.03263  Biso   1.000  O
  O348     1.0000 0.33817  0.81143  0.03263  Biso   1.000  O
  O349     1.0000 0.85523  0.86007  0.36597  Biso   1.000  O
  O350     1.0000 0.13993  0.99517  0.36597  Biso   1.000  O
  O351     1.0000 0.00483  0.14477  0.36597  Biso   1.000  O
  O352     1.0000 0.35360  0.06090  0.92960  Biso   1.000  O
  O353     1.0000 0.93910  0.29270  0.92960  Biso   1.000  O
  O354     1.0000 0.70730  0.64640  0.92960  Biso   1.000  O
  O355     1.0000 0.02027  0.39423  0.26293  Biso   1.000  O
  O356     1.0000 0.60577  0.62603  0.26293  Biso   1.000  O
  O357     1.0000 0.37397  0.97973  0.26293  Biso   1.000  O
  O358     1.0000 0.68693  0.72757  0.59627  Biso   1.000  O
  O359     1.0000 0.27243  0.95937  0.59627  Biso   1.000  O
  O360     1.0000 0.04063  0.31307  0.59627  Biso   1.000  O
  O361     1.0000 0.32500  0.99810  0.87370  Biso   1.000  O
  O362     1.0000 0.00190  0.32690  0.87370  Biso   1.000  O
  O363     1.0000 0.67310  0.67500  0.87370  Biso   1.000  O
  O364     1.0000 0.99167  0.33143  0.20703  Biso   1.000  O
  O365     1.0000 0.66857  0.66023  0.20703  Biso   1.000  O
  O366     1.0000 0.33977  0.00833  0.20703  Biso   1.000  O
  O367     1.0000 0.65833  0.66477  0.54037  Biso   1.000  O
  O368     1.0000 0.33523  0.99357  0.54037  Biso   1.000  O
  O369     1.0000 0.00643  0.34167  0.54037  Biso   1.000  O
  O370     1.0000 0.67710  0.19330  0.68580  Biso   1.000  O
  O371     1.0000 0.80670  0.48380  0.68580  Biso   1.000  O
  O372     1.0000 0.51620  0.32290  0.68580  Biso   1.000  O
  O373     1.0000 0.34377  0.52663  0.01913  Biso   1.000  O
  O374     1.0000 0.47337  0.81713  0.01913  Biso   1.000  O
  O375     1.0000 0.18287  0.65623  0.01913  Biso   1.000  O
  O376     1.0000 0.01043  0.85997  0.35247  Biso   1.000  O
  O377     1.0000 0.14003  0.15047  0.35247  Biso   1.000  O
  O378     1.0000 0.84953  0.98957  0.35247  Biso   1.000  O
  O379     1.0000 0.29250  0.90180  0.82190  Biso   1.000  O
  O380     1.0000 0.09820  0.39070  0.82190  Biso   1.000  O
  O381     1.0000 0.60930  0.70750  0.82190  Biso   1.000  O
  O382     1.0000 0.95917  0.23513  0.15523  Biso   1.000  O
  O383     1.0000 0.76487  0.72403  0.15523  Biso   1.000  O
  O384     1.0000 0.27597  0.04083  0.15523  Biso   1.000  O
  O385     1.0000 0.62583  0.56847  0.48857  Biso   1.000  O
  O386     1.0000 0.43153  0.05737  0.48857  Biso   1.000  O
  O387     1.0000 0.94263  0.37417  0.48857  Biso   1.000  O
  O388     1.0000 0.29200  0.93810  0.92850  Biso   1.000  O
  O389     1.0000 0.06190  0.35390  0.92850  Biso   1.000  O
  O390     1.0000 0.64610  0.70800  0.92850  Biso   1.000  O
  O391     1.0000 0.95867  0.27143  0.26183  Biso   1.000  O
  O392     1.0000 0.72857  0.68723  0.26183  Biso   1.000  O
  O393     1.0000 0.31277  0.04133  0.26183  Biso   1.000  O
  O394     1.0000 0.62533  0.60477  0.59517  Biso   1.000  O
  O395     1.0000 0.39523  0.02057  0.59517  Biso   1.000  O
  O396     1.0000 0.97943  0.37467  0.59517  Biso   1.000  O
  O397     1.0000 0.67060  0.90120  0.60240  Biso   1.000  O
  O398     1.0000 0.09880  0.76940  0.60240  Biso   1.000  O
  O399     1.0000 0.23060  0.32940  0.60240  Biso   1.000  O
  O400     1.0000 0.33727  0.23453  0.93573  Biso   1.000  O
  O401     1.0000 0.76547  0.10273  0.93573  Biso   1.000  O
  O402     1.0000 0.89727  0.66273  0.93573  Biso   1.000  O
  O403     1.0000 0.00393  0.56787  0.26907  Biso   1.000  O
  O404     1.0000 0.43213  0.43607  0.26907  Biso   1.000  O
  O405     1.0000 0.56393  0.99607  0.26907  Biso   1.000  O
  O406     1.0000 0.32490  0.93110  0.69810  Biso   1.000  O
  O407     1.0000 0.06890  0.39380  0.69810  Biso   1.000  O
  O408     1.0000 0.60620  0.67510  0.69810  Biso   1.000  O
  O409     1.0000 0.99157  0.26443  0.03143  Biso   1.000  O
  O410     1.0000 0.73557  0.72713  0.03143  Biso   1.000  O
  O411     1.0000 0.27287  0.00843  0.03143  Biso   1.000  O
  O412     1.0000 0.65823  0.59777  0.36477  Biso   1.000  O
  O413     1.0000 0.40223  0.06047  0.36477  Biso   1.000  O
  O414     1.0000 0.93953  0.34177  0.36477  Biso   1.000  O
  O415     1.0000 0.26080  0.99110  0.82800  Biso   1.000  O
  O416     1.0000 0.00890  0.26970  0.82800  Biso   1.000  O
  O417     1.0000 0.73030  0.73920  0.82800  Biso   1.000  O
  O418     1.0000 0.92747  0.32443  0.16133  Biso   1.000  O
  O419     1.0000 0.67557  0.60303  0.16133  Biso   1.000  O
  O420     1.0000 0.39697  0.07253  0.16133  Biso   1.000  O
  O421     1.0000 0.59413  0.65777  0.49467  Biso   1.000  O
  O422     1.0000 0.34223  0.93637  0.49467  Biso   1.000  O
  O423     1.0000 0.06363  0.40587  0.49467  Biso   1.000  O
  O424     1.0000 0.55820  0.18970  0.00530  Biso   1.000  O
  O425     1.0000 0.81030  0.36850  0.00530  Biso   1.000  O
  O426     1.0000 0.63150  0.44180  0.00530  Biso   1.000  O
  O427     1.0000 0.22487  0.52303  0.33863  Biso   1.000  O
  O428     1.0000 0.47697  0.70183  0.33863  Biso   1.000  O
  O429     1.0000 0.29817  0.77513  0.33863  Biso   1.000  O
  O430     1.0000 0.89153  0.85637  0.67197  Biso   1.000  O
  O431     1.0000 0.14363  0.03517  0.67197  Biso   1.000  O
  O432     1.0000 0.96483  0.10847  0.67197  Biso   1.000  O
  O433     1.0000 0.43430  0.97800  0.58790  Biso   1.000  O
  O434     1.0000 0.02200  0.45630  0.58790  Biso   1.000  O
  O435     1.0000 0.54370  0.56570  0.58790  Biso   1.000  O
  O436     1.0000 0.10097  0.31133  0.92123  Biso   1.000  O
  O437     1.0000 0.68867  0.78963  0.92123  Biso   1.000  O
  O438     1.0000 0.21037  0.89903  0.92123  Biso   1.000  O
  O439     1.0000 0.76763  0.64467  0.25457  Biso   1.000  O
  O440     1.0000 0.35533  0.12297  0.25457  Biso   1.000  O
  O441     1.0000 0.87703  0.23237  0.25457  Biso   1.000  O
  O442     1.0000 0.60530  0.21210  0.93680  Biso   1.000  O
  O443     1.0000 0.78790  0.39320  0.93680  Biso   1.000  O
  O444     1.0000 0.60680  0.39470  0.93680  Biso   1.000  O
  O445     1.0000 0.27197  0.54543  0.27013  Biso   1.000  O
  O446     1.0000 0.45457  0.72653  0.27013  Biso   1.000  O
  O447     1.0000 0.27347  0.72803  0.27013  Biso   1.000  O
  O448     1.0000 0.93863  0.87877  0.60347  Biso   1.000  O
  O449     1.0000 0.12123  0.05987  0.60347  Biso   1.000  O
  O450     1.0000 0.94013  0.06137  0.60347  Biso   1.000  O
  O451     1.0000 0.29940  0.00640  0.75460  Biso   1.000  O
  O452     1.0000 0.99360  0.29300  0.75460  Biso   1.000  O
  O453     1.0000 0.70700  0.70060  0.75460  Biso   1.000  O
  O454     1.0000 0.96607  0.33973  0.08793  Biso   1.000  O
  O455     1.0000 0.66027  0.62633  0.08793  Biso   1.000  O
  O456     1.0000 0.37367  0.03393  0.08793  Biso   1.000  O
  O457     1.0000 0.63273  0.67307  0.42127  Biso   1.000  O
  O458     1.0000 0.32693  0.95967  0.42127  Biso   1.000  O
  O459     1.0000 0.04033  0.36727  0.42127  Biso   1.000  O
  O460     1.0000 0.30810  0.09980  0.93720  Biso   1.000  O
  O461     1.0000 0.90020  0.20830  0.93720  Biso   1.000  O
  O462     1.0000 0.79170  0.69190  0.93720  Biso   1.000  O
  O463     1.0000 0.97477  0.43313  0.27053  Biso   1.000  O
  O464     1.0000 0.56687  0.54163  0.27053  Biso   1.000  O
  O465     1.0000 0.45837  0.02523  0.27053  Biso   1.000  O
  O466     1.0000 0.64143  0.76647  0.60387  Biso   1.000  O
  O467     1.0000 0.23353  0.87497  0.60387  Biso   1.000  O
  O468     1.0000 0.12503  0.35857  0.60387  Biso   1.000  O
  O469     1.0000 0.73830  0.34330  0.62490  Biso   1.000  O
  O470     1.0000 0.65670  0.39500  0.62490  Biso   1.000  O
  O471     1.0000 0.60500  0.26170  0.62490  Biso   1.000  O
  O472     1.0000 0.40497  0.67663  0.95823  Biso   1.000  O
  O473     1.0000 0.32337  0.72833  0.95823  Biso   1.000  O
  O474     1.0000 0.27167  0.59503  0.95823  Biso   1.000  O
  O475     1.0000 0.07163  0.00997  0.29157  Biso   1.000  O
  O476     1.0000 0.99003  0.06167  0.29157  Biso   1.000  O
  O477     1.0000 0.93833  0.92837  0.29157  Biso   1.000  O
  O478     1.0000 0.33970  0.96470  0.76960  Biso   1.000  O
  O479     1.0000 0.03530  0.37500  0.76960  Biso   1.000  O
  O480     1.0000 0.62500  0.66030  0.76960  Biso   1.000  O
  O481     1.0000 0.00637  0.29803  0.10293  Biso   1.000  O
  O482     1.0000 0.70197  0.70833  0.10293  Biso   1.000  O
  O483     1.0000 0.29167  0.99363  0.10293  Biso   1.000  O
  O484     1.0000 0.67303  0.63137  0.43627  Biso   1.000  O
  O485     1.0000 0.36863  0.04167  0.43627  Biso   1.000  O
  O486     1.0000 0.95833  0.32697  0.43627  Biso   1.000  O
  O487     1.0000 0.61670  0.16710  0.63910  Biso   1.000  O
  O488     1.0000 0.83290  0.44960  0.63910  Biso   1.000  O
  O489     1.0000 0.55040  0.38330  0.63910  Biso   1.000  O
  O490     1.0000 0.28337  0.50043  0.97243  Biso   1.000  O
  O491     1.0000 0.49957  0.78293  0.97243  Biso   1.000  O
  O492     1.0000 0.21707  0.71663  0.97243  Biso   1.000  O
  O493     1.0000 0.95003  0.83377  0.30577  Biso   1.000  O
  O494     1.0000 0.16623  0.11627  0.30577  Biso   1.000  O
  O495     1.0000 0.88373  0.04997  0.30577  Biso   1.000  O
  O496     1.0000 0.47040  0.21750  0.84180  Biso   1.000  O
  O497     1.0000 0.78250  0.25290  0.84180  Biso   1.000  O
  O498     1.0000 0.74710  0.52960  0.84180  Biso   1.000  O
  O499     1.0000 0.13707  0.55083  0.17513  Biso   1.000  O
  O500     1.0000 0.44917  0.58623  0.17513  Biso   1.000  O
  O501     1.0000 0.41377  0.86293  0.17513  Biso   1.000  O
  O502     1.0000 0.80373  0.88417  0.50847  Biso   1.000  O
  O503     1.0000 0.11583  0.91957  0.50847  Biso   1.000  O
  O504     1.0000 0.08043  0.19627  0.50847  Biso   1.000  O
  O505     1.0000 0.54970  0.13550  0.68340  Biso   1.000  O
  O506     1.0000 0.86450  0.41420  0.68340  Biso   1.000  O
  O507     1.0000 0.58580  0.45030  0.68340  Biso   1.000  O
  O508     1.0000 0.21637  0.46883  0.01673  Biso   1.000  O
  O509     1.0000 0.53117  0.74753  0.01673  Biso   1.000  O
  O510     1.0000 0.25247  0.78363  0.01673  Biso   1.000  O
  O511     1.0000 0.88303  0.80217  0.35007  Biso   1.000  O
  O512     1.0000 0.19783  0.08087  0.35007  Biso   1.000  O
  O513     1.0000 0.91913  0.11697  0.35007  Biso   1.000  O
  O514     1.0000 0.66370  0.25640  0.80160  Biso   1.000  O
  O515     1.0000 0.74360  0.40730  0.80160  Biso   1.000  O
  O516     1.0000 0.59270  0.33630  0.80160  Biso   1.000  O
  O517     1.0000 0.33037  0.58973  0.13493  Biso   1.000  O
  O518     1.0000 0.41027  0.74063  0.13493  Biso   1.000  O
  O519     1.0000 0.25937  0.66963  0.13493  Biso   1.000  O
  O520     1.0000 0.99703  0.92307  0.46827  Biso   1.000  O
  O521     1.0000 0.07693  0.07397  0.46827  Biso   1.000  O
  O522     1.0000 0.92603  0.00297  0.46827  Biso   1.000  O
  O523     1.0000 0.59600  0.26640  0.82490  Biso   1.000  O
  O524     1.0000 0.73360  0.32960  0.82490  Biso   1.000  O
  O525     1.0000 0.67040  0.40400  0.82490  Biso   1.000  O
  O526     1.0000 0.26267  0.59973  0.15823  Biso   1.000  O
  O527     1.0000 0.40027  0.66293  0.15823  Biso   1.000  O
  O528     1.0000 0.33707  0.73733  0.15823  Biso   1.000  O
  O529     1.0000 0.92933  0.93307  0.49157  Biso   1.000  O
  O530     1.0000 0.06693  0.99627  0.49157  Biso   1.000  O
  O531     1.0000 0.00373  0.07067  0.49157  Biso   1.000  O
  O532     1.0000 0.56820  0.00430  0.58700  Biso   1.000  O
  O533     1.0000 0.99570  0.56390  0.58700  Biso   1.000  O
  O534     1.0000 0.43610  0.43180  0.58700  Biso   1.000  O
  O535     1.0000 0.23487  0.33763  0.92033  Biso   1.000  O
  O536     1.0000 0.66237  0.89723  0.92033  Biso   1.000  O
  O537     1.0000 0.10277  0.76513  0.92033  Biso   1.000  O
  O538     1.0000 0.90153  0.67097  0.25367  Biso   1.000  O
  O539     1.0000 0.32903  0.23057  0.25367  Biso   1.000  O
  O540     1.0000 0.76943  0.09847  0.25367  Biso   1.000  O
  O541     1.0000 0.73740  0.33700  0.70380  Biso   1.000  O
  O542     1.0000 0.66300  0.40040  0.70380  Biso   1.000  O
  O543     1.0000 0.59960  0.26260  0.70380  Biso   1.000  O
  O544     1.0000 0.40407  0.67033  0.03713  Biso   1.000  O
  O545     1.0000 0.32967  0.73373  0.03713  Biso   1.000  O
  O546     1.0000 0.26627  0.59593  0.03713  Biso   1.000  O
  O547     1.0000 0.07073  0.00367  0.37047  Biso   1.000  O
  O548     1.0000 0.99633  0.06707  0.37047  Biso   1.000  O
  O549     1.0000 0.93293  0.92927  0.37047  Biso   1.000  O
  O550     1.0000 0.59550  0.27150  0.90310  Biso   1.000  O
  O551     1.0000 0.72850  0.32400  0.90310  Biso   1.000  O
  O552     1.0000 0.67600  0.40450  0.90310  Biso   1.000  O
  O553     1.0000 0.26217  0.60483  0.23643  Biso   1.000  O
  O554     1.0000 0.39517  0.65733  0.23643  Biso   1.000  O
  O555     1.0000 0.34267  0.73783  0.23643  Biso   1.000  O
  O556     1.0000 0.92883  0.93817  0.56977  Biso   1.000  O
  O557     1.0000 0.06183  0.99067  0.56977  Biso   1.000  O
  O558     1.0000 0.00933  0.07117  0.56977  Biso   1.000  O
  O559     1.0000 0.65780  0.18250  0.83190  Biso   1.000  O
  O560     1.0000 0.81750  0.47530  0.83190  Biso   1.000  O
  O561     1.0000 0.52470  0.34220  0.83190  Biso   1.000  O
  O562     1.0000 0.32447  0.51583  0.16523  Biso   1.000  O
  O563     1.0000 0.48417  0.80863  0.16523  Biso   1.000  O
  O564     1.0000 0.19137  0.67553  0.16523  Biso   1.000  O
  O565     1.0000 0.99113  0.84917  0.49857  Biso   1.000  O
  O566     1.0000 0.15083  0.14197  0.49857  Biso   1.000  O
  O567     1.0000 0.85803  0.00887  0.49857  Biso   1.000  O
  O568     1.0000 0.52510  0.22900  0.52730  Biso   1.000  O
  O569     1.0000 0.77100  0.29610  0.52730  Biso   1.000  O
  O570     1.0000 0.70390  0.47490  0.52730  Biso   1.000  O
  O571     1.0000 0.19177  0.56233  0.86063  Biso   1.000  O
  O572     1.0000 0.43767  0.62943  0.86063  Biso   1.000  O
  O573     1.0000 0.37057  0.80823  0.86063  Biso   1.000  O
  O574     1.0000 0.85843  0.89567  0.19397  Biso   1.000  O
  O575     1.0000 0.10433  0.96277  0.19397  Biso   1.000  O
  O576     1.0000 0.03723  0.14157  0.19397  Biso   1.000  O
  O577     1.0000 0.49730  0.28610  0.88280  Biso   1.000  O
  O578     1.0000 0.71390  0.21120  0.88280  Biso   1.000  O
  O579     1.0000 0.78880  0.50270  0.88280  Biso   1.000  O
  O580     1.0000 0.16397  0.61943  0.21613  Biso   1.000  O
  O581     1.0000 0.38057  0.54453  0.21613  Biso   1.000  O
  O582     1.0000 0.45547  0.83603  0.21613  Biso   1.000  O
  O583     1.0000 0.83063  0.95277  0.54947  Biso   1.000  O
  O584     1.0000 0.04723  0.87787  0.54947  Biso   1.000  O
  O585     1.0000 0.12213  0.16937  0.54947  Biso   1.000  O
  O586     1.0000 0.28540  0.15120  0.91370  Biso   1.000  O
  O587     1.0000 0.84880  0.13420  0.91370  Biso   1.000  O
  O588     1.0000 0.86580  0.71460  0.91370  Biso   1.000  O
  O589     1.0000 0.95207  0.48453  0.24703  Biso   1.000  O
  O590     1.0000 0.51547  0.46753  0.24703  Biso   1.000  O
  O591     1.0000 0.53247  0.04793  0.24703  Biso   1.000  O
  O592     1.0000 0.61873  0.81787  0.58037  Biso   1.000  O
  O593     1.0000 0.18213  0.80087  0.58037  Biso   1.000  O
  O594     1.0000 0.19913  0.38127  0.58037  Biso   1.000  O
  O595     1.0000 0.56000  0.30950  0.93900  Biso   1.000  O
  O596     1.0000 0.69050  0.25050  0.93900  Biso   1.000  O
  O597     1.0000 0.74950  0.44000  0.93900  Biso   1.000  O
  O598     1.0000 0.22667  0.64283  0.27233  Biso   1.000  O
  O599     1.0000 0.35717  0.58383  0.27233  Biso   1.000  O
  O600     1.0000 0.41617  0.77333  0.27233  Biso   1.000  O
  O601     1.0000 0.89333  0.97617  0.60567  Biso   1.000  O
  O602     1.0000 0.02383  0.91717  0.60567  Biso   1.000  O
  O603     1.0000 0.08283  0.10667  0.60567  Biso   1.000  O
  O604     1.0000 0.48490  0.95250  0.61120  Biso   1.000  O
  O605     1.0000 0.04750  0.53240  0.61120  Biso   1.000  O
  O606     1.0000 0.46760  0.51510  0.61120  Biso   1.000  O
  O607     1.0000 0.15157  0.28583  0.94453  Biso   1.000  O
  O608     1.0000 0.71417  0.86573  0.94453  Biso   1.000  O
  O609     1.0000 0.13427  0.84843  0.94453  Biso   1.000  O
  O610     1.0000 0.81823  0.61917  0.27787  Biso   1.000  O
  O611     1.0000 0.38083  0.19907  0.27787  Biso   1.000  O
  O612     1.0000 0.80093  0.18177  0.27787  Biso   1.000  O
  O613     1.0000 0.22650  0.90680  0.83570  Biso   1.000  O
  O614     1.0000 0.09320  0.31970  0.83570  Biso   1.000  O
  O615     1.0000 0.68030  0.77350  0.83570  Biso   1.000  O
  O616     1.0000 0.89317  0.24013  0.16903  Biso   1.000  O
  O617     1.0000 0.75987  0.65303  0.16903  Biso   1.000  O
  O618     1.0000 0.34697  0.10683  0.16903  Biso   1.000  O
  O619     1.0000 0.55983  0.57347  0.50237  Biso   1.000  O
  O620     1.0000 0.42653  0.98637  0.50237  Biso   1.000  O
  O621     1.0000 0.01363  0.44017  0.50237  Biso   1.000  O
  O622     1.0000 0.64420  0.22400  0.58430  Biso   1.000  O
  O623     1.0000 0.77600  0.42020  0.58430  Biso   1.000  O
  O624     1.0000 0.57980  0.35580  0.58430  Biso   1.000  O
  O625     1.0000 0.31087  0.55733  0.91763  Biso   1.000  O
  O626     1.0000 0.44267  0.75353  0.91763  Biso   1.000  O
  O627     1.0000 0.24647  0.68913  0.91763  Biso   1.000  O
  O628     1.0000 0.97753  0.89067  0.25097  Biso   1.000  O
  O629     1.0000 0.10933  0.08687  0.25097  Biso   1.000  O
  O630     1.0000 0.91313  0.02247  0.25097  Biso   1.000  O
  O631     1.0000 0.31250  0.08040  0.01650  Biso   1.000  O
  O632     1.0000 0.91960  0.23210  0.01650  Biso   1.000  O
  O633     1.0000 0.76790  0.68750  0.01650  Biso   1.000  O
  O634     1.0000 0.97917  0.41373  0.34983  Biso   1.000  O
  O635     1.0000 0.58627  0.56543  0.34983  Biso   1.000  O
  O636     1.0000 0.43457  0.02083  0.34983  Biso   1.000  O
  O637     1.0000 0.64583  0.74707  0.68317  Biso   1.000  O
  O638     1.0000 0.25293  0.89877  0.68317  Biso   1.000  O
  O639     1.0000 0.10123  0.35417  0.68317  Biso   1.000  O
  O640     1.0000 0.66280  0.12730  0.72490  Biso   1.000  O
  O641     1.0000 0.87270  0.53550  0.72490  Biso   1.000  O
  O642     1.0000 0.46450  0.33720  0.72490  Biso   1.000  O
  O643     1.0000 0.32947  0.46063  0.05823  Biso   1.000  O
  O644     1.0000 0.53937  0.86883  0.05823  Biso   1.000  O
  O645     1.0000 0.13117  0.67053  0.05823  Biso   1.000  O
  O646     1.0000 0.99613  0.79397  0.39157  Biso   1.000  O
  O647     1.0000 0.20603  0.20217  0.39157  Biso   1.000  O
  O648     1.0000 0.79783  0.00387  0.39157  Biso   1.000  O
  O649     1.0000 0.66140  0.99480  0.59600  Biso   1.000  O
  O650     1.0000 0.00520  0.66660  0.59600  Biso   1.000  O
  O651     1.0000 0.33340  0.33860  0.59600  Biso   1.000  O
  O652     1.0000 0.32807  0.32813  0.92933  Biso   1.000  O
  O653     1.0000 0.67187  0.99993  0.92933  Biso   1.000  O
  O654     1.0000 0.00007  0.67193  0.92933  Biso   1.000  O
  O655     1.0000 0.99473  0.66147  0.26267  Biso   1.000  O
  O656     1.0000 0.33853  0.33327  0.26267  Biso   1.000  O
  O657     1.0000 0.66673  0.00527  0.26267  Biso   1.000  O
  O658     1.0000 0.66670  0.33330  0.51840  Biso   1.000  O
  O659     1.0000 0.33337  0.66663  0.85173  Biso   1.000  O
  O660     1.0000 0.00003  0.99997  0.18507  Biso   1.000  O
  O661     1.0000 0.47720  0.07790  0.03340  Biso   1.000  O
  O662     1.0000 0.92210  0.39930  0.03340  Biso   1.000  O
  O663     1.0000 0.60070  0.52280  0.03340  Biso   1.000  O
  O664     1.0000 0.14387  0.41123  0.36673  Biso   1.000  O
  O665     1.0000 0.58877  0.73263  0.36673  Biso   1.000  O
  O666     1.0000 0.26737  0.85613  0.36673  Biso   1.000  O
  O667     1.0000 0.81053  0.74457  0.70007  Biso   1.000  O
  O668     1.0000 0.25543  0.06597  0.70007  Biso   1.000  O
  O669     1.0000 0.93403  0.18947  0.70007  Biso   1.000  O
  O670     1.0000 0.18660  0.92290  0.88250  Biso   1.000  O
  O671     1.0000 0.07710  0.26370  0.88250  Biso   1.000  O
  O672     1.0000 0.73630  0.81340  0.88250  Biso   1.000  O
  O673     1.0000 0.85327  0.25623  0.21583  Biso   1.000  O
  O674     1.0000 0.74377  0.59703  0.21583  Biso   1.000  O
  O675     1.0000 0.40297  0.14673  0.21583  Biso   1.000  O
  O676     1.0000 0.51993  0.58957  0.54917  Biso   1.000  O
  O677     1.0000 0.41043  0.93037  0.54917  Biso   1.000  O
  O678     1.0000 0.06963  0.48007  0.54917  Biso   1.000  O
  O679     1.0000 0.66670  0.33330  0.00030  Biso   1.000  O
  O680     1.0000 0.33337  0.66663  0.33363  Biso   1.000  O
  O681     1.0000 0.00003  0.99997  0.66697  Biso   1.000  O
  O682     1.0000 0.80610  0.07730  0.89540  Biso   1.000  O
  O683     1.0000 0.92270  0.72880  0.89540  Biso   1.000  O
  O684     1.0000 0.27120  0.19390  0.89540  Biso   1.000  O
  O685     1.0000 0.47277  0.41063  0.22873  Biso   1.000  O
  O686     1.0000 0.58937  0.06213  0.22873  Biso   1.000  O
  O687     1.0000 0.93787  0.52723  0.22873  Biso   1.000  O
  O688     1.0000 0.13943  0.74397  0.56207  Biso   1.000  O
  O689     1.0000 0.25603  0.39547  0.56207  Biso   1.000  O
  O690     1.0000 0.60453  0.86057  0.56207  Biso   1.000  O
  O691     1.0000 0.83160  0.28280  0.08110  Biso   1.000  O
  O692     1.0000 0.71720  0.54880  0.08110  Biso   1.000  O
  O693     1.0000 0.45120  0.16840  0.08110  Biso   1.000  O
  O694     1.0000 0.49827  0.61613  0.41443  Biso   1.000  O
  O695     1.0000 0.38387  0.88213  0.41443  Biso   1.000  O
  O696     1.0000 0.11787  0.50173  0.41443  Biso   1.000  O
  O697     1.0000 0.16493  0.94947  0.74777  Biso   1.000  O
  O698     1.0000 0.05053  0.21547  0.74777  Biso   1.000  O
  O699     1.0000 0.78453  0.83507  0.74777  Biso   1.000  O
  O700     1.0000 0.52290  0.09300  0.09570  Biso   1.000  O
  O701     1.0000 0.90700  0.42990  0.09570  Biso   1.000  O
  O702     1.0000 0.57010  0.47710  0.09570  Biso   1.000  O
  O703     1.0000 0.18957  0.42633  0.42903  Biso   1.000  O
  O704     1.0000 0.57367  0.76323  0.42903  Biso   1.000  O
  O705     1.0000 0.23677  0.81043  0.42903  Biso   1.000  O
  O706     1.0000 0.85623  0.75967  0.76237  Biso   1.000  O
  O707     1.0000 0.24033  0.09657  0.76237  Biso   1.000  O
  O708     1.0000 0.90343  0.14377  0.76237  Biso   1.000  O
  O709     1.0000 0.79040  0.98880  0.91860  Biso   1.000  O
  O710     1.0000 0.01120  0.80160  0.91860  Biso   1.000  O
  O711     1.0000 0.19840  0.20960  0.91860  Biso   1.000  O
  O712     1.0000 0.45707  0.32213  0.25193  Biso   1.000  O
  O713     1.0000 0.67787  0.13493  0.25193  Biso   1.000  O
  O714     1.0000 0.86507  0.54293  0.25193  Biso   1.000  O
  O715     1.0000 0.12373  0.65547  0.58527  Biso   1.000  O
  O716     1.0000 0.34453  0.46827  0.58527  Biso   1.000  O
  O717     1.0000 0.53173  0.87627  0.58527  Biso   1.000  O
  O718     1.0000 0.43280  0.99860  0.92770  Biso   1.000  O
  O719     1.0000 0.00140  0.43420  0.92770  Biso   1.000  O
  O720     1.0000 0.56580  0.56720  0.92770  Biso   1.000  O
  O721     1.0000 0.09947  0.33193  0.26103  Biso   1.000  O
  O722     1.0000 0.66807  0.76753  0.26103  Biso   1.000  O
  O723     1.0000 0.23247  0.90053  0.26103  Biso   1.000  O
  O724     1.0000 0.76613  0.66527  0.59437  Biso   1.000  O
  O725     1.0000 0.33473  0.10087  0.59437  Biso   1.000  O
  O726     1.0000 0.89913  0.23387  0.59437  Biso   1.000  O
  O727     1.0000 0.64350  0.16140  0.49020  Biso   1.000  O
  O728     1.0000 0.83860  0.48210  0.49020  Biso   1.000  O
  O729     1.0000 0.51790  0.35650  0.49020  Biso   1.000  O
  O730     1.0000 0.31017  0.49473  0.82353  Biso   1.000  O
  O731     1.0000 0.50527  0.81543  0.82353  Biso   1.000  O
  O732     1.0000 0.18457  0.68983  0.82353  Biso   1.000  O
  O733     1.0000 0.97683  0.82807  0.15687  Biso   1.000  O
  O734     1.0000 0.17193  0.14877  0.15687  Biso   1.000  O
  O735     1.0000 0.85123  0.02317  0.15687  Biso   1.000  O
  O736     1.0000 0.69070  0.18220  0.03250  Biso   1.000  O
  O737     1.0000 0.81780  0.50850  0.03250  Biso   1.000  O
  O738     1.0000 0.49150  0.30930  0.03250  Biso   1.000  O
  O739     1.0000 0.35737  0.51553  0.36583  Biso   1.000  O
  O740     1.0000 0.48447  0.84183  0.36583  Biso   1.000  O
  O741     1.0000 0.15817  0.64263  0.36583  Biso   1.000  O
  O742     1.0000 0.02403  0.84887  0.69917  Biso   1.000  O
  O743     1.0000 0.15113  0.17517  0.69917  Biso   1.000  O
  O744     1.0000 0.82483  0.97597  0.69917  Biso   1.000  O
  O745     1.0000 0.66670  0.33330  0.92760  Biso   1.000  O
  O746     1.0000 0.33337  0.66663  0.26093  Biso   1.000  O
  O747     1.0000 0.00003  0.99997  0.59427  Biso   1.000  O
  O748     1.0000 0.66670  0.33330  0.58100  Biso   1.000  O
  O749     1.0000 0.33337  0.66663  0.91433  Biso   1.000  O
  O750     1.0000 0.00003  0.99997  0.24767  Biso   1.000  O
  O751     1.0000 0.50700  0.93100  0.63200  Biso   1.000  O
  O752     1.0000 0.06900  0.57600  0.63200  Biso   1.000  O
  O753     1.0000 0.42400  0.49300  0.63200  Biso   1.000  O
  O754     1.0000 0.17367  0.26433  0.96533  Biso   1.000  O
  O755     1.0000 0.73567  0.90933  0.96533  Biso   1.000  O
  O756     1.0000 0.09067  0.82633  0.96533  Biso   1.000  O
  O757     1.0000 0.84033  0.59767  0.29867  Biso   1.000  O
  O758     1.0000 0.40233  0.24267  0.29867  Biso   1.000  O
  O759     1.0000 0.75733  0.15967  0.29867  Biso   1.000  O
