data_image0
_cell_length_a       38.274
_cell_length_b       38.274
_cell_length_c       34.721
_cell_angle_alpha    90
_cell_angle_beta     90
_cell_angle_gamma    120

_symmetry_space_group_name_H-M    "P 1"
_symmetry_int_tables_number       1

loop_
  _symmetry_equiv_pos_as_xyz
  'x, y, z'

loop_
  _atom_site_label
  _atom_site_occupancy
  _atom_site_fract_x
  _atom_site_fract_y
  _atom_site_fract_z
  _atom_site_thermal_displace_type
  _atom_site_B_iso_or_equiv
  _atom_site_type_symbol
  C1       1.0000 0.40580  0.87520  0.58710  Biso   1.000  C
  C2       1.0000 0.12480  0.53060  0.58710  Biso   1.000  C
  C3       1.0000 0.46940  0.59420  0.58710  Biso   1.000  C
  C4       1.0000 0.07247  0.20853  0.92043  Biso   1.000  C
  C5       1.0000 0.79147  0.86393  0.92043  Biso   1.000  C
  C6       1.0000 0.13607  0.92753  0.92043  Biso   1.000  C
  C7       1.0000 0.73913  0.54187  0.25377  Biso   1.000  C
  C8       1.0000 0.45813  0.19727  0.25377  Biso   1.000  C
  C9       1.0000 0.80273  0.26087  0.25377  Biso   1.000  C
  N1       1.0000 0.41920  0.87880  0.62580  Biso   1.000  N
  N2       1.0000 0.12120  0.54040  0.62580  Biso   1.000  N
  N3       1.0000 0.45960  0.58080  0.62580  Biso   1.000  N
  N4       1.0000 0.08587  0.21213  0.95913  Biso   1.000  N
  N5       1.0000 0.78787  0.87373  0.95913  Biso   1.000  N
  N6       1.0000 0.12627  0.91413  0.95913  Biso   1.000  N
  N7       1.0000 0.75253  0.54547  0.29247  Biso   1.000  N
  N8       1.0000 0.45453  0.20707  0.29247  Biso   1.000  N
  N9       1.0000 0.79293  0.24747  0.29247  Biso   1.000  N
  H1       1.0000 0.40760  0.86060  0.64400  Biso   1.000  H
  H2       1.0000 0.13940  0.54700  0.64400  Biso   1.000  H
  H3       1.0000 0.45300  0.59240  0.64400  Biso   1.000  H
  H4       1.0000 0.07427  0.19393  0.97733  Biso   1.000  H
  H5       1.0000 0.80607  0.88033  0.97733  Biso   1.000  H
  H6       1.0000 0.11967  0.92573  0.97733  Biso   1.000  H
  H7       1.0000 0.74093  0.52727  0.31067  Biso   1.000  H
  H8       1.0000 0.47273  0.21367  0.31067  Biso   1.000  H
  H9       1.0000 0.78633  0.25907  0.31067  Biso   1.000  H
  C10      1.0000 0.45460  0.91710  0.63000  Biso   1.000  C
  C11      1.0000 0.08290  0.53750  0.63000  Biso   1.000  C
  C12      1.0000 0.46250  0.54540  0.63000  Biso   1.000  C
  C13      1.0000 0.12127  0.25043  0.96333  Biso   1.000  C
  C14      1.0000 0.74957  0.87083  0.96333  Biso   1.000  C
  C15      1.0000 0.12917  0.87873  0.96333  Biso   1.000  C
  C16      1.0000 0.78793  0.58377  0.29667  Biso   1.000  C
  C17      1.0000 0.41623  0.20417  0.29667  Biso   1.000  C
  C18      1.0000 0.79583  0.21207  0.29667  Biso   1.000  C
  H10      1.0000 0.46990  0.92750  0.65290  Biso   1.000  H
  H11      1.0000 0.07250  0.54240  0.65290  Biso   1.000  H
  H12      1.0000 0.45760  0.53010  0.65290  Biso   1.000  H
  H13      1.0000 0.13657  0.26083  0.98623  Biso   1.000  H
  H14      1.0000 0.73917  0.87573  0.98623  Biso   1.000  H
  H15      1.0000 0.12427  0.86343  0.98623  Biso   1.000  H
  H16      1.0000 0.80323  0.59417  0.31957  Biso   1.000  H
  H17      1.0000 0.40583  0.20907  0.31957  Biso   1.000  H
  H18      1.0000 0.79093  0.19677  0.31957  Biso   1.000  H
  C19      1.0000 0.46300  0.93710  0.59390  Biso   1.000  C
  C20      1.0000 0.06290  0.52590  0.59390  Biso   1.000  C
  C21      1.0000 0.47410  0.53700  0.59390  Biso   1.000  C
  C22      1.0000 0.12967  0.27043  0.92723  Biso   1.000  C
  C23      1.0000 0.72957  0.85923  0.92723  Biso   1.000  C
  C24      1.0000 0.14077  0.87033  0.92723  Biso   1.000  C
  C25      1.0000 0.79633  0.60377  0.26057  Biso   1.000  C
  C26      1.0000 0.39623  0.19257  0.26057  Biso   1.000  C
  C27      1.0000 0.80743  0.20367  0.26057  Biso   1.000  C
  H19      1.0000 0.48500  0.96330  0.58840  Biso   1.000  H
  H20      1.0000 0.03670  0.52170  0.58840  Biso   1.000  H
  H21      1.0000 0.47830  0.51500  0.58840  Biso   1.000  H
  H22      1.0000 0.15167  0.29663  0.92173  Biso   1.000  H
  H23      1.0000 0.70337  0.85503  0.92173  Biso   1.000  H
  H24      1.0000 0.14497  0.84833  0.92173  Biso   1.000  H
  H25      1.0000 0.81833  0.62997  0.25507  Biso   1.000  H
  H26      1.0000 0.37003  0.18837  0.25507  Biso   1.000  H
  H27      1.0000 0.81163  0.18167  0.25507  Biso   1.000  H
  N10      1.0000 0.43280  0.91120  0.56740  Biso   1.000  N
  N11      1.0000 0.08880  0.52160  0.56740  Biso   1.000  N
  N12      1.0000 0.47840  0.56720  0.56740  Biso   1.000  N
  N13      1.0000 0.09947  0.24453  0.90073  Biso   1.000  N
  N14      1.0000 0.75547  0.85493  0.90073  Biso   1.000  N
  N15      1.0000 0.14507  0.90053  0.90073  Biso   1.000  N
  N16      1.0000 0.76613  0.57787  0.23407  Biso   1.000  N
  N17      1.0000 0.42213  0.18827  0.23407  Biso   1.000  N
  N18      1.0000 0.81173  0.23387  0.23407  Biso   1.000  N
  Cu1      1.0000 0.61116  0.86947  0.53146  Biso   1.000  Cu
  Cu2      1.0000 0.13053  0.74169  0.53146  Biso   1.000  Cu
  Cu3      1.0000 0.25831  0.38884  0.53146  Biso   1.000  Cu
  Cu4      1.0000 0.27783  0.20280  0.86479  Biso   1.000  Cu
  Cu5      1.0000 0.79720  0.07502  0.86479  Biso   1.000  Cu
  Cu6      1.0000 0.92498  0.72217  0.86479  Biso   1.000  Cu
  Cu7      1.0000 0.94449  0.53614  0.19813  Biso   1.000  Cu
  Cu8      1.0000 0.46386  0.40836  0.19813  Biso   1.000  Cu
  Cu9      1.0000 0.59164  0.05551  0.19813  Biso   1.000  Cu
  Cu10     1.0000 0.53590  0.94453  0.27623  Biso   1.000  Cu
  Cu11     1.0000 0.05547  0.59137  0.27623  Biso   1.000  Cu
  Cu12     1.0000 0.40863  0.46410  0.27623  Biso   1.000  Cu
  Cu13     1.0000 0.20257  0.27786  0.60956  Biso   1.000  Cu
  Cu14     1.0000 0.72214  0.92470  0.60956  Biso   1.000  Cu
  Cu15     1.0000 0.07530  0.79743  0.60956  Biso   1.000  Cu
  Cu16     1.0000 0.86923  0.61120  0.94290  Biso   1.000  Cu
  Cu17     1.0000 0.38880  0.25804  0.94290  Biso   1.000  Cu
  Cu18     1.0000 0.74196  0.13077  0.94290  Biso   1.000  Cu
  Cu19     1.0000 0.41054  0.92708  0.52371  Biso   1.000  Cu
  Cu20     1.0000 0.07292  0.48346  0.52371  Biso   1.000  Cu
  Cu21     1.0000 0.51654  0.58946  0.52371  Biso   1.000  Cu
  Cu22     1.0000 0.07721  0.26041  0.85704  Biso   1.000  Cu
  Cu23     1.0000 0.73959  0.81679  0.85704  Biso   1.000  Cu
  Cu24     1.0000 0.18321  0.92279  0.85704  Biso   1.000  Cu
  Cu25     1.0000 0.74387  0.59375  0.19038  Biso   1.000  Cu
  Cu26     1.0000 0.40625  0.15013  0.19038  Biso   1.000  Cu
  Cu27     1.0000 0.84987  0.25613  0.19038  Biso   1.000  Cu
  Cu28     1.0000 0.25601  0.84968  0.28400  Biso   1.000  Cu
  Cu29     1.0000 0.15032  0.40633  0.28400  Biso   1.000  Cu
  Cu30     1.0000 0.59367  0.74399  0.28400  Biso   1.000  Cu
  Cu31     1.0000 0.92268  0.18301  0.61733  Biso   1.000  Cu
  Cu32     1.0000 0.81699  0.73966  0.61733  Biso   1.000  Cu
  Cu33     1.0000 0.26034  0.07732  0.61733  Biso   1.000  Cu
  Cu34     1.0000 0.58934  0.51635  0.95067  Biso   1.000  Cu
  Cu35     1.0000 0.48365  0.07300  0.95067  Biso   1.000  Cu
  Cu36     1.0000 0.92700  0.41066  0.95067  Biso   1.000  Cu
  Cu37     1.0000 0.26723  0.89064  0.46881  Biso   1.000  Cu
  Cu38     1.0000 0.10936  0.37659  0.46881  Biso   1.000  Cu
  Cu39     1.0000 0.62341  0.73277  0.46881  Biso   1.000  Cu
  Cu40     1.0000 0.93390  0.22397  0.80214  Biso   1.000  Cu
  Cu41     1.0000 0.77603  0.70992  0.80214  Biso   1.000  Cu
  Cu42     1.0000 0.29008  0.06610  0.80214  Biso   1.000  Cu
  Cu43     1.0000 0.60056  0.55731  0.13548  Biso   1.000  Cu
  Cu44     1.0000 0.44269  0.04326  0.13548  Biso   1.000  Cu
  Cu45     1.0000 0.95674  0.39944  0.13548  Biso   1.000  Cu
  Cu46     1.0000 0.39923  0.95659  0.33865  Biso   1.000  Cu
  Cu47     1.0000 0.04341  0.44264  0.33865  Biso   1.000  Cu
  Cu48     1.0000 0.55736  0.60077  0.33865  Biso   1.000  Cu
  Cu49     1.0000 0.06590  0.28992  0.67198  Biso   1.000  Cu
  Cu50     1.0000 0.71008  0.77597  0.67198  Biso   1.000  Cu
  Cu51     1.0000 0.22403  0.93410  0.67198  Biso   1.000  Cu
  Cu52     1.0000 0.73256  0.62326  0.00532  Biso   1.000  Cu
  Cu53     1.0000 0.37674  0.10931  0.00532  Biso   1.000  Cu
  Cu54     1.0000 0.89069  0.26744  0.00532  Biso   1.000  Cu
  Cu55     1.0000 0.63965  0.90648  0.33733  Biso   1.000  Cu
  Cu56     1.0000 0.09352  0.73317  0.33733  Biso   1.000  Cu
  Cu57     1.0000 0.26683  0.36035  0.33733  Biso   1.000  Cu
  Cu58     1.0000 0.30632  0.23981  0.67066  Biso   1.000  Cu
  Cu59     1.0000 0.76019  0.06650  0.67066  Biso   1.000  Cu
  Cu60     1.0000 0.93350  0.69368  0.67066  Biso   1.000  Cu
  Cu61     1.0000 0.97298  0.57315  0.00400  Biso   1.000  Cu
  Cu62     1.0000 0.42685  0.39984  0.00400  Biso   1.000  Cu
  Cu63     1.0000 0.60016  0.02702  0.00400  Biso   1.000  Cu
  Cu64     1.0000 0.57269  0.97260  0.47040  Biso   1.000  Cu
  Cu65     1.0000 0.02740  0.60009  0.47040  Biso   1.000  Cu
  Cu66     1.0000 0.39991  0.42731  0.47040  Biso   1.000  Cu
  Cu67     1.0000 0.23936  0.30593  0.80373  Biso   1.000  Cu
  Cu68     1.0000 0.69407  0.93342  0.80373  Biso   1.000  Cu
  Cu69     1.0000 0.06658  0.76064  0.80373  Biso   1.000  Cu
  Cu70     1.0000 0.90602  0.63927  0.13707  Biso   1.000  Cu
  Cu71     1.0000 0.36073  0.26676  0.13707  Biso   1.000  Cu
  Cu72     1.0000 0.73324  0.09398  0.13707  Biso   1.000  Cu
  O1       1.0000 0.66720  0.91800  0.57060  Biso   1.000  O
  O2       1.0000 0.08200  0.74920  0.57060  Biso   1.000  O
  O3       1.0000 0.25080  0.33280  0.57060  Biso   1.000  O
  O4       1.0000 0.33387  0.25133  0.90393  Biso   1.000  O
  O5       1.0000 0.74867  0.08253  0.90393  Biso   1.000  O
  O6       1.0000 0.91747  0.66613  0.90393  Biso   1.000  O
  O7       1.0000 0.00053  0.58467  0.23727  Biso   1.000  O
  O8       1.0000 0.41533  0.41587  0.23727  Biso   1.000  O
  O9       1.0000 0.58413  0.99947  0.23727  Biso   1.000  O
  O10      1.0000 0.26200  0.94120  0.50240  Biso   1.000  O
  O11      1.0000 0.05880  0.32080  0.50240  Biso   1.000  O
  O12      1.0000 0.67920  0.73800  0.50240  Biso   1.000  O
  O13      1.0000 0.92867  0.27453  0.83573  Biso   1.000  O
  O14      1.0000 0.72547  0.65413  0.83573  Biso   1.000  O
  O15      1.0000 0.34587  0.07133  0.83573  Biso   1.000  O
  O16      1.0000 0.59533  0.60787  0.16907  Biso   1.000  O
  O17      1.0000 0.39213  0.98747  0.16907  Biso   1.000  O
  O18      1.0000 0.01253  0.40467  0.16907  Biso   1.000  O
  O19      1.0000 0.40520  0.01410  0.30620  Biso   1.000  O
  O20      1.0000 0.98590  0.39110  0.30620  Biso   1.000  O
  O21      1.0000 0.60890  0.59480  0.30620  Biso   1.000  O
  O22      1.0000 0.07187  0.34743  0.63953  Biso   1.000  O
  O23      1.0000 0.65257  0.72443  0.63953  Biso   1.000  O
  O24      1.0000 0.27557  0.92813  0.63953  Biso   1.000  O
  O25      1.0000 0.73853  0.68077  0.97287  Biso   1.000  O
  O26      1.0000 0.31923  0.05777  0.97287  Biso   1.000  O
  O27      1.0000 0.94223  0.26147  0.97287  Biso   1.000  O
  O28      1.0000 0.70020  0.95700  0.30910  Biso   1.000  O
  O29      1.0000 0.04300  0.74320  0.30910  Biso   1.000  O
  O30      1.0000 0.25680  0.29980  0.30910  Biso   1.000  O
  O31      1.0000 0.36687  0.29033  0.64243  Biso   1.000  O
  O32      1.0000 0.70967  0.07653  0.64243  Biso   1.000  O
  O33      1.0000 0.92347  0.63313  0.64243  Biso   1.000  O
  O34      1.0000 0.03353  0.62367  0.97577  Biso   1.000  O
  O35      1.0000 0.37633  0.40987  0.97577  Biso   1.000  O
  O36      1.0000 0.59013  0.96647  0.97577  Biso   1.000  O
  O37      1.0000 0.62340  0.03500  0.50020  Biso   1.000  O
  O38      1.0000 0.96500  0.58840  0.50020  Biso   1.000  O
  O39      1.0000 0.41160  0.37660  0.50020  Biso   1.000  O
  O40      1.0000 0.29007  0.36833  0.83353  Biso   1.000  O
  O41      1.0000 0.63167  0.92173  0.83353  Biso   1.000  O
  O42      1.0000 0.07827  0.70993  0.83353  Biso   1.000  O
  O43      1.0000 0.95673  0.70167  0.16687  Biso   1.000  O
  O44      1.0000 0.29833  0.25507  0.16687  Biso   1.000  O
  O45      1.0000 0.74493  0.04327  0.16687  Biso   1.000  O
  O46      1.0000 0.61290  0.95490  0.46260  Biso   1.000  O
  O47      1.0000 0.04510  0.65800  0.46260  Biso   1.000  O
  O48      1.0000 0.34200  0.38710  0.46260  Biso   1.000  O
  O49      1.0000 0.27957  0.28823  0.79593  Biso   1.000  O
  O50      1.0000 0.71177  0.99133  0.79593  Biso   1.000  O
  O51      1.0000 0.00867  0.72043  0.79593  Biso   1.000  O
  O52      1.0000 0.94623  0.62157  0.12927  Biso   1.000  O
  O53      1.0000 0.37843  0.32467  0.12927  Biso   1.000  O
  O54      1.0000 0.67533  0.05377  0.12927  Biso   1.000  O
  O55      1.0000 0.56390  0.94370  0.52130  Biso   1.000  O
  O56      1.0000 0.05630  0.62020  0.52130  Biso   1.000  O
  O57      1.0000 0.37980  0.43610  0.52130  Biso   1.000  O
  O58      1.0000 0.23057  0.27703  0.85463  Biso   1.000  O
  O59      1.0000 0.72297  0.95353  0.85463  Biso   1.000  O
  O60      1.0000 0.04647  0.76943  0.85463  Biso   1.000  O
  O61      1.0000 0.89723  0.61037  0.18797  Biso   1.000  O
  O62      1.0000 0.38963  0.28687  0.18797  Biso   1.000  O
  O63      1.0000 0.71313  0.10277  0.18797  Biso   1.000  O
  O64      1.0000 0.61310  0.93620  0.61260  Biso   1.000  O
  O65      1.0000 0.06380  0.67690  0.61260  Biso   1.000  O
  O66      1.0000 0.32310  0.38690  0.61260  Biso   1.000  O
  O67      1.0000 0.27977  0.26953  0.94593  Biso   1.000  O
  O68      1.0000 0.73047  0.01023  0.94593  Biso   1.000  O
  O69      1.0000 0.98977  0.72023  0.94593  Biso   1.000  O
  O70      1.0000 0.94643  0.60287  0.27927  Biso   1.000  O
  O71      1.0000 0.39713  0.34357  0.27927  Biso   1.000  O
  O72      1.0000 0.65643  0.05357  0.27927  Biso   1.000  O
  O73      1.0000 0.55560  0.90320  0.64850  Biso   1.000  O
  O74      1.0000 0.09680  0.65240  0.64850  Biso   1.000  O
  O75      1.0000 0.34760  0.44440  0.64850  Biso   1.000  O
  O76      1.0000 0.22227  0.23653  0.98183  Biso   1.000  O
  O77      1.0000 0.76347  0.98573  0.98183  Biso   1.000  O
  O78      1.0000 0.01427  0.77773  0.98183  Biso   1.000  O
  O79      1.0000 0.88893  0.56987  0.31517  Biso   1.000  O
  O80      1.0000 0.43013  0.31907  0.31517  Biso   1.000  O
  O81      1.0000 0.68093  0.11107  0.31517  Biso   1.000  O
  O82      1.0000 0.60160  0.87190  0.41370  Biso   1.000  O
  O83      1.0000 0.12810  0.72970  0.41370  Biso   1.000  O
  O84      1.0000 0.27030  0.39840  0.41370  Biso   1.000  O
  O85      1.0000 0.26827  0.20523  0.74703  Biso   1.000  O
  O86      1.0000 0.79477  0.06303  0.74703  Biso   1.000  O
  O87      1.0000 0.93697  0.73173  0.74703  Biso   1.000  O
  O88      1.0000 0.93493  0.53857  0.08037  Biso   1.000  O
  O89      1.0000 0.46143  0.39637  0.08037  Biso   1.000  O
  O90      1.0000 0.60363  0.06507  0.08037  Biso   1.000  O
  O91      1.0000 0.66410  0.91740  0.39090  Biso   1.000  O
  O92      1.0000 0.08260  0.74670  0.39090  Biso   1.000  O
  O93      1.0000 0.25330  0.33590  0.39090  Biso   1.000  O
  O94      1.0000 0.33077  0.25073  0.72423  Biso   1.000  O
  O95      1.0000 0.74927  0.08003  0.72423  Biso   1.000  O
  O96      1.0000 0.91997  0.66923  0.72423  Biso   1.000  O
  O97      1.0000 0.99743  0.58407  0.05757  Biso   1.000  O
  O98      1.0000 0.41593  0.41337  0.05757  Biso   1.000  O
  O99      1.0000 0.58663  0.00257  0.05757  Biso   1.000  O
  O100     1.0000 0.62360  0.94730  0.34840  Biso   1.000  O
  O101     1.0000 0.05270  0.67630  0.34840  Biso   1.000  O
  O102     1.0000 0.32370  0.37640  0.34840  Biso   1.000  O
  O103     1.0000 0.29027  0.28063  0.68173  Biso   1.000  O
  O104     1.0000 0.71937  0.00963  0.68173  Biso   1.000  O
  O105     1.0000 0.99037  0.70973  0.68173  Biso   1.000  O
  O106     1.0000 0.95693  0.61397  0.01507  Biso   1.000  O
  O107     1.0000 0.38603  0.34297  0.01507  Biso   1.000  O
  O108     1.0000 0.65703  0.04307  0.01507  Biso   1.000  O
  O109     1.0000 0.60990  0.89750  0.28840  Biso   1.000  O
  O110     1.0000 0.10250  0.71240  0.28840  Biso   1.000  O
  O111     1.0000 0.28760  0.39010  0.28840  Biso   1.000  O
  O112     1.0000 0.27657  0.23083  0.62173  Biso   1.000  O
  O113     1.0000 0.76917  0.04573  0.62173  Biso   1.000  O
  O114     1.0000 0.95427  0.72343  0.62173  Biso   1.000  O
  O115     1.0000 0.94323  0.56417  0.95507  Biso   1.000  O
  O116     1.0000 0.43583  0.37907  0.95507  Biso   1.000  O
  O117     1.0000 0.62093  0.05677  0.95507  Biso   1.000  O
  O118     1.0000 0.58300  0.99550  0.41810  Biso   1.000  O
  O119     1.0000 0.00450  0.58750  0.41810  Biso   1.000  O
  O120     1.0000 0.41250  0.41700  0.41810  Biso   1.000  O
  O121     1.0000 0.24967  0.32883  0.75143  Biso   1.000  O
  O122     1.0000 0.67117  0.92083  0.75143  Biso   1.000  O
  O123     1.0000 0.07917  0.75033  0.75143  Biso   1.000  O
  O124     1.0000 0.91633  0.66217  0.08477  Biso   1.000  O
  O125     1.0000 0.33783  0.25417  0.08477  Biso   1.000  O
  O126     1.0000 0.74583  0.08367  0.08477  Biso   1.000  O
  O127     1.0000 0.54000  0.93430  0.39300  Biso   1.000  O
  O128     1.0000 0.06570  0.60570  0.39300  Biso   1.000  O
  O129     1.0000 0.39430  0.46000  0.39300  Biso   1.000  O
  O130     1.0000 0.20667  0.26763  0.72633  Biso   1.000  O
  O131     1.0000 0.73237  0.93903  0.72633  Biso   1.000  O
  O132     1.0000 0.06097  0.79333  0.72633  Biso   1.000  O
  O133     1.0000 0.87333  0.60097  0.05967  Biso   1.000  O
  O134     1.0000 0.39903  0.27237  0.05967  Biso   1.000  O
  O135     1.0000 0.72763  0.12667  0.05967  Biso   1.000  O
  O136     1.0000 0.37630  0.91600  0.29600  Biso   1.000  O
  O137     1.0000 0.08400  0.46030  0.29600  Biso   1.000  O
  O138     1.0000 0.53970  0.62370  0.29600  Biso   1.000  O
  O139     1.0000 0.04297  0.24933  0.62933  Biso   1.000  O
  O140     1.0000 0.75067  0.79363  0.62933  Biso   1.000  O
  O141     1.0000 0.20637  0.95703  0.62933  Biso   1.000  O
  O142     1.0000 0.70963  0.58267  0.96267  Biso   1.000  O
  O143     1.0000 0.41733  0.12697  0.96267  Biso   1.000  O
  O144     1.0000 0.87303  0.29037  0.96267  Biso   1.000  O
  O145     1.0000 0.34190  0.93850  0.35070  Biso   1.000  O
  O146     1.0000 0.06150  0.40340  0.35070  Biso   1.000  O
  O147     1.0000 0.59660  0.65810  0.35070  Biso   1.000  O
  O148     1.0000 0.00857  0.27183  0.68403  Biso   1.000  O
  O149     1.0000 0.72817  0.73673  0.68403  Biso   1.000  O
  O150     1.0000 0.26327  0.99143  0.68403  Biso   1.000  O
  O151     1.0000 0.67523  0.60517  0.01737  Biso   1.000  O
  O152     1.0000 0.39483  0.07007  0.01737  Biso   1.000  O
  O153     1.0000 0.92993  0.32477  0.01737  Biso   1.000  O
  O154     1.0000 0.41300  0.98800  0.38910  Biso   1.000  O
  O155     1.0000 0.01200  0.42500  0.38910  Biso   1.000  O
  O156     1.0000 0.57500  0.58700  0.38910  Biso   1.000  O
  O157     1.0000 0.07967  0.32133  0.72243  Biso   1.000  O
  O158     1.0000 0.67867  0.75833  0.72243  Biso   1.000  O
  O159     1.0000 0.24167  0.92033  0.72243  Biso   1.000  O
  O160     1.0000 0.74633  0.65467  0.05577  Biso   1.000  O
  O161     1.0000 0.34533  0.09167  0.05577  Biso   1.000  O
  O162     1.0000 0.90833  0.25367  0.05577  Biso   1.000  O
  O163     1.0000 0.40230  0.92890  0.41240  Biso   1.000  O
  O164     1.0000 0.07110  0.47340  0.41240  Biso   1.000  O
  O165     1.0000 0.52660  0.59770  0.41240  Biso   1.000  O
  O166     1.0000 0.06897  0.26223  0.74573  Biso   1.000  O
  O167     1.0000 0.73777  0.80673  0.74573  Biso   1.000  O
  O168     1.0000 0.19327  0.93103  0.74573  Biso   1.000  O
  O169     1.0000 0.73563  0.59557  0.07907  Biso   1.000  O
  O170     1.0000 0.40443  0.14007  0.07907  Biso   1.000  O
  O171     1.0000 0.85993  0.26437  0.07907  Biso   1.000  O
  O172     1.0000 0.35310  0.85620  0.18100  Biso   1.000  O
  O173     1.0000 0.14380  0.49690  0.18100  Biso   1.000  O
  O174     1.0000 0.50310  0.64690  0.18100  Biso   1.000  O
  O175     1.0000 0.01977  0.18953  0.51433  Biso   1.000  O
  O176     1.0000 0.81047  0.83023  0.51433  Biso   1.000  O
  O177     1.0000 0.16977  0.98023  0.51433  Biso   1.000  O
  O178     1.0000 0.68643  0.52287  0.84767  Biso   1.000  O
  O179     1.0000 0.47713  0.16357  0.84767  Biso   1.000  O
  O180     1.0000 0.83643  0.31357  0.84767  Biso   1.000  O
  O181     1.0000 0.32700  0.89440  0.19900  Biso   1.000  O
  O182     1.0000 0.10560  0.43260  0.19900  Biso   1.000  O
  O183     1.0000 0.56740  0.67300  0.19900  Biso   1.000  O
  O184     1.0000 0.99367  0.22773  0.53233  Biso   1.000  O
  O185     1.0000 0.77227  0.76593  0.53233  Biso   1.000  O
  O186     1.0000 0.23407  0.00633  0.53233  Biso   1.000  O
  O187     1.0000 0.66033  0.56107  0.86567  Biso   1.000  O
  O188     1.0000 0.43893  0.09927  0.86567  Biso   1.000  O
  O189     1.0000 0.90073  0.33967  0.86567  Biso   1.000  O
  O190     1.0000 0.25450  0.90800  0.41970  Biso   1.000  O
  O191     1.0000 0.09200  0.34650  0.41970  Biso   1.000  O
  O192     1.0000 0.65350  0.74550  0.41970  Biso   1.000  O
  O193     1.0000 0.92117  0.24133  0.75303  Biso   1.000  O
  O194     1.0000 0.75867  0.67983  0.75303  Biso   1.000  O
  O195     1.0000 0.32017  0.07883  0.75303  Biso   1.000  O
  O196     1.0000 0.58783  0.57467  0.08637  Biso   1.000  O
  O197     1.0000 0.42533  0.01317  0.08637  Biso   1.000  O
  O198     1.0000 0.98683  0.41217  0.08637  Biso   1.000  O
  O199     1.0000 0.26390  0.85870  0.39580  Biso   1.000  O
  O200     1.0000 0.14130  0.40520  0.39580  Biso   1.000  O
  O201     1.0000 0.59480  0.73610  0.39580  Biso   1.000  O
  O202     1.0000 0.93057  0.19203  0.72913  Biso   1.000  O
  O203     1.0000 0.80797  0.73853  0.72913  Biso   1.000  O
  O204     1.0000 0.26147  0.06943  0.72913  Biso   1.000  O
  O205     1.0000 0.59723  0.52537  0.06247  Biso   1.000  O
  O206     1.0000 0.47463  0.07187  0.06247  Biso   1.000  O
  O207     1.0000 0.92813  0.40277  0.06247  Biso   1.000  O
  O208     1.0000 0.29150  0.87520  0.51220  Biso   1.000  O
  O209     1.0000 0.12480  0.41630  0.51220  Biso   1.000  O
  O210     1.0000 0.58370  0.70850  0.51220  Biso   1.000  O
  O211     1.0000 0.95817  0.20853  0.84553  Biso   1.000  O
  O212     1.0000 0.79147  0.74963  0.84553  Biso   1.000  O
  O213     1.0000 0.25037  0.04183  0.84553  Biso   1.000  O
  O214     1.0000 0.62483  0.54187  0.17887  Biso   1.000  O
  O215     1.0000 0.45813  0.08297  0.17887  Biso   1.000  O
  O216     1.0000 0.91703  0.37517  0.17887  Biso   1.000  O
  O217     1.0000 0.32490  0.92970  0.46040  Biso   1.000  O
  O218     1.0000 0.07030  0.39520  0.46040  Biso   1.000  O
  O219     1.0000 0.60480  0.67510  0.46040  Biso   1.000  O
  O220     1.0000 0.99157  0.26303  0.79373  Biso   1.000  O
  O221     1.0000 0.73697  0.72853  0.79373  Biso   1.000  O
  O222     1.0000 0.27147  0.00843  0.79373  Biso   1.000  O
  O223     1.0000 0.65823  0.59637  0.12707  Biso   1.000  O
  O224     1.0000 0.40363  0.06187  0.12707  Biso   1.000  O
  O225     1.0000 0.93813  0.34177  0.12707  Biso   1.000  O
  O226     1.0000 0.31710  0.84140  0.63130  Biso   1.000  O
  O227     1.0000 0.15860  0.47570  0.63130  Biso   1.000  O
  O228     1.0000 0.52430  0.68290  0.63130  Biso   1.000  O
  O229     1.0000 0.98377  0.17473  0.96463  Biso   1.000  O
  O230     1.0000 0.82527  0.80903  0.96463  Biso   1.000  O
  O231     1.0000 0.19097  0.01623  0.96463  Biso   1.000  O
  O232     1.0000 0.65043  0.50807  0.29797  Biso   1.000  O
  O233     1.0000 0.49193  0.14237  0.29797  Biso   1.000  O
  O234     1.0000 0.85763  0.34957  0.29797  Biso   1.000  O
  O235     1.0000 0.33680  0.89850  0.61020  Biso   1.000  O
  O236     1.0000 0.10150  0.43830  0.61020  Biso   1.000  O
  O237     1.0000 0.56170  0.66320  0.61020  Biso   1.000  O
  O238     1.0000 0.00347  0.23183  0.94353  Biso   1.000  O
  O239     1.0000 0.76817  0.77163  0.94353  Biso   1.000  O
  O240     1.0000 0.22837  0.99653  0.94353  Biso   1.000  O
  O241     1.0000 0.67013  0.56517  0.27687  Biso   1.000  O
  O242     1.0000 0.43483  0.10497  0.27687  Biso   1.000  O
  O243     1.0000 0.89503  0.32987  0.27687  Biso   1.000  O
  O244     1.0000 0.60170  0.94690  0.19550  Biso   1.000  O
  O245     1.0000 0.05310  0.65480  0.19550  Biso   1.000  O
  O246     1.0000 0.34520  0.39830  0.19550  Biso   1.000  O
  O247     1.0000 0.26837  0.28023  0.52883  Biso   1.000  O
  O248     1.0000 0.71977  0.98813  0.52883  Biso   1.000  O
  O249     1.0000 0.01187  0.73163  0.52883  Biso   1.000  O
  O250     1.0000 0.93503  0.61357  0.86217  Biso   1.000  O
  O251     1.0000 0.38643  0.32147  0.86217  Biso   1.000  O
  O252     1.0000 0.67853  0.06497  0.86217  Biso   1.000  O
  O253     1.0000 0.57030  0.88580  0.16340  Biso   1.000  O
  O254     1.0000 0.11420  0.68450  0.16340  Biso   1.000  O
  O255     1.0000 0.31550  0.42970  0.16340  Biso   1.000  O
  O256     1.0000 0.23697  0.21913  0.49673  Biso   1.000  O
  O257     1.0000 0.78087  0.01783  0.49673  Biso   1.000  O
  O258     1.0000 0.98217  0.76303  0.49673  Biso   1.000  O
  O259     1.0000 0.90363  0.55247  0.83007  Biso   1.000  O
  O260     1.0000 0.44753  0.35117  0.83007  Biso   1.000  O
  O261     1.0000 0.64883  0.09637  0.83007  Biso   1.000  O
  N19      1.0000 0.62940  0.90750  0.48830  Biso   1.000  N
  N20      1.0000 0.09250  0.72190  0.48830  Biso   1.000  N
  N21      1.0000 0.27810  0.37060  0.48830  Biso   1.000  N
  N22      1.0000 0.29607  0.24083  0.82163  Biso   1.000  N
  N23      1.0000 0.75917  0.05523  0.82163  Biso   1.000  N
  N24      1.0000 0.94477  0.70393  0.82163  Biso   1.000  N
  N25      1.0000 0.96273  0.57417  0.15497  Biso   1.000  N
  N26      1.0000 0.42583  0.38857  0.15497  Biso   1.000  N
  N27      1.0000 0.61143  0.03727  0.15497  Biso   1.000  N
  N28      1.0000 0.63330  0.83720  0.50630  Biso   1.000  N
  N29      1.0000 0.16280  0.79610  0.50630  Biso   1.000  N
  N30      1.0000 0.20390  0.36670  0.50630  Biso   1.000  N
  N31      1.0000 0.29997  0.17053  0.83963  Biso   1.000  N
  N32      1.0000 0.82947  0.12943  0.83963  Biso   1.000  N
  N33      1.0000 0.87057  0.70003  0.83963  Biso   1.000  N
  N34      1.0000 0.96663  0.50387  0.17297  Biso   1.000  N
  N35      1.0000 0.49613  0.46277  0.17297  Biso   1.000  N
  N36      1.0000 0.53723  0.03337  0.17297  Biso   1.000  N
  N37      1.0000 0.57780  0.89290  0.54880  Biso   1.000  N
  N38      1.0000 0.10710  0.68490  0.54880  Biso   1.000  N
  N39      1.0000 0.31510  0.42220  0.54880  Biso   1.000  N
  N40      1.0000 0.24447  0.22623  0.88213  Biso   1.000  N
  N41      1.0000 0.77377  0.01823  0.88213  Biso   1.000  N
  N42      1.0000 0.98177  0.75553  0.88213  Biso   1.000  N
  N43      1.0000 0.91113  0.55957  0.21547  Biso   1.000  N
  N44      1.0000 0.44043  0.35157  0.21547  Biso   1.000  N
  N45      1.0000 0.64843  0.08887  0.21547  Biso   1.000  N
  N46      1.0000 0.58900  0.83320  0.57650  Biso   1.000  N
  N47      1.0000 0.16680  0.75580  0.57650  Biso   1.000  N
  N48      1.0000 0.24420  0.41100  0.57650  Biso   1.000  N
  N49      1.0000 0.25567  0.16653  0.90983  Biso   1.000  N
  N50      1.0000 0.83347  0.08913  0.90983  Biso   1.000  N
  N51      1.0000 0.91087  0.74433  0.90983  Biso   1.000  N
  N52      1.0000 0.92233  0.49987  0.24317  Biso   1.000  N
  N53      1.0000 0.50013  0.42247  0.24317  Biso   1.000  N
  N54      1.0000 0.57753  0.07767  0.24317  Biso   1.000  N
  N55      1.0000 0.58260  0.79340  0.62630  Biso   1.000  N
  N56      1.0000 0.20660  0.78920  0.62630  Biso   1.000  N
  N57      1.0000 0.21080  0.41740  0.62630  Biso   1.000  N
  N58      1.0000 0.24927  0.12673  0.95963  Biso   1.000  N
  N59      1.0000 0.87327  0.12253  0.95963  Biso   1.000  N
  N60      1.0000 0.87747  0.75073  0.95963  Biso   1.000  N
  N61      1.0000 0.91593  0.46007  0.29297  Biso   1.000  N
  N62      1.0000 0.53993  0.45587  0.29297  Biso   1.000  N
  N63      1.0000 0.54413  0.08407  0.29297  Biso   1.000  N
  H28      1.0000 0.58700  0.77830  0.64260  Biso   1.000  H
  H29      1.0000 0.22170  0.80870  0.64260  Biso   1.000  H
  H30      1.0000 0.19130  0.41300  0.64260  Biso   1.000  H
  H31      1.0000 0.25367  0.11163  0.97593  Biso   1.000  H
  H32      1.0000 0.88837  0.14203  0.97593  Biso   1.000  H
  H33      1.0000 0.85797  0.74633  0.97593  Biso   1.000  H
  H34      1.0000 0.92033  0.44497  0.30927  Biso   1.000  H
  H35      1.0000 0.55503  0.47537  0.30927  Biso   1.000  H
  H36      1.0000 0.52463  0.07967  0.30927  Biso   1.000  H
  N64      1.0000 0.56400  0.91250  0.26290  Biso   1.000  N
  N65      1.0000 0.08750  0.65150  0.26290  Biso   1.000  N
  N66      1.0000 0.34850  0.43600  0.26290  Biso   1.000  N
  N67      1.0000 0.23067  0.24583  0.59623  Biso   1.000  N
  N68      1.0000 0.75417  0.98483  0.59623  Biso   1.000  N
  N69      1.0000 0.01517  0.76933  0.59623  Biso   1.000  N
  N70      1.0000 0.89733  0.57917  0.92957  Biso   1.000  N
  N71      1.0000 0.42083  0.31817  0.92957  Biso   1.000  N
  N72      1.0000 0.68183  0.10267  0.92957  Biso   1.000  N
  N73      1.0000 0.57570  0.96250  0.32130  Biso   1.000  N
  N74      1.0000 0.03750  0.61320  0.32130  Biso   1.000  N
  N75      1.0000 0.38680  0.42430  0.32130  Biso   1.000  N
  N76      1.0000 0.24237  0.29583  0.65463  Biso   1.000  N
  N77      1.0000 0.70417  0.94653  0.65463  Biso   1.000  N
  N78      1.0000 0.05347  0.75763  0.65463  Biso   1.000  N
  N79      1.0000 0.90903  0.62917  0.98797  Biso   1.000  N
  N80      1.0000 0.37083  0.27987  0.98797  Biso   1.000  N
  N81      1.0000 0.72013  0.09097  0.98797  Biso   1.000  N
  N82      1.0000 0.49780  0.92110  0.23090  Biso   1.000  N
  N83      1.0000 0.07890  0.57670  0.23090  Biso   1.000  N
  N84      1.0000 0.42330  0.50220  0.23090  Biso   1.000  N
  N85      1.0000 0.16447  0.25443  0.56423  Biso   1.000  N
  N86      1.0000 0.74557  0.91003  0.56423  Biso   1.000  N
  N87      1.0000 0.08997  0.83553  0.56423  Biso   1.000  N
  N88      1.0000 0.83113  0.58777  0.89757  Biso   1.000  N
  N89      1.0000 0.41223  0.24337  0.89757  Biso   1.000  N
  N90      1.0000 0.75663  0.16887  0.89757  Biso   1.000  N
  N91      1.0000 0.46040  0.91860  0.18590  Biso   1.000  N
  N92      1.0000 0.08140  0.54180  0.18590  Biso   1.000  N
  N93      1.0000 0.45820  0.53960  0.18590  Biso   1.000  N
  N94      1.0000 0.12707  0.25193  0.51923  Biso   1.000  N
  N95      1.0000 0.74807  0.87513  0.51923  Biso   1.000  N
  N96      1.0000 0.12487  0.87293  0.51923  Biso   1.000  N
  N97      1.0000 0.79373  0.58527  0.85257  Biso   1.000  N
  N98      1.0000 0.41473  0.20847  0.85257  Biso   1.000  N
  N99      1.0000 0.79153  0.20627  0.85257  Biso   1.000  N
  H37      1.0000 0.44480  0.92390  0.17150  Biso   1.000  H
  H38      1.0000 0.07610  0.52090  0.17150  Biso   1.000  H
  H39      1.0000 0.47910  0.55520  0.17150  Biso   1.000  H
  H40      1.0000 0.11147  0.25723  0.50483  Biso   1.000  H
  H41      1.0000 0.74277  0.85423  0.50483  Biso   1.000  H
  H42      1.0000 0.14577  0.88853  0.50483  Biso   1.000  H
  H43      1.0000 0.77813  0.59057  0.83817  Biso   1.000  H
  H44      1.0000 0.40943  0.18757  0.83817  Biso   1.000  H
  H45      1.0000 0.81243  0.22187  0.83817  Biso   1.000  H
  N100     1.0000 0.50600  0.96610  0.30230  Biso   1.000  N
  N101     1.0000 0.03390  0.53990  0.30230  Biso   1.000  N
  N102     1.0000 0.46010  0.49400  0.30230  Biso   1.000  N
  N103     1.0000 0.17267  0.29943  0.63563  Biso   1.000  N
  N104     1.0000 0.70057  0.87323  0.63563  Biso   1.000  N
  N105     1.0000 0.12677  0.82733  0.63563  Biso   1.000  N
  N106     1.0000 0.83933  0.63277  0.96897  Biso   1.000  N
  N107     1.0000 0.36723  0.20657  0.96897  Biso   1.000  N
  N108     1.0000 0.79343  0.16067  0.96897  Biso   1.000  N
  N109     1.0000 0.45330  0.96830  0.32900  Biso   1.000  N
  N110     1.0000 0.03170  0.48500  0.32900  Biso   1.000  N
  N111     1.0000 0.51500  0.54670  0.32900  Biso   1.000  N
  N112     1.0000 0.11997  0.30163  0.66233  Biso   1.000  N
  N113     1.0000 0.69837  0.81833  0.66233  Biso   1.000  N
  N114     1.0000 0.18167  0.88003  0.66233  Biso   1.000  N
  N115     1.0000 0.78663  0.63497  0.99567  Biso   1.000  N
  N116     1.0000 0.36503  0.15167  0.99567  Biso   1.000  N
  N117     1.0000 0.84833  0.21337  0.99567  Biso   1.000  N
  N118     1.0000 0.31320  0.86880  0.27120  Biso   1.000  N
  N119     1.0000 0.13120  0.44440  0.27120  Biso   1.000  N
  N120     1.0000 0.55560  0.68680  0.27120  Biso   1.000  N
  N121     1.0000 0.97987  0.20213  0.60453  Biso   1.000  N
  N122     1.0000 0.79787  0.77773  0.60453  Biso   1.000  N
  N123     1.0000 0.22227  0.02013  0.60453  Biso   1.000  N
  N124     1.0000 0.64653  0.53547  0.93787  Biso   1.000  N
  N125     1.0000 0.46453  0.11107  0.93787  Biso   1.000  N
  N126     1.0000 0.88893  0.35347  0.93787  Biso   1.000  N
  N127     1.0000 0.27940  0.89510  0.32330  Biso   1.000  N
  N128     1.0000 0.10490  0.38430  0.32330  Biso   1.000  N
  N129     1.0000 0.61570  0.72060  0.32330  Biso   1.000  N
  N130     1.0000 0.94607  0.22843  0.65663  Biso   1.000  N
  N131     1.0000 0.77157  0.71763  0.65663  Biso   1.000  N
  N132     1.0000 0.28237  0.05393  0.65663  Biso   1.000  N
  N133     1.0000 0.61273  0.56177  0.98997  Biso   1.000  N
  N134     1.0000 0.43823  0.05097  0.98997  Biso   1.000  N
  N135     1.0000 0.94903  0.38727  0.98997  Biso   1.000  N
  N136     1.0000 0.23530  0.81340  0.23800  Biso   1.000  N
  N137     1.0000 0.18660  0.42190  0.23800  Biso   1.000  N
  N138     1.0000 0.57810  0.76470  0.23800  Biso   1.000  N
  N139     1.0000 0.90197  0.14673  0.57133  Biso   1.000  N
  N140     1.0000 0.85327  0.75523  0.57133  Biso   1.000  N
  N141     1.0000 0.24477  0.09803  0.57133  Biso   1.000  N
  N142     1.0000 0.56863  0.48007  0.90467  Biso   1.000  N
  N143     1.0000 0.51993  0.08857  0.90467  Biso   1.000  N
  N144     1.0000 0.91143  0.43137  0.90467  Biso   1.000  N
  N145     1.0000 0.21340  0.78900  0.18650  Biso   1.000  N
  N146     1.0000 0.21100  0.42440  0.18650  Biso   1.000  N
  N147     1.0000 0.57560  0.78660  0.18650  Biso   1.000  N
  N148     1.0000 0.88007  0.12233  0.51983  Biso   1.000  N
  N149     1.0000 0.87767  0.75773  0.51983  Biso   1.000  N
  N150     1.0000 0.24227  0.11993  0.51983  Biso   1.000  N
  N151     1.0000 0.54673  0.45567  0.85317  Biso   1.000  N
  N152     1.0000 0.54433  0.09107  0.85317  Biso   1.000  N
  N153     1.0000 0.90893  0.45327  0.85317  Biso   1.000  N
  H46      1.0000 0.20300  0.78910  0.16400  Biso   1.000  H
  H47      1.0000 0.21090  0.41390  0.16400  Biso   1.000  H
  H48      1.0000 0.58610  0.79700  0.16400  Biso   1.000  H
  H49      1.0000 0.86967  0.12243  0.49733  Biso   1.000  H
  H50      1.0000 0.87757  0.74723  0.49733  Biso   1.000  H
  H51      1.0000 0.25277  0.13033  0.49733  Biso   1.000  H
  H52      1.0000 0.53633  0.45577  0.83067  Biso   1.000  H
  H53      1.0000 0.54423  0.08057  0.83067  Biso   1.000  H
  H54      1.0000 0.91943  0.46367  0.83067  Biso   1.000  H
  N154     1.0000 0.20200  0.83080  0.30530  Biso   1.000  N
  N155     1.0000 0.16920  0.37120  0.30530  Biso   1.000  N
  N156     1.0000 0.62880  0.79800  0.30530  Biso   1.000  N
  N157     1.0000 0.86867  0.16413  0.63863  Biso   1.000  N
  N158     1.0000 0.83587  0.70453  0.63863  Biso   1.000  N
  N159     1.0000 0.29547  0.13133  0.63863  Biso   1.000  N
  N160     1.0000 0.53533  0.49747  0.97197  Biso   1.000  N
  N161     1.0000 0.50253  0.03787  0.97197  Biso   1.000  N
  N162     1.0000 0.96213  0.46467  0.97197  Biso   1.000  N
  N163     1.0000 0.63670  0.78770  0.48060  Biso   1.000  N
  N164     1.0000 0.21230  0.84900  0.48060  Biso   1.000  N
  N165     1.0000 0.15100  0.36330  0.48060  Biso   1.000  N
  N166     1.0000 0.30337  0.12103  0.81393  Biso   1.000  N
  N167     1.0000 0.87897  0.18233  0.81393  Biso   1.000  N
  N168     1.0000 0.81767  0.69663  0.81393  Biso   1.000  N
  N169     1.0000 0.97003  0.45437  0.14727  Biso   1.000  N
  N170     1.0000 0.54563  0.51567  0.14727  Biso   1.000  N
  N171     1.0000 0.48433  0.02997  0.14727  Biso   1.000  N
  N172     1.0000 0.38840  0.94880  0.48590  Biso   1.000  N
  N173     1.0000 0.05120  0.43960  0.48590  Biso   1.000  N
  N174     1.0000 0.56040  0.61160  0.48590  Biso   1.000  N
  N175     1.0000 0.05507  0.28213  0.81923  Biso   1.000  N
  N176     1.0000 0.71787  0.77293  0.81923  Biso   1.000  N
  N177     1.0000 0.22707  0.94493  0.81923  Biso   1.000  N
  N178     1.0000 0.72173  0.61547  0.15257  Biso   1.000  N
  N179     1.0000 0.38453  0.10627  0.15257  Biso   1.000  N
  N180     1.0000 0.89373  0.27827  0.15257  Biso   1.000  N
  N181     1.0000 0.35050  0.88860  0.53770  Biso   1.000  N
  N182     1.0000 0.11140  0.46190  0.53770  Biso   1.000  N
  N183     1.0000 0.53810  0.64950  0.53770  Biso   1.000  N
  N184     1.0000 0.01717  0.22193  0.87103  Biso   1.000  N
  N185     1.0000 0.77807  0.79523  0.87103  Biso   1.000  N
  N186     1.0000 0.20477  0.98283  0.87103  Biso   1.000  N
  N187     1.0000 0.68383  0.55527  0.20437  Biso   1.000  N
  N188     1.0000 0.44473  0.12857  0.20437  Biso   1.000  N
  N189     1.0000 0.87143  0.31617  0.20437  Biso   1.000  N
  N190     1.0000 0.46640  0.96210  0.50480  Biso   1.000  N
  N191     1.0000 0.03790  0.50430  0.50480  Biso   1.000  N
  N192     1.0000 0.49570  0.53360  0.50480  Biso   1.000  N
  N193     1.0000 0.13307  0.29543  0.83813  Biso   1.000  N
  N194     1.0000 0.70457  0.83763  0.83813  Biso   1.000  N
  N195     1.0000 0.16237  0.86693  0.83813  Biso   1.000  N
  N196     1.0000 0.79973  0.62877  0.17147  Biso   1.000  N
  N197     1.0000 0.37123  0.17097  0.17147  Biso   1.000  N
  N198     1.0000 0.82903  0.20027  0.17147  Biso   1.000  N
  N199     1.0000 0.52510  0.97860  0.48110  Biso   1.000  N
  N200     1.0000 0.02140  0.54650  0.48110  Biso   1.000  N
  N201     1.0000 0.45350  0.47490  0.48110  Biso   1.000  N
  N202     1.0000 0.19177  0.31193  0.81443  Biso   1.000  N
  N203     1.0000 0.68807  0.87983  0.81443  Biso   1.000  N
  N204     1.0000 0.12017  0.80823  0.81443  Biso   1.000  N
  N205     1.0000 0.85843  0.64527  0.14777  Biso   1.000  N
  N206     1.0000 0.35473  0.21317  0.14777  Biso   1.000  N
  N207     1.0000 0.78683  0.14157  0.14777  Biso   1.000  N
  N208     1.0000 0.14200  0.78710  0.32730  Biso   1.000  N
  N209     1.0000 0.21290  0.35490  0.32730  Biso   1.000  N
  N210     1.0000 0.64510  0.85800  0.32730  Biso   1.000  N
  N211     1.0000 0.80867  0.12043  0.66063  Biso   1.000  N
  N212     1.0000 0.87957  0.68823  0.66063  Biso   1.000  N
  N213     1.0000 0.31177  0.19133  0.66063  Biso   1.000  N
  N214     1.0000 0.47533  0.45377  0.99397  Biso   1.000  N
  N215     1.0000 0.54623  0.02157  0.99397  Biso   1.000  N
  N216     1.0000 0.97843  0.52467  0.99397  Biso   1.000  N
  C28      1.0000 0.61220  0.93360  0.48680  Biso   1.000  C
  C29      1.0000 0.06640  0.67860  0.48680  Biso   1.000  C
  C30      1.0000 0.32140  0.38780  0.48680  Biso   1.000  C
  C31      1.0000 0.27887  0.26693  0.82013  Biso   1.000  C
  C32      1.0000 0.73307  0.01193  0.82013  Biso   1.000  C
  C33      1.0000 0.98807  0.72113  0.82013  Biso   1.000  C
  C34      1.0000 0.94553  0.60027  0.15347  Biso   1.000  C
  C35      1.0000 0.39973  0.34527  0.15347  Biso   1.000  C
  C36      1.0000 0.65473  0.05447  0.15347  Biso   1.000  C
  C37      1.0000 0.58190  0.91960  0.52540  Biso   1.000  C
  C38      1.0000 0.08040  0.66230  0.52540  Biso   1.000  C
  C39      1.0000 0.33770  0.41810  0.52540  Biso   1.000  C
  C40      1.0000 0.24857  0.25293  0.85873  Biso   1.000  C
  C41      1.0000 0.74707  0.99563  0.85873  Biso   1.000  C
  C42      1.0000 0.00437  0.75143  0.85873  Biso   1.000  C
  C43      1.0000 0.91523  0.58627  0.19207  Biso   1.000  C
  C44      1.0000 0.41373  0.32897  0.19207  Biso   1.000  C
  C45      1.0000 0.67103  0.08477  0.19207  Biso   1.000  C
  C46      1.0000 0.55150  0.88690  0.57800  Biso   1.000  C
  C47      1.0000 0.11310  0.66460  0.57800  Biso   1.000  C
  C48      1.0000 0.33540  0.44850  0.57800  Biso   1.000  C
  C49      1.0000 0.21817  0.22023  0.91133  Biso   1.000  C
  C50      1.0000 0.77977  0.99793  0.91133  Biso   1.000  C
  C51      1.0000 0.00207  0.78183  0.91133  Biso   1.000  C
  C52      1.0000 0.88483  0.55357  0.24467  Biso   1.000  C
  C53      1.0000 0.44643  0.33127  0.24467  Biso   1.000  C
  C54      1.0000 0.66873  0.11517  0.24467  Biso   1.000  C
  H55      1.0000 0.53180  0.89560  0.57030  Biso   1.000  H
  H56      1.0000 0.10440  0.63620  0.57030  Biso   1.000  H
  H57      1.0000 0.36380  0.46820  0.57030  Biso   1.000  H
  H58      1.0000 0.19847  0.22893  0.90363  Biso   1.000  H
  H59      1.0000 0.77107  0.96953  0.90363  Biso   1.000  H
  H60      1.0000 0.03047  0.80153  0.90363  Biso   1.000  H
  H61      1.0000 0.86513  0.56227  0.23697  Biso   1.000  H
  H62      1.0000 0.43773  0.30287  0.23697  Biso   1.000  H
  H63      1.0000 0.69713  0.13487  0.23697  Biso   1.000  H
  C55      1.0000 0.52960  0.84020  0.58600  Biso   1.000  C
  C56      1.0000 0.15980  0.68940  0.58600  Biso   1.000  C
  C57      1.0000 0.31060  0.47040  0.58600  Biso   1.000  C
  C58      1.0000 0.19627  0.17353  0.91933  Biso   1.000  C
  C59      1.0000 0.82647  0.02273  0.91933  Biso   1.000  C
  C60      1.0000 0.97727  0.80373  0.91933  Biso   1.000  C
  C61      1.0000 0.86293  0.50687  0.25267  Biso   1.000  C
  C62      1.0000 0.49313  0.35607  0.25267  Biso   1.000  C
  C63      1.0000 0.64393  0.13707  0.25267  Biso   1.000  C
  H64      1.0000 0.50830  0.83380  0.60530  Biso   1.000  H
  H65      1.0000 0.16620  0.67450  0.60530  Biso   1.000  H
  H66      1.0000 0.32550  0.49170  0.60530  Biso   1.000  H
  H67      1.0000 0.17497  0.16713  0.93863  Biso   1.000  H
  H68      1.0000 0.83287  0.00783  0.93863  Biso   1.000  H
  H69      1.0000 0.99217  0.82503  0.93863  Biso   1.000  H
  H70      1.0000 0.84163  0.50047  0.27197  Biso   1.000  H
  H71      1.0000 0.49953  0.34117  0.27197  Biso   1.000  H
  H72      1.0000 0.65883  0.15837  0.27197  Biso   1.000  H
  H73      1.0000 0.51600  0.82610  0.56190  Biso   1.000  H
  H74      1.0000 0.17390  0.68990  0.56190  Biso   1.000  H
  H75      1.0000 0.31010  0.48400  0.56190  Biso   1.000  H
  H76      1.0000 0.18267  0.15943  0.89523  Biso   1.000  H
  H77      1.0000 0.84057  0.02323  0.89523  Biso   1.000  H
  H78      1.0000 0.97677  0.81733  0.89523  Biso   1.000  H
  H79      1.0000 0.84933  0.49277  0.22857  Biso   1.000  H
  H80      1.0000 0.50723  0.35657  0.22857  Biso   1.000  H
  H81      1.0000 0.64343  0.15067  0.22857  Biso   1.000  H
  C64      1.0000 0.55330  0.82330  0.59900  Biso   1.000  C
  C65      1.0000 0.17670  0.73000  0.59900  Biso   1.000  C
  C66      1.0000 0.27000  0.44670  0.59900  Biso   1.000  C
  C67      1.0000 0.21997  0.15663  0.93233  Biso   1.000  C
  C68      1.0000 0.84337  0.06333  0.93233  Biso   1.000  C
  C69      1.0000 0.93667  0.78003  0.93233  Biso   1.000  C
  C70      1.0000 0.88663  0.48997  0.26567  Biso   1.000  C
  C71      1.0000 0.51003  0.39667  0.26567  Biso   1.000  C
  C72      1.0000 0.60333  0.11337  0.26567  Biso   1.000  C
  C73      1.0000 0.55210  0.80090  0.62750  Biso   1.000  C
  C74      1.0000 0.19910  0.75120  0.62750  Biso   1.000  C
  C75      1.0000 0.24880  0.44790  0.62750  Biso   1.000  C
  C76      1.0000 0.21877  0.13423  0.96083  Biso   1.000  C
  C77      1.0000 0.86577  0.08453  0.96083  Biso   1.000  C
  C78      1.0000 0.91547  0.78123  0.96083  Biso   1.000  C
  C79      1.0000 0.88543  0.46757  0.29417  Biso   1.000  C
  C80      1.0000 0.53243  0.41787  0.29417  Biso   1.000  C
  C81      1.0000 0.58213  0.11457  0.29417  Biso   1.000  C
  H82      1.0000 0.53190  0.79090  0.64700  Biso   1.000  H
  H83      1.0000 0.20910  0.74100  0.64700  Biso   1.000  H
  H84      1.0000 0.25900  0.46810  0.64700  Biso   1.000  H
  H85      1.0000 0.19857  0.12423  0.98033  Biso   1.000  H
  H86      1.0000 0.87577  0.07433  0.98033  Biso   1.000  H
  H87      1.0000 0.92567  0.80143  0.98033  Biso   1.000  H
  H88      1.0000 0.86523  0.45757  0.31367  Biso   1.000  H
  H89      1.0000 0.54243  0.40767  0.31367  Biso   1.000  H
  H90      1.0000 0.59233  0.13477  0.31367  Biso   1.000  H
  C82      1.0000 0.60400  0.81180  0.59750  Biso   1.000  C
  C83      1.0000 0.18820  0.79220  0.59750  Biso   1.000  C
  C84      1.0000 0.20780  0.39600  0.59750  Biso   1.000  C
  C85      1.0000 0.27067  0.14513  0.93083  Biso   1.000  C
  C86      1.0000 0.85487  0.12553  0.93083  Biso   1.000  C
  C87      1.0000 0.87447  0.72933  0.93083  Biso   1.000  C
  C88      1.0000 0.93733  0.47847  0.26417  Biso   1.000  C
  C89      1.0000 0.52153  0.45887  0.26417  Biso   1.000  C
  C90      1.0000 0.54113  0.06267  0.26417  Biso   1.000  C
  H91      1.0000 0.62780  0.81140  0.59060  Biso   1.000  H
  H92      1.0000 0.18860  0.81640  0.59060  Biso   1.000  H
  H93      1.0000 0.18360  0.37220  0.59060  Biso   1.000  H
  H94      1.0000 0.29447  0.14473  0.92393  Biso   1.000  H
  H95      1.0000 0.85527  0.14973  0.92393  Biso   1.000  H
  H96      1.0000 0.85027  0.70553  0.92393  Biso   1.000  H
  H97      1.0000 0.96113  0.47807  0.25727  Biso   1.000  H
  H98      1.0000 0.52193  0.48307  0.25727  Biso   1.000  H
  H99      1.0000 0.51693  0.03887  0.25727  Biso   1.000  H
  C91      1.0000 0.57630  0.91040  0.61730  Biso   1.000  C
  C92      1.0000 0.08960  0.66590  0.61730  Biso   1.000  C
  C93      1.0000 0.33410  0.42370  0.61730  Biso   1.000  C
  C94      1.0000 0.24297  0.24373  0.95063  Biso   1.000  C
  C95      1.0000 0.75627  0.99923  0.95063  Biso   1.000  C
  C96      1.0000 0.00077  0.75703  0.95063  Biso   1.000  C
  C97      1.0000 0.90963  0.57707  0.28397  Biso   1.000  C
  C98      1.0000 0.42293  0.33257  0.28397  Biso   1.000  C
  C99      1.0000 0.66743  0.09037  0.28397  Biso   1.000  C
  C100     1.0000 0.61800  0.79810  0.50720  Biso   1.000  C
  C101     1.0000 0.20190  0.81990  0.50720  Biso   1.000  C
  C102     1.0000 0.18010  0.38200  0.50720  Biso   1.000  C
  C103     1.0000 0.28467  0.13143  0.84053  Biso   1.000  C
  C104     1.0000 0.86857  0.15323  0.84053  Biso   1.000  C
  C105     1.0000 0.84677  0.71533  0.84053  Biso   1.000  C
  C106     1.0000 0.95133  0.46477  0.17387  Biso   1.000  C
  C107     1.0000 0.53523  0.48657  0.17387  Biso   1.000  C
  C108     1.0000 0.51343  0.04867  0.17387  Biso   1.000  C
  H100     1.0000 0.59710  0.78000  0.52390  Biso   1.000  H
  H101     1.0000 0.22000  0.81710  0.52390  Biso   1.000  H
  H102     1.0000 0.18290  0.40290  0.52390  Biso   1.000  H
  H103     1.0000 0.26377  0.11333  0.85723  Biso   1.000  H
  H104     1.0000 0.88667  0.15043  0.85723  Biso   1.000  H
  H105     1.0000 0.84957  0.73623  0.85723  Biso   1.000  H
  H106     1.0000 0.93043  0.44667  0.19057  Biso   1.000  H
  H107     1.0000 0.55333  0.48377  0.19057  Biso   1.000  H
  H108     1.0000 0.51623  0.06957  0.19057  Biso   1.000  H
  C109     1.0000 0.66200  0.85180  0.47390  Biso   1.000  C
  C110     1.0000 0.14820  0.81020  0.47390  Biso   1.000  C
  C111     1.0000 0.18980  0.33800  0.47390  Biso   1.000  C
  C112     1.0000 0.32867  0.18513  0.80723  Biso   1.000  C
  C113     1.0000 0.81487  0.14353  0.80723  Biso   1.000  C
  C114     1.0000 0.85647  0.67133  0.80723  Biso   1.000  C
  C115     1.0000 0.99533  0.51847  0.14057  Biso   1.000  C
  C116     1.0000 0.48153  0.47687  0.14057  Biso   1.000  C
  C117     1.0000 0.52313  0.00467  0.14057  Biso   1.000  C
  C118     1.0000 0.68610  0.89830  0.46920  Biso   1.000  C
  C119     1.0000 0.10170  0.78780  0.46920  Biso   1.000  C
  C120     1.0000 0.21220  0.31390  0.46920  Biso   1.000  C
  C121     1.0000 0.35277  0.23163  0.80253  Biso   1.000  C
  C122     1.0000 0.76837  0.12113  0.80253  Biso   1.000  C
  C123     1.0000 0.87887  0.64723  0.80253  Biso   1.000  C
  C124     1.0000 0.01943  0.56497  0.13587  Biso   1.000  C
  C125     1.0000 0.43503  0.45447  0.13587  Biso   1.000  C
  C126     1.0000 0.54553  0.98057  0.13587  Biso   1.000  C
  H109     1.0000 0.70590  0.90470  0.44810  Biso   1.000  H
  H110     1.0000 0.09530  0.80120  0.44810  Biso   1.000  H
  H111     1.0000 0.19880  0.29410  0.44810  Biso   1.000  H
  H112     1.0000 0.37257  0.23803  0.78143  Biso   1.000  H
  H113     1.0000 0.76197  0.13453  0.78143  Biso   1.000  H
  H114     1.0000 0.86547  0.62743  0.78143  Biso   1.000  H
  H115     1.0000 0.03923  0.57137  0.11477  Biso   1.000  H
  H116     1.0000 0.42863  0.46787  0.11477  Biso   1.000  H
  H117     1.0000 0.53213  0.96077  0.11477  Biso   1.000  H
  H118     1.0000 0.70170  0.91000  0.49310  Biso   1.000  H
  H119     1.0000 0.09000  0.79170  0.49310  Biso   1.000  H
  H120     1.0000 0.20830  0.29830  0.49310  Biso   1.000  H
  H121     1.0000 0.36837  0.24333  0.82643  Biso   1.000  H
  H122     1.0000 0.75667  0.12503  0.82643  Biso   1.000  H
  H123     1.0000 0.87497  0.63163  0.82643  Biso   1.000  H
  H124     1.0000 0.03503  0.57667  0.15977  Biso   1.000  H
  H125     1.0000 0.42333  0.45837  0.15977  Biso   1.000  H
  H126     1.0000 0.54163  0.96497  0.15977  Biso   1.000  H
  C127     1.0000 0.66070  0.92160  0.45990  Biso   1.000  C
  C128     1.0000 0.07840  0.73910  0.45990  Biso   1.000  C
  C129     1.0000 0.26090  0.33930  0.45990  Biso   1.000  C
  C130     1.0000 0.32737  0.25493  0.79323  Biso   1.000  C
  C131     1.0000 0.74507  0.07243  0.79323  Biso   1.000  C
  C132     1.0000 0.92757  0.67263  0.79323  Biso   1.000  C
  C133     1.0000 0.99403  0.58827  0.12657  Biso   1.000  C
  C134     1.0000 0.41173  0.40577  0.12657  Biso   1.000  C
  C135     1.0000 0.59423  0.00597  0.12657  Biso   1.000  C
  H127     1.0000 0.67770  0.95170  0.45850  Biso   1.000  H
  H128     1.0000 0.04830  0.72600  0.45850  Biso   1.000  H
  H129     1.0000 0.27400  0.32230  0.45850  Biso   1.000  H
  H130     1.0000 0.34437  0.28503  0.79183  Biso   1.000  H
  H131     1.0000 0.71497  0.05933  0.79183  Biso   1.000  H
  H132     1.0000 0.94067  0.65563  0.79183  Biso   1.000  H
  H133     1.0000 0.01103  0.61837  0.12517  Biso   1.000  H
  H134     1.0000 0.38163  0.39267  0.12517  Biso   1.000  H
  H135     1.0000 0.60733  0.98897  0.12517  Biso   1.000  H
  C136     1.0000 0.63850  0.89950  0.41790  Biso   1.000  C
  C137     1.0000 0.10050  0.73900  0.41790  Biso   1.000  C
  C138     1.0000 0.26100  0.36150  0.41790  Biso   1.000  C
  C139     1.0000 0.30517  0.23283  0.75123  Biso   1.000  C
  C140     1.0000 0.76717  0.07233  0.75123  Biso   1.000  C
  C141     1.0000 0.92767  0.69483  0.75123  Biso   1.000  C
  C142     1.0000 0.97183  0.56617  0.08457  Biso   1.000  C
  C143     1.0000 0.43383  0.40567  0.08457  Biso   1.000  C
  C144     1.0000 0.59433  0.02817  0.08457  Biso   1.000  C
  C145     1.0000 0.59890  0.94500  0.32260  Biso   1.000  C
  C146     1.0000 0.05500  0.65390  0.32260  Biso   1.000  C
  C147     1.0000 0.34610  0.40110  0.32260  Biso   1.000  C
  C148     1.0000 0.26557  0.27833  0.65593  Biso   1.000  C
  C149     1.0000 0.72167  0.98723  0.65593  Biso   1.000  C
  C150     1.0000 0.01277  0.73443  0.65593  Biso   1.000  C
  C151     1.0000 0.93223  0.61167  0.98927  Biso   1.000  C
  C152     1.0000 0.38833  0.32057  0.98927  Biso   1.000  C
  C153     1.0000 0.67943  0.06777  0.98927  Biso   1.000  C
  C154     1.0000 0.59040  0.91420  0.29020  Biso   1.000  C
  C155     1.0000 0.08580  0.67620  0.29020  Biso   1.000  C
  C156     1.0000 0.32380  0.40960  0.29020  Biso   1.000  C
  C157     1.0000 0.25707  0.24753  0.62353  Biso   1.000  C
  C158     1.0000 0.75247  0.00953  0.62353  Biso   1.000  C
  C159     1.0000 0.99047  0.74293  0.62353  Biso   1.000  C
  C160     1.0000 0.92373  0.58087  0.95687  Biso   1.000  C
  C161     1.0000 0.41913  0.34287  0.95687  Biso   1.000  C
  C162     1.0000 0.65713  0.07627  0.95687  Biso   1.000  C
  C163     1.0000 0.58370  0.99130  0.35050  Biso   1.000  C
  C164     1.0000 0.00870  0.59240  0.35050  Biso   1.000  C
  C165     1.0000 0.40760  0.41630  0.35050  Biso   1.000  C
  C166     1.0000 0.25037  0.32463  0.68383  Biso   1.000  C
  C167     1.0000 0.67537  0.92573  0.68383  Biso   1.000  C
  C168     1.0000 0.07427  0.74963  0.68383  Biso   1.000  C
  C169     1.0000 0.91703  0.65797  0.01717  Biso   1.000  C
  C170     1.0000 0.34203  0.25907  0.01717  Biso   1.000  C
  C171     1.0000 0.74093  0.08297  0.01717  Biso   1.000  C
  H136     1.0000 0.61360  0.00950  0.35150  Biso   1.000  H
  H137     1.0000 0.99050  0.60410  0.35150  Biso   1.000  H
  H138     1.0000 0.39590  0.38640  0.35150  Biso   1.000  H
  H139     1.0000 0.28027  0.34283  0.68483  Biso   1.000  H
  H140     1.0000 0.65717  0.93743  0.68483  Biso   1.000  H
  H141     1.0000 0.06257  0.71973  0.68483  Biso   1.000  H
  H142     1.0000 0.94693  0.67617  0.01817  Biso   1.000  H
  H143     1.0000 0.32383  0.27077  0.01817  Biso   1.000  H
  H144     1.0000 0.72923  0.05307  0.01817  Biso   1.000  H
  C172     1.0000 0.56390  0.01880  0.33850  Biso   1.000  C
  C173     1.0000 0.98120  0.54510  0.33850  Biso   1.000  C
  C174     1.0000 0.45490  0.43610  0.33850  Biso   1.000  C
  C175     1.0000 0.23057  0.35213  0.67183  Biso   1.000  C
  C176     1.0000 0.64787  0.87843  0.67183  Biso   1.000  C
  C177     1.0000 0.12157  0.76943  0.67183  Biso   1.000  C
  C178     1.0000 0.89723  0.68547  0.00517  Biso   1.000  C
  C179     1.0000 0.31453  0.21177  0.00517  Biso   1.000  C
  C180     1.0000 0.78823  0.10277  0.00517  Biso   1.000  C
  H145     1.0000 0.56920  0.03880  0.35900  Biso   1.000  H
  H146     1.0000 0.96120  0.53040  0.35900  Biso   1.000  H
  H147     1.0000 0.46960  0.43080  0.35900  Biso   1.000  H
  H148     1.0000 0.23587  0.37213  0.69233  Biso   1.000  H
  H149     1.0000 0.62787  0.86373  0.69233  Biso   1.000  H
  H150     1.0000 0.13627  0.76413  0.69233  Biso   1.000  H
  H151     1.0000 0.90253  0.70547  0.02567  Biso   1.000  H
  H152     1.0000 0.29453  0.19707  0.02567  Biso   1.000  H
  H153     1.0000 0.80293  0.09747  0.02567  Biso   1.000  H
  H154     1.0000 0.57670  0.03370  0.31450  Biso   1.000  H
  H155     1.0000 0.96630  0.54300  0.31450  Biso   1.000  H
  H156     1.0000 0.45700  0.42330  0.31450  Biso   1.000  H
  H157     1.0000 0.24337  0.36703  0.64783  Biso   1.000  H
  H158     1.0000 0.63297  0.87633  0.64783  Biso   1.000  H
  H159     1.0000 0.12367  0.75663  0.64783  Biso   1.000  H
  H160     1.0000 0.91003  0.70037  0.98117  Biso   1.000  H
  H161     1.0000 0.29963  0.20967  0.98117  Biso   1.000  H
  H162     1.0000 0.79033  0.08997  0.98117  Biso   1.000  H
  C181     1.0000 0.51920  0.99300  0.33240  Biso   1.000  C
  C182     1.0000 0.00700  0.52620  0.33240  Biso   1.000  C
  C183     1.0000 0.47380  0.48080  0.33240  Biso   1.000  C
  C184     1.0000 0.18587  0.32633  0.66573  Biso   1.000  C
  C185     1.0000 0.67367  0.85953  0.66573  Biso   1.000  C
  C186     1.0000 0.14047  0.81413  0.66573  Biso   1.000  C
  C187     1.0000 0.85253  0.65967  0.99907  Biso   1.000  C
  C188     1.0000 0.34033  0.19287  0.99907  Biso   1.000  C
  C189     1.0000 0.80713  0.14747  0.99907  Biso   1.000  C
  C190     1.0000 0.48940  0.99640  0.34820  Biso   1.000  C
  C191     1.0000 0.00360  0.49300  0.34820  Biso   1.000  C
  C192     1.0000 0.50700  0.51060  0.34820  Biso   1.000  C
  C193     1.0000 0.15607  0.32973  0.68153  Biso   1.000  C
  C194     1.0000 0.67027  0.82633  0.68153  Biso   1.000  C
  C195     1.0000 0.17367  0.84393  0.68153  Biso   1.000  C
  C196     1.0000 0.82273  0.66307  0.01487  Biso   1.000  C
  C197     1.0000 0.33693  0.15967  0.01487  Biso   1.000  C
  C198     1.0000 0.84033  0.17727  0.01487  Biso   1.000  C
  H163     1.0000 0.49170  0.01410  0.36850  Biso   1.000  H
  H164     1.0000 0.98590  0.47760  0.36850  Biso   1.000  H
  H165     1.0000 0.52240  0.50830  0.36850  Biso   1.000  H
  H166     1.0000 0.15837  0.34743  0.70183  Biso   1.000  H
  H167     1.0000 0.65257  0.81093  0.70183  Biso   1.000  H
  H168     1.0000 0.18907  0.84163  0.70183  Biso   1.000  H
  H169     1.0000 0.82503  0.68077  0.03517  Biso   1.000  H
  H170     1.0000 0.31923  0.14427  0.03517  Biso   1.000  H
  H171     1.0000 0.85573  0.17497  0.03517  Biso   1.000  H
  C199     1.0000 0.46680  0.95150  0.30340  Biso   1.000  C
  C200     1.0000 0.04850  0.51530  0.30340  Biso   1.000  C
  C201     1.0000 0.48470  0.53320  0.30340  Biso   1.000  C
  C202     1.0000 0.13347  0.28483  0.63673  Biso   1.000  C
  C203     1.0000 0.71517  0.84863  0.63673  Biso   1.000  C
  C204     1.0000 0.15137  0.86653  0.63673  Biso   1.000  C
  C205     1.0000 0.80013  0.61817  0.97007  Biso   1.000  C
  C206     1.0000 0.38183  0.18197  0.97007  Biso   1.000  C
  C207     1.0000 0.81803  0.19987  0.97007  Biso   1.000  C
  H172     1.0000 0.44890  0.93010  0.28700  Biso   1.000  H
  H173     1.0000 0.06990  0.51880  0.28700  Biso   1.000  H
  H174     1.0000 0.48120  0.55110  0.28700  Biso   1.000  H
  H175     1.0000 0.11557  0.26343  0.62033  Biso   1.000  H
  H176     1.0000 0.73657  0.85213  0.62033  Biso   1.000  H
  H177     1.0000 0.14787  0.88443  0.62033  Biso   1.000  H
  H178     1.0000 0.78223  0.59677  0.95367  Biso   1.000  H
  H179     1.0000 0.40323  0.18547  0.95367  Biso   1.000  H
  H180     1.0000 0.81453  0.21777  0.95367  Biso   1.000  H
  C208     1.0000 0.56910  0.97290  0.39380  Biso   1.000  C
  C209     1.0000 0.02710  0.59620  0.39380  Biso   1.000  C
  C210     1.0000 0.40380  0.43090  0.39380  Biso   1.000  C
  C211     1.0000 0.23577  0.30623  0.72713  Biso   1.000  C
  C212     1.0000 0.69377  0.92953  0.72713  Biso   1.000  C
  C213     1.0000 0.07047  0.76423  0.72713  Biso   1.000  C
  C214     1.0000 0.90243  0.63957  0.06047  Biso   1.000  C
  C215     1.0000 0.36043  0.26287  0.06047  Biso   1.000  C
  C216     1.0000 0.73713  0.09757  0.06047  Biso   1.000  C
  C217     1.0000 0.55440  0.88610  0.23090  Biso   1.000  C
  C218     1.0000 0.11390  0.66830  0.23090  Biso   1.000  C
  C219     1.0000 0.33170  0.44560  0.23090  Biso   1.000  C
  C220     1.0000 0.22107  0.21943  0.56423  Biso   1.000  C
  C221     1.0000 0.78057  0.00163  0.56423  Biso   1.000  C
  C222     1.0000 0.99837  0.77893  0.56423  Biso   1.000  C
  C223     1.0000 0.88773  0.55277  0.89757  Biso   1.000  C
  C224     1.0000 0.44723  0.33497  0.89757  Biso   1.000  C
  C225     1.0000 0.66503  0.11227  0.89757  Biso   1.000  C
  H181     1.0000 0.56430  0.86680  0.23550  Biso   1.000  H
  H182     1.0000 0.13320  0.69750  0.23550  Biso   1.000  H
  H183     1.0000 0.30250  0.43570  0.23550  Biso   1.000  H
  H184     1.0000 0.23097  0.20013  0.56883  Biso   1.000  H
  H185     1.0000 0.79987  0.03083  0.56883  Biso   1.000  H
  H186     1.0000 0.96917  0.76903  0.56883  Biso   1.000  H
  H187     1.0000 0.89763  0.53347  0.90217  Biso   1.000  H
  H188     1.0000 0.46653  0.36417  0.90217  Biso   1.000  H
  H189     1.0000 0.63583  0.10237  0.90217  Biso   1.000  H
  C226     1.0000 0.50830  0.86250  0.22210  Biso   1.000  C
  C227     1.0000 0.13750  0.64580  0.22210  Biso   1.000  C
  C228     1.0000 0.35420  0.49170  0.22210  Biso   1.000  C
  C229     1.0000 0.17497  0.19583  0.55543  Biso   1.000  C
  C230     1.0000 0.80417  0.97913  0.55543  Biso   1.000  C
  C231     1.0000 0.02087  0.82503  0.55543  Biso   1.000  C
  C232     1.0000 0.84163  0.52917  0.88877  Biso   1.000  C
  C233     1.0000 0.47083  0.31247  0.88877  Biso   1.000  C
  C234     1.0000 0.68753  0.15837  0.88877  Biso   1.000  C
  H190     1.0000 0.50360  0.84410  0.20020  Biso   1.000  H
  H191     1.0000 0.15590  0.65950  0.20020  Biso   1.000  H
  H192     1.0000 0.34050  0.49640  0.20020  Biso   1.000  H
  H193     1.0000 0.17027  0.17743  0.53353  Biso   1.000  H
  H194     1.0000 0.82257  0.99283  0.53353  Biso   1.000  H
  H195     1.0000 0.00717  0.82973  0.53353  Biso   1.000  H
  H196     1.0000 0.83693  0.51077  0.86687  Biso   1.000  H
  H197     1.0000 0.48923  0.32617  0.86687  Biso   1.000  H
  H198     1.0000 0.67383  0.16307  0.86687  Biso   1.000  H
  H199     1.0000 0.49420  0.84550  0.24470  Biso   1.000  H
  H200     1.0000 0.15450  0.64870  0.24470  Biso   1.000  H
  H201     1.0000 0.35130  0.50580  0.24470  Biso   1.000  H
  H202     1.0000 0.16087  0.17883  0.57803  Biso   1.000  H
  H203     1.0000 0.82117  0.98203  0.57803  Biso   1.000  H
  H204     1.0000 0.01797  0.83913  0.57803  Biso   1.000  H
  H205     1.0000 0.82753  0.51217  0.91137  Biso   1.000  H
  H206     1.0000 0.48783  0.31537  0.91137  Biso   1.000  H
  H207     1.0000 0.68463  0.17247  0.91137  Biso   1.000  H
  C235     1.0000 0.48840  0.88760  0.21230  Biso   1.000  C
  C236     1.0000 0.11240  0.60080  0.21230  Biso   1.000  C
  C237     1.0000 0.39920  0.51160  0.21230  Biso   1.000  C
  C238     1.0000 0.15507  0.22093  0.54563  Biso   1.000  C
  C239     1.0000 0.77907  0.93413  0.54563  Biso   1.000  C
  C240     1.0000 0.06587  0.84493  0.54563  Biso   1.000  C
  C241     1.0000 0.82173  0.55427  0.87897  Biso   1.000  C
  C242     1.0000 0.44573  0.26747  0.87897  Biso   1.000  C
  C243     1.0000 0.73253  0.17827  0.87897  Biso   1.000  C
  C244     1.0000 0.46610  0.88350  0.17750  Biso   1.000  C
  C245     1.0000 0.11650  0.58260  0.17750  Biso   1.000  C
  C246     1.0000 0.41740  0.53390  0.17750  Biso   1.000  C
  C247     1.0000 0.13277  0.21683  0.51083  Biso   1.000  C
  C248     1.0000 0.78317  0.91593  0.51083  Biso   1.000  C
  C249     1.0000 0.08407  0.86723  0.51083  Biso   1.000  C
  C250     1.0000 0.79943  0.55017  0.84417  Biso   1.000  C
  C251     1.0000 0.44983  0.24927  0.84417  Biso   1.000  C
  C252     1.0000 0.75073  0.20057  0.84417  Biso   1.000  C
  H208     1.0000 0.45780  0.86500  0.15660  Biso   1.000  H
  H209     1.0000 0.13500  0.59280  0.15660  Biso   1.000  H
  H210     1.0000 0.40720  0.54220  0.15660  Biso   1.000  H
  H211     1.0000 0.12447  0.19833  0.48993  Biso   1.000  H
  H212     1.0000 0.80167  0.92613  0.48993  Biso   1.000  H
  H213     1.0000 0.07387  0.87553  0.48993  Biso   1.000  H
  H214     1.0000 0.79113  0.53167  0.82327  Biso   1.000  H
  H215     1.0000 0.46833  0.25947  0.82327  Biso   1.000  H
  H216     1.0000 0.74053  0.20887  0.82327  Biso   1.000  H
  C253     1.0000 0.47900  0.94060  0.21470  Biso   1.000  C
  C254     1.0000 0.05940  0.53840  0.21470  Biso   1.000  C
  C255     1.0000 0.46160  0.52100  0.21470  Biso   1.000  C
  C256     1.0000 0.14567  0.27393  0.54803  Biso   1.000  C
  C257     1.0000 0.72607  0.87173  0.54803  Biso   1.000  C
  C258     1.0000 0.12827  0.85433  0.54803  Biso   1.000  C
  C259     1.0000 0.81233  0.60727  0.88137  Biso   1.000  C
  C260     1.0000 0.39273  0.20507  0.88137  Biso   1.000  C
  C261     1.0000 0.79493  0.18767  0.88137  Biso   1.000  C
  H217     1.0000 0.47990  0.96460  0.22310  Biso   1.000  H
  H218     1.0000 0.03540  0.51530  0.22310  Biso   1.000  H
  H219     1.0000 0.48470  0.52010  0.22310  Biso   1.000  H
  H220     1.0000 0.14657  0.29793  0.55643  Biso   1.000  H
  H221     1.0000 0.70207  0.84863  0.55643  Biso   1.000  H
  H222     1.0000 0.15137  0.85343  0.55643  Biso   1.000  H
  H223     1.0000 0.81323  0.63127  0.88977  Biso   1.000  H
  H224     1.0000 0.36873  0.18197  0.88977  Biso   1.000  H
  H225     1.0000 0.81803  0.18677  0.88977  Biso   1.000  H
  C262     1.0000 0.33830  0.89860  0.29240  Biso   1.000  C
  C263     1.0000 0.10140  0.43970  0.29240  Biso   1.000  C
  C264     1.0000 0.56030  0.66170  0.29240  Biso   1.000  C
  C265     1.0000 0.00497  0.23193  0.62573  Biso   1.000  C
  C266     1.0000 0.76807  0.77303  0.62573  Biso   1.000  C
  C267     1.0000 0.22697  0.99503  0.62573  Biso   1.000  C
  C268     1.0000 0.67163  0.56527  0.95907  Biso   1.000  C
  C269     1.0000 0.43473  0.10637  0.95907  Biso   1.000  C
  C270     1.0000 0.89363  0.32837  0.95907  Biso   1.000  C
  C271     1.0000 0.32100  0.91300  0.32480  Biso   1.000  C
  C272     1.0000 0.08700  0.40800  0.32480  Biso   1.000  C
  C273     1.0000 0.59200  0.67900  0.32480  Biso   1.000  C
  C274     1.0000 0.98767  0.24633  0.65813  Biso   1.000  C
  C275     1.0000 0.75367  0.74133  0.65813  Biso   1.000  C
  C276     1.0000 0.25867  0.01233  0.65813  Biso   1.000  C
  C277     1.0000 0.65433  0.57967  0.99147  Biso   1.000  C
  C278     1.0000 0.42033  0.07467  0.99147  Biso   1.000  C
  C279     1.0000 0.92533  0.34567  0.99147  Biso   1.000  C
  C280     1.0000 0.32980  0.84840  0.24620  Biso   1.000  C
  C281     1.0000 0.15160  0.48140  0.24620  Biso   1.000  C
  C282     1.0000 0.51860  0.67020  0.24620  Biso   1.000  C
  C283     1.0000 0.99647  0.18173  0.57953  Biso   1.000  C
  C284     1.0000 0.81827  0.81473  0.57953  Biso   1.000  C
  C285     1.0000 0.18527  0.00353  0.57953  Biso   1.000  C
  C286     1.0000 0.66313  0.51507  0.91287  Biso   1.000  C
  C287     1.0000 0.48493  0.14807  0.91287  Biso   1.000  C
  C288     1.0000 0.85193  0.33687  0.91287  Biso   1.000  C
  H226     1.0000 0.35440  0.85040  0.25840  Biso   1.000  H
  H227     1.0000 0.14960  0.50400  0.25840  Biso   1.000  H
  H228     1.0000 0.49600  0.64560  0.25840  Biso   1.000  H
  H229     1.0000 0.02107  0.18373  0.59173  Biso   1.000  H
  H230     1.0000 0.81627  0.83733  0.59173  Biso   1.000  H
  H231     1.0000 0.16267  0.97893  0.59173  Biso   1.000  H
  H232     1.0000 0.68773  0.51707  0.92507  Biso   1.000  H
  H233     1.0000 0.48293  0.17067  0.92507  Biso   1.000  H
  H234     1.0000 0.82933  0.31227  0.92507  Biso   1.000  H
  C289     1.0000 0.34280  0.87700  0.20690  Biso   1.000  C
  C290     1.0000 0.12300  0.46580  0.20690  Biso   1.000  C
  C291     1.0000 0.53420  0.65720  0.20690  Biso   1.000  C
  C292     1.0000 0.00947  0.21033  0.54023  Biso   1.000  C
  C293     1.0000 0.78967  0.79913  0.54023  Biso   1.000  C
  C294     1.0000 0.20087  0.99053  0.54023  Biso   1.000  C
  C295     1.0000 0.67613  0.54367  0.87357  Biso   1.000  C
  C296     1.0000 0.45633  0.13247  0.87357  Biso   1.000  C
  C297     1.0000 0.86753  0.32387  0.87357  Biso   1.000  C
  C298     1.0000 0.29850  0.80480  0.24030  Biso   1.000  C
  C299     1.0000 0.19520  0.49370  0.24030  Biso   1.000  C
  C300     1.0000 0.50630  0.70150  0.24030  Biso   1.000  C
  C301     1.0000 0.96517  0.13813  0.57363  Biso   1.000  C
  C302     1.0000 0.86187  0.82703  0.57363  Biso   1.000  C
  C303     1.0000 0.17297  0.03483  0.57363  Biso   1.000  C
  C304     1.0000 0.63183  0.47147  0.90697  Biso   1.000  C
  C305     1.0000 0.52853  0.16037  0.90697  Biso   1.000  C
  C306     1.0000 0.83963  0.36817  0.90697  Biso   1.000  C
  H235     1.0000 0.31040  0.79200  0.22430  Biso   1.000  H
  H236     1.0000 0.20800  0.51840  0.22430  Biso   1.000  H
  H237     1.0000 0.48160  0.68960  0.22430  Biso   1.000  H
  H238     1.0000 0.97707  0.12533  0.55763  Biso   1.000  H
  H239     1.0000 0.87467  0.85173  0.55763  Biso   1.000  H
  H240     1.0000 0.14827  0.02293  0.55763  Biso   1.000  H
  H241     1.0000 0.64373  0.45867  0.89097  Biso   1.000  H
  H242     1.0000 0.54133  0.18507  0.89097  Biso   1.000  H
  H243     1.0000 0.81493  0.35627  0.89097  Biso   1.000  H
  H244     1.0000 0.29180  0.79120  0.26570  Biso   1.000  H
  H245     1.0000 0.20880  0.50060  0.26570  Biso   1.000  H
  H246     1.0000 0.49940  0.70820  0.26570  Biso   1.000  H
  H247     1.0000 0.95847  0.12453  0.59903  Biso   1.000  H
  H248     1.0000 0.87547  0.83393  0.59903  Biso   1.000  H
  H249     1.0000 0.16607  0.04153  0.59903  Biso   1.000  H
  H250     1.0000 0.62513  0.45787  0.93237  Biso   1.000  H
  H251     1.0000 0.54213  0.16727  0.93237  Biso   1.000  H
  H252     1.0000 0.83273  0.37487  0.93237  Biso   1.000  H
  C307     1.0000 0.26420  0.79820  0.22360  Biso   1.000  C
  C308     1.0000 0.20180  0.46600  0.22360  Biso   1.000  C
  C309     1.0000 0.53400  0.73580  0.22360  Biso   1.000  C
  C310     1.0000 0.93087  0.13153  0.55693  Biso   1.000  C
  C311     1.0000 0.86847  0.79933  0.55693  Biso   1.000  C
  C312     1.0000 0.20067  0.06913  0.55693  Biso   1.000  C
  C313     1.0000 0.59753  0.46487  0.89027  Biso   1.000  C
  C314     1.0000 0.53513  0.13267  0.89027  Biso   1.000  C
  C315     1.0000 0.86733  0.40247  0.89027  Biso   1.000  C
  C316     1.0000 0.23100  0.77000  0.19200  Biso   1.000  C
  C317     1.0000 0.23000  0.46100  0.19200  Biso   1.000  C
  C318     1.0000 0.53900  0.76900  0.19200  Biso   1.000  C
  C319     1.0000 0.89767  0.10333  0.52533  Biso   1.000  C
  C320     1.0000 0.89667  0.79433  0.52533  Biso   1.000  C
  C321     1.0000 0.20567  0.10233  0.52533  Biso   1.000  C
  C322     1.0000 0.56433  0.43667  0.85867  Biso   1.000  C
  C323     1.0000 0.56333  0.12767  0.85867  Biso   1.000  C
  C324     1.0000 0.87233  0.43567  0.85867  Biso   1.000  C
  H253     1.0000 0.22630  0.74590  0.18020  Biso   1.000  H
  H254     1.0000 0.25410  0.48040  0.18020  Biso   1.000  H
  H255     1.0000 0.51960  0.77370  0.18020  Biso   1.000  H
  H256     1.0000 0.89297  0.07923  0.51353  Biso   1.000  H
  H257     1.0000 0.92077  0.81373  0.51353  Biso   1.000  H
  H258     1.0000 0.18627  0.10703  0.51353  Biso   1.000  H
  H259     1.0000 0.55963  0.41257  0.84687  Biso   1.000  H
  H260     1.0000 0.58743  0.14707  0.84687  Biso   1.000  H
  H261     1.0000 0.85293  0.44037  0.84687  Biso   1.000  H
  C325     1.0000 0.21080  0.80860  0.21530  Biso   1.000  C
  C326     1.0000 0.19140  0.40220  0.21530  Biso   1.000  C
  C327     1.0000 0.59780  0.78920  0.21530  Biso   1.000  C
  C328     1.0000 0.87747  0.14193  0.54863  Biso   1.000  C
  C329     1.0000 0.85807  0.73553  0.54863  Biso   1.000  C
  C330     1.0000 0.26447  0.12253  0.54863  Biso   1.000  C
  C331     1.0000 0.54413  0.47527  0.88197  Biso   1.000  C
  C332     1.0000 0.52473  0.06887  0.88197  Biso   1.000  C
  C333     1.0000 0.93113  0.45587  0.88197  Biso   1.000  C
  H262     1.0000 0.19190  0.81760  0.21780  Biso   1.000  H
  H263     1.0000 0.18240  0.37430  0.21780  Biso   1.000  H
  H264     1.0000 0.62570  0.80810  0.21780  Biso   1.000  H
  H265     1.0000 0.85857  0.15093  0.55113  Biso   1.000  H
  H266     1.0000 0.84907  0.70763  0.55113  Biso   1.000  H
  H267     1.0000 0.29237  0.14143  0.55113  Biso   1.000  H
  H268     1.0000 0.52523  0.48427  0.88447  Biso   1.000  H
  H269     1.0000 0.51573  0.04097  0.88447  Biso   1.000  H
  H270     1.0000 0.95903  0.47477  0.88447  Biso   1.000  H
  C334     1.0000 0.21640  0.89160  0.33740  Biso   1.000  C
  C335     1.0000 0.10840  0.32480  0.33740  Biso   1.000  C
  C336     1.0000 0.67520  0.78360  0.33740  Biso   1.000  C
  C337     1.0000 0.88307  0.22493  0.67073  Biso   1.000  C
  C338     1.0000 0.77507  0.65813  0.67073  Biso   1.000  C
  C339     1.0000 0.34187  0.11693  0.67073  Biso   1.000  C
  C340     1.0000 0.54973  0.55827  0.00407  Biso   1.000  C
  C341     1.0000 0.44173  0.99147  0.00407  Biso   1.000  C
  C342     1.0000 0.00853  0.45027  0.00407  Biso   1.000  C
  H271     1.0000 0.20420  0.90010  0.35780  Biso   1.000  H
  H272     1.0000 0.09990  0.30410  0.35780  Biso   1.000  H
  H273     1.0000 0.69590  0.79580  0.35780  Biso   1.000  H
  H274     1.0000 0.87087  0.23343  0.69113  Biso   1.000  H
  H275     1.0000 0.76657  0.63743  0.69113  Biso   1.000  H
  H276     1.0000 0.36257  0.12913  0.69113  Biso   1.000  H
  H277     1.0000 0.53753  0.56677  0.02447  Biso   1.000  H
  H278     1.0000 0.43323  0.97077  0.02447  Biso   1.000  H
  H279     1.0000 0.02923  0.46247  0.02447  Biso   1.000  H
  H280     1.0000 0.21620  0.90550  0.31350  Biso   1.000  H
  H281     1.0000 0.09450  0.31070  0.31350  Biso   1.000  H
  H282     1.0000 0.68930  0.78380  0.31350  Biso   1.000  H
  H283     1.0000 0.88287  0.23883  0.64683  Biso   1.000  H
  H284     1.0000 0.76117  0.64403  0.64683  Biso   1.000  H
  H285     1.0000 0.35597  0.11713  0.64683  Biso   1.000  H
  H286     1.0000 0.54953  0.57217  0.98017  Biso   1.000  H
  H287     1.0000 0.42783  0.97737  0.98017  Biso   1.000  H
  H288     1.0000 0.02263  0.45047  0.98017  Biso   1.000  H
  C343     1.0000 0.19100  0.85010  0.33160  Biso   1.000  C
  C344     1.0000 0.14990  0.34090  0.33160  Biso   1.000  C
  C345     1.0000 0.65910  0.80900  0.33160  Biso   1.000  C
  C346     1.0000 0.85767  0.18343  0.66493  Biso   1.000  C
  C347     1.0000 0.81657  0.67423  0.66493  Biso   1.000  C
  C348     1.0000 0.32577  0.14233  0.66493  Biso   1.000  C
  C349     1.0000 0.52433  0.51677  0.99827  Biso   1.000  C
  C350     1.0000 0.48323  0.00757  0.99827  Biso   1.000  C
  C351     1.0000 0.99243  0.47567  0.99827  Biso   1.000  C
  C352     1.0000 0.26010  0.88910  0.38960  Biso   1.000  C
  C353     1.0000 0.11090  0.37100  0.38960  Biso   1.000  C
  C354     1.0000 0.62900  0.73990  0.38960  Biso   1.000  C
  C355     1.0000 0.92677  0.22243  0.72293  Biso   1.000  C
  C356     1.0000 0.77757  0.70433  0.72293  Biso   1.000  C
  C357     1.0000 0.29567  0.07323  0.72293  Biso   1.000  C
  C358     1.0000 0.59343  0.55577  0.05627  Biso   1.000  C
  C359     1.0000 0.44423  0.03767  0.05627  Biso   1.000  C
  C360     1.0000 0.96233  0.40657  0.05627  Biso   1.000  C
  C361     1.0000 0.66280  0.82270  0.45860  Biso   1.000  C
  C362     1.0000 0.17730  0.84010  0.45860  Biso   1.000  C
  C363     1.0000 0.15990  0.33720  0.45860  Biso   1.000  C
  C364     1.0000 0.32947  0.15603  0.79193  Biso   1.000  C
  C365     1.0000 0.84397  0.17343  0.79193  Biso   1.000  C
  C366     1.0000 0.82657  0.67053  0.79193  Biso   1.000  C
  C367     1.0000 0.99613  0.48937  0.12527  Biso   1.000  C
  C368     1.0000 0.51063  0.50677  0.12527  Biso   1.000  C
  C369     1.0000 0.49323  0.00387  0.12527  Biso   1.000  C
  H289     1.0000 0.67790  0.82370  0.43640  Biso   1.000  H
  H290     1.0000 0.17630  0.85420  0.43640  Biso   1.000  H
  H291     1.0000 0.14580  0.32210  0.43640  Biso   1.000  H
  H292     1.0000 0.34457  0.15703  0.76973  Biso   1.000  H
  H293     1.0000 0.84297  0.18753  0.76973  Biso   1.000  H
  H294     1.0000 0.81247  0.65543  0.76973  Biso   1.000  H
  H295     1.0000 0.01123  0.49037  0.10307  Biso   1.000  H
  H296     1.0000 0.50963  0.52087  0.10307  Biso   1.000  H
  H297     1.0000 0.47913  0.98877  0.10307  Biso   1.000  H
  C370     1.0000 0.34480  0.92380  0.48420  Biso   1.000  C
  C371     1.0000 0.07620  0.42100  0.48420  Biso   1.000  C
  C372     1.0000 0.57900  0.65520  0.48420  Biso   1.000  C
  C373     1.0000 0.01147  0.25713  0.81753  Biso   1.000  C
  C374     1.0000 0.74287  0.75433  0.81753  Biso   1.000  C
  C375     1.0000 0.24567  0.98853  0.81753  Biso   1.000  C
  C376     1.0000 0.67813  0.59047  0.15087  Biso   1.000  C
  C377     1.0000 0.40953  0.08767  0.15087  Biso   1.000  C
  C378     1.0000 0.91233  0.32187  0.15087  Biso   1.000  C
  C379     1.0000 0.32770  0.89260  0.51510  Biso   1.000  C
  C380     1.0000 0.10740  0.43510  0.51510  Biso   1.000  C
  C381     1.0000 0.56490  0.67230  0.51510  Biso   1.000  C
  C382     1.0000 0.99437  0.22593  0.84843  Biso   1.000  C
  C383     1.0000 0.77407  0.76843  0.84843  Biso   1.000  C
  C384     1.0000 0.23157  0.00563  0.84843  Biso   1.000  C
  C385     1.0000 0.66103  0.55927  0.18177  Biso   1.000  C
  C386     1.0000 0.44073  0.10177  0.18177  Biso   1.000  C
  C387     1.0000 0.89823  0.33897  0.18177  Biso   1.000  C
  C388     1.0000 0.33440  0.85490  0.56540  Biso   1.000  C
  C389     1.0000 0.14510  0.47950  0.56540  Biso   1.000  C
  C390     1.0000 0.52050  0.66560  0.56540  Biso   1.000  C
  C391     1.0000 0.00107  0.18823  0.89873  Biso   1.000  C
  C392     1.0000 0.81177  0.81283  0.89873  Biso   1.000  C
  C393     1.0000 0.18717  0.99893  0.89873  Biso   1.000  C
  C394     1.0000 0.66773  0.52157  0.23207  Biso   1.000  C
  C395     1.0000 0.47843  0.14617  0.23207  Biso   1.000  C
  C396     1.0000 0.85383  0.33227  0.23207  Biso   1.000  C
  H298     1.0000 0.30850  0.83320  0.55430  Biso   1.000  H
  H299     1.0000 0.16680  0.47530  0.55430  Biso   1.000  H
  H300     1.0000 0.52470  0.69150  0.55430  Biso   1.000  H
  H301     1.0000 0.97517  0.16653  0.88763  Biso   1.000  H
  H302     1.0000 0.83347  0.80863  0.88763  Biso   1.000  H
  H303     1.0000 0.19137  0.02483  0.88763  Biso   1.000  H
  H304     1.0000 0.64183  0.49987  0.22097  Biso   1.000  H
  H305     1.0000 0.50013  0.14197  0.22097  Biso   1.000  H
  H306     1.0000 0.85803  0.35817  0.22097  Biso   1.000  H
  C397     1.0000 0.36070  0.83830  0.56810  Biso   1.000  C
  C398     1.0000 0.16170  0.52240  0.56810  Biso   1.000  C
  C399     1.0000 0.47760  0.63930  0.56810  Biso   1.000  C
  C400     1.0000 0.02737  0.17163  0.90143  Biso   1.000  C
  C401     1.0000 0.82837  0.85573  0.90143  Biso   1.000  C
  C402     1.0000 0.14427  0.97263  0.90143  Biso   1.000  C
  C403     1.0000 0.69403  0.50497  0.23477  Biso   1.000  C
  C404     1.0000 0.49503  0.18907  0.23477  Biso   1.000  C
  C405     1.0000 0.81093  0.30597  0.23477  Biso   1.000  C
  H307     1.0000 0.36520  0.83020  0.54230  Biso   1.000  H
  H308     1.0000 0.16980  0.53500  0.54230  Biso   1.000  H
  H309     1.0000 0.46500  0.63480  0.54230  Biso   1.000  H
  H310     1.0000 0.03187  0.16353  0.87563  Biso   1.000  H
  H311     1.0000 0.83647  0.86833  0.87563  Biso   1.000  H
  H312     1.0000 0.13167  0.96813  0.87563  Biso   1.000  H
  H313     1.0000 0.69853  0.49687  0.20897  Biso   1.000  H
  H314     1.0000 0.50313  0.20167  0.20897  Biso   1.000  H
  H315     1.0000 0.79833  0.30147  0.20897  Biso   1.000  H
  H316     1.0000 0.34860  0.81420  0.58500  Biso   1.000  H
  H317     1.0000 0.18580  0.53440  0.58500  Biso   1.000  H
  H318     1.0000 0.46560  0.65140  0.58500  Biso   1.000  H
  H319     1.0000 0.01527  0.14753  0.91833  Biso   1.000  H
  H320     1.0000 0.85247  0.86773  0.91833  Biso   1.000  H
  H321     1.0000 0.13227  0.98473  0.91833  Biso   1.000  H
  H322     1.0000 0.68193  0.48087  0.25167  Biso   1.000  H
  H323     1.0000 0.51913  0.20107  0.25167  Biso   1.000  H
  H324     1.0000 0.79893  0.31807  0.25167  Biso   1.000  H
  C406     1.0000 0.32480  0.86630  0.59950  Biso   1.000  C
  C407     1.0000 0.13370  0.45850  0.59950  Biso   1.000  C
  C408     1.0000 0.54150  0.67520  0.59950  Biso   1.000  C
  C409     1.0000 0.99147  0.19963  0.93283  Biso   1.000  C
  C410     1.0000 0.80037  0.79183  0.93283  Biso   1.000  C
  C411     1.0000 0.20817  0.00853  0.93283  Biso   1.000  C
  C412     1.0000 0.65813  0.53297  0.26617  Biso   1.000  C
  C413     1.0000 0.46703  0.12517  0.26617  Biso   1.000  C
  C414     1.0000 0.87483  0.34187  0.26617  Biso   1.000  C
  C415     1.0000 0.40810  0.98080  0.45800  Biso   1.000  C
  C416     1.0000 0.01920  0.42730  0.45800  Biso   1.000  C
  C417     1.0000 0.57270  0.59190  0.45800  Biso   1.000  C
  C418     1.0000 0.07477  0.31413  0.79133  Biso   1.000  C
  C419     1.0000 0.68587  0.76063  0.79133  Biso   1.000  C
  C420     1.0000 0.23937  0.92523  0.79133  Biso   1.000  C
  C421     1.0000 0.74143  0.64747  0.12467  Biso   1.000  C
  C422     1.0000 0.35253  0.09397  0.12467  Biso   1.000  C
  C423     1.0000 0.90603  0.25857  0.12467  Biso   1.000  C
  H325     1.0000 0.39160  0.99430  0.45630  Biso   1.000  H
  H326     1.0000 0.00570  0.39730  0.45630  Biso   1.000  H
  H327     1.0000 0.60270  0.60840  0.45630  Biso   1.000  H
  H328     1.0000 0.05827  0.32763  0.78963  Biso   1.000  H
  H329     1.0000 0.67237  0.73063  0.78963  Biso   1.000  H
  H330     1.0000 0.26937  0.94173  0.78963  Biso   1.000  H
  H331     1.0000 0.72493  0.66097  0.12297  Biso   1.000  H
  H332     1.0000 0.33903  0.06397  0.12297  Biso   1.000  H
  H333     1.0000 0.93603  0.27507  0.12297  Biso   1.000  H
  C424     1.0000 0.40630  0.96230  0.41700  Biso   1.000  C
  C425     1.0000 0.03770  0.44400  0.41700  Biso   1.000  C
  C426     1.0000 0.55600  0.59370  0.41700  Biso   1.000  C
  C427     1.0000 0.07297  0.29563  0.75033  Biso   1.000  C
  C428     1.0000 0.70437  0.77733  0.75033  Biso   1.000  C
  C429     1.0000 0.22267  0.92703  0.75033  Biso   1.000  C
  C430     1.0000 0.73963  0.62897  0.08367  Biso   1.000  C
  C431     1.0000 0.37103  0.11067  0.08367  Biso   1.000  C
  C432     1.0000 0.88933  0.26037  0.08367  Biso   1.000  C
  C433     1.0000 0.44640  0.01040  0.47100  Biso   1.000  C
  C434     1.0000 0.98960  0.43600  0.47100  Biso   1.000  C
  C435     1.0000 0.56400  0.55360  0.47100  Biso   1.000  C
  C436     1.0000 0.11307  0.34373  0.80433  Biso   1.000  C
  C437     1.0000 0.65627  0.76933  0.80433  Biso   1.000  C
  C438     1.0000 0.23067  0.88693  0.80433  Biso   1.000  C
  C439     1.0000 0.77973  0.67707  0.13767  Biso   1.000  C
  C440     1.0000 0.32293  0.10267  0.13767  Biso   1.000  C
  C441     1.0000 0.89733  0.22027  0.13767  Biso   1.000  C
  H334     1.0000 0.45350  0.03770  0.47530  Biso   1.000  H
  H335     1.0000 0.96230  0.41580  0.47530  Biso   1.000  H
  H336     1.0000 0.58420  0.54650  0.47530  Biso   1.000  H
  H337     1.0000 0.12017  0.37103  0.80863  Biso   1.000  H
  H338     1.0000 0.62897  0.74913  0.80863  Biso   1.000  H
  H339     1.0000 0.25087  0.87983  0.80863  Biso   1.000  H
  H340     1.0000 0.78683  0.70437  0.14197  Biso   1.000  H
  H341     1.0000 0.29563  0.08247  0.14197  Biso   1.000  H
  H342     1.0000 0.91753  0.21317  0.14197  Biso   1.000  H
  C442     1.0000 0.47720  0.99390  0.47780  Biso   1.000  C
  C443     1.0000 0.00610  0.48330  0.47780  Biso   1.000  C
  C444     1.0000 0.51670  0.52280  0.47780  Biso   1.000  C
  C445     1.0000 0.14387  0.32723  0.81113  Biso   1.000  C
  C446     1.0000 0.67277  0.81663  0.81113  Biso   1.000  C
  C447     1.0000 0.18337  0.85613  0.81113  Biso   1.000  C
  C448     1.0000 0.81053  0.66057  0.14447  Biso   1.000  C
  C449     1.0000 0.33943  0.14997  0.14447  Biso   1.000  C
  C450     1.0000 0.85003  0.18947  0.14447  Biso   1.000  C
  C451     1.0000 0.49440  0.95300  0.50270  Biso   1.000  C
  C452     1.0000 0.04700  0.54140  0.50270  Biso   1.000  C
  C453     1.0000 0.45860  0.50560  0.50270  Biso   1.000  C
  C454     1.0000 0.16107  0.28633  0.83603  Biso   1.000  C
  C455     1.0000 0.71367  0.87473  0.83603  Biso   1.000  C
  C456     1.0000 0.12527  0.83893  0.83603  Biso   1.000  C
  C457     1.0000 0.82773  0.61967  0.16937  Biso   1.000  C
  C458     1.0000 0.38033  0.20807  0.16937  Biso   1.000  C
  C459     1.0000 0.79193  0.17227  0.16937  Biso   1.000  C
  H343     1.0000 0.49320  0.93050  0.51540  Biso   1.000  H
  H344     1.0000 0.06950  0.56270  0.51540  Biso   1.000  H
  H345     1.0000 0.43730  0.50680  0.51540  Biso   1.000  H
  H346     1.0000 0.15987  0.26383  0.84873  Biso   1.000  H
  H347     1.0000 0.73617  0.89603  0.84873  Biso   1.000  H
  H348     1.0000 0.10397  0.84013  0.84873  Biso   1.000  H
  H349     1.0000 0.82653  0.59717  0.18207  Biso   1.000  H
  H350     1.0000 0.40283  0.22937  0.18207  Biso   1.000  H
  H351     1.0000 0.77063  0.17347  0.18207  Biso   1.000  H
  C460     1.0000 0.51430  0.00360  0.46350  Biso   1.000  C
  C461     1.0000 0.99640  0.51070  0.46350  Biso   1.000  C
  C462     1.0000 0.48930  0.48570  0.46350  Biso   1.000  C
  C463     1.0000 0.18097  0.33693  0.79683  Biso   1.000  C
  C464     1.0000 0.66307  0.84403  0.79683  Biso   1.000  C
  C465     1.0000 0.15597  0.81903  0.79683  Biso   1.000  C
  C466     1.0000 0.84763  0.67027  0.13017  Biso   1.000  C
  C467     1.0000 0.32973  0.17737  0.13017  Biso   1.000  C
  C468     1.0000 0.82263  0.15237  0.13017  Biso   1.000  C
  H352     1.0000 0.52960  0.02380  0.44490  Biso   1.000  H
  H353     1.0000 0.97620  0.50580  0.44490  Biso   1.000  H
  H354     1.0000 0.49420  0.47040  0.44490  Biso   1.000  H
  H355     1.0000 0.19627  0.35713  0.77823  Biso   1.000  H
  H356     1.0000 0.64287  0.83913  0.77823  Biso   1.000  H
  H357     1.0000 0.16087  0.80373  0.77823  Biso   1.000  H
  H358     1.0000 0.86293  0.69047  0.11157  Biso   1.000  H
  H359     1.0000 0.30953  0.17247  0.11157  Biso   1.000  H
  H360     1.0000 0.82753  0.13707  0.11157  Biso   1.000  H
  C469     1.0000 0.15590  0.82410  0.34540  Biso   1.000  C
  C470     1.0000 0.17590  0.33180  0.34540  Biso   1.000  C
  C471     1.0000 0.66820  0.84410  0.34540  Biso   1.000  C
  C472     1.0000 0.82257  0.15743  0.67873  Biso   1.000  C
  C473     1.0000 0.84257  0.66513  0.67873  Biso   1.000  C
  C474     1.0000 0.33487  0.17743  0.67873  Biso   1.000  C
  C475     1.0000 0.48923  0.49077  0.01207  Biso   1.000  C
  C476     1.0000 0.50923  0.99847  0.01207  Biso   1.000  C
  C477     1.0000 0.00153  0.51077  0.01207  Biso   1.000  C
  H361     1.0000 0.14180  0.82950  0.36490  Biso   1.000  H
  H362     1.0000 0.17050  0.31230  0.36490  Biso   1.000  H
  H363     1.0000 0.68770  0.85820  0.36490  Biso   1.000  H
  H364     1.0000 0.80847  0.16283  0.69823  Biso   1.000  H
  H365     1.0000 0.83717  0.64563  0.69823  Biso   1.000  H
  H366     1.0000 0.35437  0.19153  0.69823  Biso   1.000  H
  H367     1.0000 0.47513  0.49617  0.03157  Biso   1.000  H
  H368     1.0000 0.50383  0.97897  0.03157  Biso   1.000  H
  H369     1.0000 0.02103  0.52487  0.03157  Biso   1.000  H
  C478     1.0000 0.16860  0.79110  0.30440  Biso   1.000  C
  C479     1.0000 0.20890  0.37750  0.30440  Biso   1.000  C
  C480     1.0000 0.62250  0.83140  0.30440  Biso   1.000  C
  C481     1.0000 0.83527  0.12443  0.63773  Biso   1.000  C
  C482     1.0000 0.87557  0.71083  0.63773  Biso   1.000  C
  C483     1.0000 0.28917  0.16473  0.63773  Biso   1.000  C
  C484     1.0000 0.50193  0.45777  0.97107  Biso   1.000  C
  C485     1.0000 0.54223  0.04417  0.97107  Biso   1.000  C
  C486     1.0000 0.95583  0.49807  0.97107  Biso   1.000  C
  H370     1.0000 0.16670  0.77010  0.28820  Biso   1.000  H
  H371     1.0000 0.22990  0.39660  0.28820  Biso   1.000  H
  H372     1.0000 0.60340  0.83330  0.28820  Biso   1.000  H
  H373     1.0000 0.83337  0.10343  0.62153  Biso   1.000  H
  H374     1.0000 0.89657  0.72993  0.62153  Biso   1.000  H
  H375     1.0000 0.27007  0.16663  0.62153  Biso   1.000  H
  H376     1.0000 0.50003  0.43677  0.95487  Biso   1.000  H
  H377     1.0000 0.56323  0.06327  0.95487  Biso   1.000  H
  H378     1.0000 0.93673  0.49997  0.95487  Biso   1.000  H
  C487     1.0000 0.25840  0.90650  0.34790  Biso   1.000  C
  C488     1.0000 0.09350  0.35190  0.34790  Biso   1.000  C
  C489     1.0000 0.64810  0.74160  0.34790  Biso   1.000  C
  C490     1.0000 0.92507  0.23983  0.68123  Biso   1.000  C
  C491     1.0000 0.76017  0.68523  0.68123  Biso   1.000  C
  C492     1.0000 0.31477  0.07493  0.68123  Biso   1.000  C
  C493     1.0000 0.59173  0.57317  0.01457  Biso   1.000  C
  C494     1.0000 0.42683  0.01857  0.01457  Biso   1.000  C
  C495     1.0000 0.98143  0.40827  0.01457  Biso   1.000  C
  H379     1.0000 0.27260  0.93670  0.34920  Biso   1.000  H
  H380     1.0000 0.06330  0.33590  0.34920  Biso   1.000  H
  H381     1.0000 0.66410  0.72740  0.34920  Biso   1.000  H
  H382     1.0000 0.93927  0.27003  0.68253  Biso   1.000  H
  H383     1.0000 0.72997  0.66923  0.68253  Biso   1.000  H
  H384     1.0000 0.33077  0.06073  0.68253  Biso   1.000  H
  H385     1.0000 0.60593  0.60337  0.01587  Biso   1.000  H
  H386     1.0000 0.39663  0.00257  0.01587  Biso   1.000  H
  H387     1.0000 0.99743  0.39407  0.01587  Biso   1.000  H
  C496     1.0000 0.57830  0.91560  0.19260  Biso   1.000  C
  C497     1.0000 0.08440  0.66270  0.19260  Biso   1.000  C
  C498     1.0000 0.33730  0.42170  0.19260  Biso   1.000  C
  C499     1.0000 0.24497  0.24893  0.52593  Biso   1.000  C
  C500     1.0000 0.75107  0.99603  0.52593  Biso   1.000  C
  C501     1.0000 0.00397  0.75503  0.52593  Biso   1.000  C
  C502     1.0000 0.91163  0.58227  0.85927  Biso   1.000  C
  C503     1.0000 0.41773  0.32937  0.85927  Biso   1.000  C
  C504     1.0000 0.67063  0.08837  0.85927  Biso   1.000  C
  O262     1.0000 0.25660  0.79520  0.32730  Biso   1.000  O
  O263     1.0000 0.20480  0.46140  0.32730  Biso   1.000  O
  O264     1.0000 0.53860  0.74340  0.32730  Biso   1.000  O
  O265     1.0000 0.92327  0.12853  0.66063  Biso   1.000  O
  O266     1.0000 0.87147  0.79473  0.66063  Biso   1.000  O
  O267     1.0000 0.20527  0.07673  0.66063  Biso   1.000  O
  O268     1.0000 0.58993  0.46187  0.99397  Biso   1.000  O
  O269     1.0000 0.53813  0.12807  0.99397  Biso   1.000  O
  O270     1.0000 0.87193  0.41007  0.99397  Biso   1.000  O
  O271     1.0000 0.41180  0.87170  0.48070  Biso   1.000  O
  O272     1.0000 0.12830  0.54010  0.48070  Biso   1.000  O
  O273     1.0000 0.45990  0.58820  0.48070  Biso   1.000  O
  O274     1.0000 0.07847  0.20503  0.81403  Biso   1.000  O
  O275     1.0000 0.79497  0.87343  0.81403  Biso   1.000  O
  O276     1.0000 0.12657  0.92153  0.81403  Biso   1.000  O
  O277     1.0000 0.74513  0.53837  0.14737  Biso   1.000  O
  O278     1.0000 0.46163  0.20677  0.14737  Biso   1.000  O
  O279     1.0000 0.79323  0.25487  0.14737  Biso   1.000  O
  Ca1      1.0000 0.47570  0.80540  0.45580  Biso   1.000  Ca
  Ca2      1.0000 0.19460  0.67030  0.45580  Biso   1.000  Ca
  Ca3      1.0000 0.32970  0.52430  0.45580  Biso   1.000  Ca
  Ca4      1.0000 0.14237  0.13873  0.78913  Biso   1.000  Ca
  Ca5      1.0000 0.86127  0.00363  0.78913  Biso   1.000  Ca
  Ca6      1.0000 0.99637  0.85763  0.78913  Biso   1.000  Ca
  Ca7      1.0000 0.80903  0.47207  0.12247  Biso   1.000  Ca
  Ca8      1.0000 0.52793  0.33697  0.12247  Biso   1.000  Ca
  Ca9      1.0000 0.66303  0.19097  0.12247  Biso   1.000  Ca
  Ca10     1.0000 0.47360  0.81020  0.35230  Biso   1.000  Ca
  Ca11     1.0000 0.18980  0.66340  0.35230  Biso   1.000  Ca
  Ca12     1.0000 0.33660  0.52640  0.35230  Biso   1.000  Ca
  Ca13     1.0000 0.14027  0.14353  0.68563  Biso   1.000  Ca
  Ca14     1.0000 0.85647  0.99673  0.68563  Biso   1.000  Ca
  Ca15     1.0000 0.00327  0.85973  0.68563  Biso   1.000  Ca
  Ca16     1.0000 0.80693  0.47687  0.01897  Biso   1.000  Ca
  Ca17     1.0000 0.52313  0.33007  0.01897  Biso   1.000  Ca
  Ca18     1.0000 0.66993  0.19307  0.01897  Biso   1.000  Ca
  O280     1.0000 0.49050  0.77070  0.39880  Biso   1.000  O
  O281     1.0000 0.22930  0.71980  0.39880  Biso   1.000  O
  O282     1.0000 0.28020  0.50950  0.39880  Biso   1.000  O
  O283     1.0000 0.15717  0.10403  0.73213  Biso   1.000  O
  O284     1.0000 0.89597  0.05313  0.73213  Biso   1.000  O
  O285     1.0000 0.94687  0.84283  0.73213  Biso   1.000  O
  O286     1.0000 0.82383  0.43737  0.06547  Biso   1.000  O
  O287     1.0000 0.56263  0.38647  0.06547  Biso   1.000  O
  O288     1.0000 0.61353  0.17617  0.06547  Biso   1.000  O
  O289     1.0000 0.43690  0.82290  0.40350  Biso   1.000  O
  O290     1.0000 0.17710  0.61400  0.40350  Biso   1.000  O
  O291     1.0000 0.38600  0.56310  0.40350  Biso   1.000  O
  O292     1.0000 0.10357  0.15623  0.73683  Biso   1.000  O
  O293     1.0000 0.84377  0.94733  0.73683  Biso   1.000  O
  O294     1.0000 0.05267  0.89643  0.73683  Biso   1.000  O
  O295     1.0000 0.77023  0.48957  0.07017  Biso   1.000  O
  O296     1.0000 0.51043  0.28067  0.07017  Biso   1.000  O
  O297     1.0000 0.71933  0.22977  0.07017  Biso   1.000  O
  O298     1.0000 0.54270  0.81820  0.47560  Biso   1.000  O
  O299     1.0000 0.18180  0.72450  0.47560  Biso   1.000  O
  O300     1.0000 0.27550  0.45730  0.47560  Biso   1.000  O
  O301     1.0000 0.20937  0.15153  0.80893  Biso   1.000  O
  O302     1.0000 0.84847  0.05783  0.80893  Biso   1.000  O
  O303     1.0000 0.94217  0.79063  0.80893  Biso   1.000  O
  O304     1.0000 0.87603  0.48487  0.14227  Biso   1.000  O
  O305     1.0000 0.51513  0.39117  0.14227  Biso   1.000  O
  O306     1.0000 0.60883  0.12397  0.14227  Biso   1.000  O
  O307     1.0000 0.45800  0.84260  0.50330  Biso   1.000  O
  O308     1.0000 0.15740  0.61540  0.50330  Biso   1.000  O
  O309     1.0000 0.38460  0.54200  0.50330  Biso   1.000  O
  O310     1.0000 0.12467  0.17593  0.83663  Biso   1.000  O
  O311     1.0000 0.82407  0.94873  0.83663  Biso   1.000  O
  O312     1.0000 0.05127  0.87533  0.83663  Biso   1.000  O
  O313     1.0000 0.79133  0.50927  0.16997  Biso   1.000  O
  O314     1.0000 0.49073  0.28207  0.16997  Biso   1.000  O
  O315     1.0000 0.71793  0.20867  0.16997  Biso   1.000  O
  O316     1.0000 0.42200  0.73700  0.46100  Biso   1.000  O
  O317     1.0000 0.26300  0.68500  0.46100  Biso   1.000  O
  O318     1.0000 0.31500  0.57800  0.46100  Biso   1.000  O
  O319     1.0000 0.08867  0.07033  0.79433  Biso   1.000  O
  O320     1.0000 0.92967  0.01833  0.79433  Biso   1.000  O
  O321     1.0000 0.98167  0.91133  0.79433  Biso   1.000  O
  O322     1.0000 0.75533  0.40367  0.12767  Biso   1.000  O
  O323     1.0000 0.59633  0.35167  0.12767  Biso   1.000  O
  O324     1.0000 0.64833  0.24467  0.12767  Biso   1.000  O
  O325     1.0000 0.53010  0.86960  0.44180  Biso   1.000  O
  O326     1.0000 0.13040  0.66050  0.44180  Biso   1.000  O
  O327     1.0000 0.33950  0.46990  0.44180  Biso   1.000  O
  O328     1.0000 0.19677  0.20293  0.77513  Biso   1.000  O
  O329     1.0000 0.79707  0.99383  0.77513  Biso   1.000  O
  O330     1.0000 0.00617  0.80323  0.77513  Biso   1.000  O
  O331     1.0000 0.86343  0.53627  0.10847  Biso   1.000  O
  O332     1.0000 0.46373  0.32717  0.10847  Biso   1.000  O
  O333     1.0000 0.67283  0.13657  0.10847  Biso   1.000  O
  O334     1.0000 0.40700  0.74300  0.36910  Biso   1.000  O
  O335     1.0000 0.25700  0.66400  0.36910  Biso   1.000  O
  O336     1.0000 0.33600  0.59300  0.36910  Biso   1.000  O
  O337     1.0000 0.07367  0.07633  0.70243  Biso   1.000  O
  O338     1.0000 0.92367  0.99733  0.70243  Biso   1.000  O
  O339     1.0000 0.00267  0.92633  0.70243  Biso   1.000  O
  O340     1.0000 0.74033  0.40967  0.03577  Biso   1.000  O
  O341     1.0000 0.59033  0.33067  0.03577  Biso   1.000  O
  O342     1.0000 0.66933  0.25967  0.03577  Biso   1.000  O
  O343     1.0000 0.53620  0.86160  0.36960  Biso   1.000  O
  O344     1.0000 0.13840  0.67460  0.36960  Biso   1.000  O
  O345     1.0000 0.32540  0.46380  0.36960  Biso   1.000  O
  O346     1.0000 0.20287  0.19493  0.70293  Biso   1.000  O
  O347     1.0000 0.80507  0.00793  0.70293  Biso   1.000  O
  O348     1.0000 0.99207  0.79713  0.70293  Biso   1.000  O
  O349     1.0000 0.86953  0.52827  0.03627  Biso   1.000  O
  O350     1.0000 0.47173  0.34127  0.03627  Biso   1.000  O
  O351     1.0000 0.65873  0.13047  0.03627  Biso   1.000  O
  O352     1.0000 0.51380  0.79460  0.30590  Biso   1.000  O
  O353     1.0000 0.20540  0.71920  0.30590  Biso   1.000  O
  O354     1.0000 0.28080  0.48620  0.30590  Biso   1.000  O
  O355     1.0000 0.18047  0.12793  0.63923  Biso   1.000  O
  O356     1.0000 0.87207  0.05253  0.63923  Biso   1.000  O
  O357     1.0000 0.94747  0.81953  0.63923  Biso   1.000  O
  O358     1.0000 0.84713  0.46127  0.97257  Biso   1.000  O
  O359     1.0000 0.53873  0.38587  0.97257  Biso   1.000  O
  O360     1.0000 0.61413  0.15287  0.97257  Biso   1.000  O
  O361     1.0000 0.48540  0.87630  0.32920  Biso   1.000  O
  O362     1.0000 0.12370  0.60910  0.32920  Biso   1.000  O
  O363     1.0000 0.39090  0.51460  0.32920  Biso   1.000  O
  O364     1.0000 0.15207  0.20963  0.66253  Biso   1.000  O
  O365     1.0000 0.79037  0.94243  0.66253  Biso   1.000  O
  O366     1.0000 0.05757  0.84793  0.66253  Biso   1.000  O
  O367     1.0000 0.81873  0.54297  0.99587  Biso   1.000  O
  O368     1.0000 0.45703  0.27577  0.99587  Biso   1.000  O
  O369     1.0000 0.72423  0.18127  0.99587  Biso   1.000  O
  O370     1.0000 0.39850  0.91800  0.13340  Biso   1.000  O
  O371     1.0000 0.08200  0.48050  0.13340  Biso   1.000  O
  O372     1.0000 0.51950  0.60150  0.13340  Biso   1.000  O
  O373     1.0000 0.06517  0.25133  0.46673  Biso   1.000  O
  O374     1.0000 0.74867  0.81383  0.46673  Biso   1.000  O
  O375     1.0000 0.18617  0.93483  0.46673  Biso   1.000  O
  O376     1.0000 0.73183  0.58467  0.80007  Biso   1.000  O
  O377     1.0000 0.41533  0.14717  0.80007  Biso   1.000  O
  O378     1.0000 0.85283  0.26817  0.80007  Biso   1.000  O
  O379     1.0000 0.37410  0.97790  0.57120  Biso   1.000  O
  O380     1.0000 0.02210  0.39620  0.57120  Biso   1.000  O
  O381     1.0000 0.60380  0.62590  0.57120  Biso   1.000  O
  O382     1.0000 0.04077  0.31123  0.90453  Biso   1.000  O
  O383     1.0000 0.68877  0.72953  0.90453  Biso   1.000  O
  O384     1.0000 0.27047  0.95923  0.90453  Biso   1.000  O
  O385     1.0000 0.70743  0.64457  0.23787  Biso   1.000  O
  O386     1.0000 0.35543  0.06287  0.23787  Biso   1.000  O
  O387     1.0000 0.93713  0.29257  0.23787  Biso   1.000  O
  O388     1.0000 0.33850  0.00510  0.51860  Biso   1.000  O
  O389     1.0000 0.99490  0.33340  0.51860  Biso   1.000  O
  O390     1.0000 0.66660  0.66150  0.51860  Biso   1.000  O
  O391     1.0000 0.00517  0.33843  0.85193  Biso   1.000  O
  O392     1.0000 0.66157  0.66673  0.85193  Biso   1.000  O
  O393     1.0000 0.33327  0.99483  0.85193  Biso   1.000  O
  O394     1.0000 0.67183  0.67177  0.18527  Biso   1.000  O
  O395     1.0000 0.32823  0.00007  0.18527  Biso   1.000  O
  O396     1.0000 0.99993  0.32817  0.18527  Biso   1.000  O
  O397     1.0000 0.45760  0.90160  0.40480  Biso   1.000  O
  O398     1.0000 0.09840  0.55600  0.40480  Biso   1.000  O
  O399     1.0000 0.44400  0.54240  0.40480  Biso   1.000  O
  O400     1.0000 0.12427  0.23493  0.73813  Biso   1.000  O
  O401     1.0000 0.76507  0.88933  0.73813  Biso   1.000  O
  O402     1.0000 0.11067  0.87573  0.73813  Biso   1.000  O
  O403     1.0000 0.79093  0.56827  0.07147  Biso   1.000  O
  O404     1.0000 0.43173  0.22267  0.07147  Biso   1.000  O
  O405     1.0000 0.77733  0.20907  0.07147  Biso   1.000  O
  O406     1.0000 0.25380  0.06760  0.00750  Biso   1.000  O
  O407     1.0000 0.93240  0.18620  0.00750  Biso   1.000  O
  O408     1.0000 0.81380  0.74620  0.00750  Biso   1.000  O
  O409     1.0000 0.92047  0.40093  0.34083  Biso   1.000  O
  O410     1.0000 0.59907  0.51953  0.34083  Biso   1.000  O
  O411     1.0000 0.48047  0.07953  0.34083  Biso   1.000  O
  O412     1.0000 0.58713  0.73427  0.67417  Biso   1.000  O
  O413     1.0000 0.26573  0.85287  0.67417  Biso   1.000  O
  O414     1.0000 0.14713  0.41287  0.67417  Biso   1.000  O
  O415     1.0000 0.29270  0.89870  0.12940  Biso   1.000  O
  O416     1.0000 0.10130  0.39400  0.12940  Biso   1.000  O
  O417     1.0000 0.60600  0.70730  0.12940  Biso   1.000  O
  O418     1.0000 0.95937  0.23203  0.46273  Biso   1.000  O
  O419     1.0000 0.76797  0.72733  0.46273  Biso   1.000  O
  O420     1.0000 0.27267  0.04063  0.46273  Biso   1.000  O
  O421     1.0000 0.62603  0.56537  0.79607  Biso   1.000  O
  O422     1.0000 0.43463  0.06067  0.79607  Biso   1.000  O
  O423     1.0000 0.93933  0.37397  0.79607  Biso   1.000  O
  O424     1.0000 0.23550  0.96070  0.01300  Biso   1.000  O
  O425     1.0000 0.03930  0.27480  0.01300  Biso   1.000  O
  O426     1.0000 0.72520  0.76450  0.01300  Biso   1.000  O
  O427     1.0000 0.90217  0.29403  0.34633  Biso   1.000  O
  O428     1.0000 0.70597  0.60813  0.34633  Biso   1.000  O
  O429     1.0000 0.39187  0.09783  0.34633  Biso   1.000  O
  O430     1.0000 0.56883  0.62737  0.67967  Biso   1.000  O
  O431     1.0000 0.37263  0.94147  0.67967  Biso   1.000  O
  O432     1.0000 0.05853  0.43117  0.67967  Biso   1.000  O
  O433     1.0000 0.29230  0.93840  0.23710  Biso   1.000  O
  O434     1.0000 0.06160  0.35390  0.23710  Biso   1.000  O
  O435     1.0000 0.64610  0.70770  0.23710  Biso   1.000  O
  O436     1.0000 0.95897  0.27173  0.57043  Biso   1.000  O
  O437     1.0000 0.72827  0.68723  0.57043  Biso   1.000  O
  O438     1.0000 0.31277  0.04103  0.57043  Biso   1.000  O
  O439     1.0000 0.62563  0.60507  0.90377  Biso   1.000  O
  O440     1.0000 0.39493  0.02057  0.90377  Biso   1.000  O
  O441     1.0000 0.97943  0.37437  0.90377  Biso   1.000  O
  O442     1.0000 0.66780  0.00120  0.40610  Biso   1.000  O
  O443     1.0000 0.99880  0.66660  0.40610  Biso   1.000  O
  O444     1.0000 0.33340  0.33220  0.40610  Biso   1.000  O
  O445     1.0000 0.33447  0.33453  0.73943  Biso   1.000  O
  O446     1.0000 0.66547  0.99993  0.73943  Biso   1.000  O
  O447     1.0000 0.00007  0.66553  0.73943  Biso   1.000  O
  O448     1.0000 0.00113  0.66787  0.07277  Biso   1.000  O
  O449     1.0000 0.33213  0.33327  0.07277  Biso   1.000  O
  O450     1.0000 0.66673  0.99887  0.07277  Biso   1.000  O
  O451     1.0000 0.80270  0.18300  0.58330  Biso   1.000  O
  O452     1.0000 0.81700  0.61970  0.58330  Biso   1.000  O
  O453     1.0000 0.38030  0.19730  0.58330  Biso   1.000  O
  O454     1.0000 0.46937  0.51633  0.91663  Biso   1.000  O
  O455     1.0000 0.48367  0.95303  0.91663  Biso   1.000  O
  O456     1.0000 0.04697  0.53063  0.91663  Biso   1.000  O
  O457     1.0000 0.13603  0.84967  0.24997  Biso   1.000  O
  O458     1.0000 0.15033  0.28637  0.24997  Biso   1.000  O
  O459     1.0000 0.71363  0.86397  0.24997  Biso   1.000  O
  O460     1.0000 0.21070  0.90760  0.23140  Biso   1.000  O
  O461     1.0000 0.09240  0.30310  0.23140  Biso   1.000  O
  O462     1.0000 0.69690  0.78930  0.23140  Biso   1.000  O
  O463     1.0000 0.87737  0.24093  0.56473  Biso   1.000  O
  O464     1.0000 0.75907  0.63643  0.56473  Biso   1.000  O
  O465     1.0000 0.36357  0.12263  0.56473  Biso   1.000  O
  O466     1.0000 0.54403  0.57427  0.89807  Biso   1.000  O
  O467     1.0000 0.42573  0.96977  0.89807  Biso   1.000  O
  O468     1.0000 0.03023  0.45597  0.89807  Biso   1.000  O
  O469     1.0000 0.32660  0.99730  0.29120  Biso   1.000  O
  O470     1.0000 0.00270  0.32930  0.29120  Biso   1.000  O
  O471     1.0000 0.67070  0.67340  0.29120  Biso   1.000  O
  O472     1.0000 0.99327  0.33063  0.62453  Biso   1.000  O
  O473     1.0000 0.66937  0.66263  0.62453  Biso   1.000  O
  O474     1.0000 0.33737  0.00673  0.62453  Biso   1.000  O
  O475     1.0000 0.65993  0.66397  0.95787  Biso   1.000  O
  O476     1.0000 0.33603  0.99597  0.95787  Biso   1.000  O
  O477     1.0000 0.00403  0.34007  0.95787  Biso   1.000  O
  O478     1.0000 0.53820  0.05050  0.55790  Biso   1.000  O
  O479     1.0000 0.94950  0.48770  0.55790  Biso   1.000  O
  O480     1.0000 0.51230  0.46180  0.55790  Biso   1.000  O
  O481     1.0000 0.20487  0.38383  0.89123  Biso   1.000  O
  O482     1.0000 0.61617  0.82103  0.89123  Biso   1.000  O
  O483     1.0000 0.17897  0.79513  0.89123  Biso   1.000  O
  O484     1.0000 0.87153  0.71717  0.22457  Biso   1.000  O
  O485     1.0000 0.28283  0.15437  0.22457  Biso   1.000  O
  O486     1.0000 0.84563  0.12847  0.22457  Biso   1.000  O
  O487     1.0000 0.32620  0.93260  0.01080  Biso   1.000  O
  O488     1.0000 0.06740  0.39360  0.01080  Biso   1.000  O
  O489     1.0000 0.60640  0.67380  0.01080  Biso   1.000  O
  O490     1.0000 0.99287  0.26593  0.34413  Biso   1.000  O
  O491     1.0000 0.73407  0.72693  0.34413  Biso   1.000  O
  O492     1.0000 0.27307  0.00713  0.34413  Biso   1.000  O
  O493     1.0000 0.65953  0.59927  0.67747  Biso   1.000  O
  O494     1.0000 0.40073  0.06027  0.67747  Biso   1.000  O
  O495     1.0000 0.93973  0.34047  0.67747  Biso   1.000  O
  O496     1.0000 0.57070  0.79140  0.40440  Biso   1.000  O
  O497     1.0000 0.20860  0.77930  0.40440  Biso   1.000  O
  O498     1.0000 0.22070  0.42930  0.40440  Biso   1.000  O
  O499     1.0000 0.23737  0.12473  0.73773  Biso   1.000  O
  O500     1.0000 0.87527  0.11263  0.73773  Biso   1.000  O
  O501     1.0000 0.88737  0.76263  0.73773  Biso   1.000  O
  O502     1.0000 0.90403  0.45807  0.07107  Biso   1.000  O
  O503     1.0000 0.54193  0.44597  0.07107  Biso   1.000  O
  O504     1.0000 0.55403  0.09597  0.07107  Biso   1.000  O
  O505     1.0000 0.17280  0.67640  0.12630  Biso   1.000  O
  O506     1.0000 0.32360  0.49640  0.12630  Biso   1.000  O
  O507     1.0000 0.50360  0.82720  0.12630  Biso   1.000  O
  O508     1.0000 0.83947  0.00973  0.45963  Biso   1.000  O
  O509     1.0000 0.99027  0.82973  0.45963  Biso   1.000  O
  O510     1.0000 0.17027  0.16053  0.45963  Biso   1.000  O
  O511     1.0000 0.50613  0.34307  0.79297  Biso   1.000  O
  O512     1.0000 0.65693  0.16307  0.79297  Biso   1.000  O
  O513     1.0000 0.83693  0.49387  0.79297  Biso   1.000  O
  O514     1.0000 0.71640  0.07000  0.41840  Biso   1.000  O
  O515     1.0000 0.93000  0.64640  0.41840  Biso   1.000  O
  O516     1.0000 0.35360  0.28360  0.41840  Biso   1.000  O
  O517     1.0000 0.38307  0.40333  0.75173  Biso   1.000  O
  O518     1.0000 0.59667  0.97973  0.75173  Biso   1.000  O
  O519     1.0000 0.02027  0.61693  0.75173  Biso   1.000  O
  O520     1.0000 0.04973  0.73667  0.08507  Biso   1.000  O
  O521     1.0000 0.26333  0.31307  0.08507  Biso   1.000  O
  O522     1.0000 0.68693  0.95027  0.08507  Biso   1.000  O
  O523     1.0000 0.32000  0.79130  0.13060  Biso   1.000  O
  O524     1.0000 0.20870  0.52870  0.13060  Biso   1.000  O
  O525     1.0000 0.47130  0.68000  0.13060  Biso   1.000  O
  O526     1.0000 0.98667  0.12463  0.46393  Biso   1.000  O
  O527     1.0000 0.87537  0.86203  0.46393  Biso   1.000  O
  O528     1.0000 0.13797  0.01333  0.46393  Biso   1.000  O
  O529     1.0000 0.65333  0.45797  0.79727  Biso   1.000  O
  O530     1.0000 0.54203  0.19537  0.79727  Biso   1.000  O
  O531     1.0000 0.80463  0.34667  0.79727  Biso   1.000  O
  O532     1.0000 0.57400  0.10400  0.42200  Biso   1.000  O
  O533     1.0000 0.89600  0.47000  0.42200  Biso   1.000  O
  O534     1.0000 0.53000  0.42600  0.42200  Biso   1.000  O
  O535     1.0000 0.24067  0.43733  0.75533  Biso   1.000  O
  O536     1.0000 0.56267  0.80333  0.75533  Biso   1.000  O
  O537     1.0000 0.19667  0.75933  0.75533  Biso   1.000  O
  O538     1.0000 0.90733  0.77067  0.08867  Biso   1.000  O
  O539     1.0000 0.22933  0.13667  0.08867  Biso   1.000  O
  O540     1.0000 0.86333  0.09267  0.08867  Biso   1.000  O
  O541     1.0000 0.45550  0.02650  0.58060  Biso   1.000  O
  O542     1.0000 0.97350  0.42900  0.58060  Biso   1.000  O
  O543     1.0000 0.57100  0.54450  0.58060  Biso   1.000  O
  O544     1.0000 0.12217  0.35983  0.91393  Biso   1.000  O
  O545     1.0000 0.64017  0.76233  0.91393  Biso   1.000  O
  O546     1.0000 0.23767  0.87783  0.91393  Biso   1.000  O
  O547     1.0000 0.78883  0.69317  0.24727  Biso   1.000  O
  O548     1.0000 0.30683  0.09567  0.24727  Biso   1.000  O
  O549     1.0000 0.90433  0.21117  0.24727  Biso   1.000  O
  O550     1.0000 0.49300  0.85410  0.67770  Biso   1.000  O
  O551     1.0000 0.14590  0.63890  0.67770  Biso   1.000  O
  O552     1.0000 0.36110  0.50700  0.67770  Biso   1.000  O
  O553     1.0000 0.15967  0.18743  0.01103  Biso   1.000  O
  O554     1.0000 0.81257  0.97223  0.01103  Biso   1.000  O
  O555     1.0000 0.02777  0.84033  0.01103  Biso   1.000  O
  O556     1.0000 0.82633  0.52077  0.34437  Biso   1.000  O
  O557     1.0000 0.47923  0.30557  0.34437  Biso   1.000  O
  O558     1.0000 0.69443  0.17367  0.34437  Biso   1.000  O
  O559     1.0000 0.76850  0.10060  0.56340  Biso   1.000  O
  O560     1.0000 0.89940  0.66790  0.56340  Biso   1.000  O
  O561     1.0000 0.33210  0.23150  0.56340  Biso   1.000  O
  O562     1.0000 0.43517  0.43393  0.89673  Biso   1.000  O
  O563     1.0000 0.56607  0.00123  0.89673  Biso   1.000  O
  O564     1.0000 0.99877  0.56483  0.89673  Biso   1.000  O
  O565     1.0000 0.10183  0.76727  0.23007  Biso   1.000  O
  O566     1.0000 0.23273  0.33457  0.23007  Biso   1.000  O
  O567     1.0000 0.66543  0.89817  0.23007  Biso   1.000  O
  O568     1.0000 0.56750  0.00040  0.57850  Biso   1.000  O
  O569     1.0000 0.99960  0.56710  0.57850  Biso   1.000  O
  O570     1.0000 0.43290  0.43250  0.57850  Biso   1.000  O
  O571     1.0000 0.23417  0.33373  0.91183  Biso   1.000  O
  O572     1.0000 0.66627  0.90043  0.91183  Biso   1.000  O
  O573     1.0000 0.09957  0.76583  0.91183  Biso   1.000  O
  O574     1.0000 0.90083  0.66707  0.24517  Biso   1.000  O
  O575     1.0000 0.33293  0.23377  0.24517  Biso   1.000  O
  O576     1.0000 0.76623  0.09917  0.24517  Biso   1.000  O
  O577     1.0000 0.33330  0.66670  0.22600  Biso   1.000  O
  O578     1.0000 0.99997  0.00003  0.55933  Biso   1.000  O
  O579     1.0000 0.66663  0.33337  0.89267  Biso   1.000  O
  O580     1.0000 0.33330  0.66670  0.58300  Biso   1.000  O
  O581     1.0000 0.99997  0.00003  0.91633  Biso   1.000  O
  O582     1.0000 0.66663  0.33337  0.24967  Biso   1.000  O
  O583     1.0000 0.39320  0.06730  0.46630  Biso   1.000  O
  O584     1.0000 0.93270  0.32590  0.46630  Biso   1.000  O
  O585     1.0000 0.67410  0.60680  0.46630  Biso   1.000  O
  O586     1.0000 0.05987  0.40063  0.79963  Biso   1.000  O
  O587     1.0000 0.59937  0.65923  0.79963  Biso   1.000  O
  O588     1.0000 0.34077  0.94013  0.79963  Biso   1.000  O
  O589     1.0000 0.72653  0.73397  0.13297  Biso   1.000  O
  O590     1.0000 0.26603  0.99257  0.13297  Biso   1.000  O
  O591     1.0000 0.00743  0.27347  0.13297  Biso   1.000  O
  O592     1.0000 0.33450  0.85870  0.39960  Biso   1.000  O
  O593     1.0000 0.14130  0.47580  0.39960  Biso   1.000  O
  O594     1.0000 0.52420  0.66550  0.39960  Biso   1.000  O
  O595     1.0000 0.00117  0.19203  0.73293  Biso   1.000  O
  O596     1.0000 0.80797  0.80913  0.73293  Biso   1.000  O
  O597     1.0000 0.19087  0.99883  0.73293  Biso   1.000  O
  O598     1.0000 0.66783  0.52537  0.06627  Biso   1.000  O
  O599     1.0000 0.47463  0.14247  0.06627  Biso   1.000  O
  O600     1.0000 0.85753  0.33217  0.06627  Biso   1.000  O
  O601     1.0000 0.45240  0.75370  0.24240  Biso   1.000  O
  O602     1.0000 0.24630  0.69870  0.24240  Biso   1.000  O
  O603     1.0000 0.30130  0.54760  0.24240  Biso   1.000  O
  O604     1.0000 0.11907  0.08703  0.57573  Biso   1.000  O
  O605     1.0000 0.91297  0.03203  0.57573  Biso   1.000  O
  O606     1.0000 0.96797  0.88093  0.57573  Biso   1.000  O
  O607     1.0000 0.78573  0.42037  0.90907  Biso   1.000  O
  O608     1.0000 0.57963  0.36537  0.90907  Biso   1.000  O
  O609     1.0000 0.63463  0.21427  0.90907  Biso   1.000  O
  O610     1.0000 0.44300  0.76000  0.65230  Biso   1.000  O
  O611     1.0000 0.24000  0.68300  0.65230  Biso   1.000  O
  O612     1.0000 0.31700  0.55700  0.65230  Biso   1.000  O
  O613     1.0000 0.10967  0.09333  0.98563  Biso   1.000  O
  O614     1.0000 0.90667  0.01633  0.98563  Biso   1.000  O
  O615     1.0000 0.98367  0.89033  0.98563  Biso   1.000  O
  O616     1.0000 0.77633  0.42667  0.31897  Biso   1.000  O
  O617     1.0000 0.57333  0.34967  0.31897  Biso   1.000  O
  O618     1.0000 0.65033  0.22367  0.31897  Biso   1.000  O
  O619     1.0000 0.74300  0.97190  0.40870  Biso   1.000  O
  O620     1.0000 0.02810  0.77110  0.40870  Biso   1.000  O
  O621     1.0000 0.22890  0.25700  0.40870  Biso   1.000  O
  O622     1.0000 0.40967  0.30523  0.74203  Biso   1.000  O
  O623     1.0000 0.69477  0.10443  0.74203  Biso   1.000  O
  O624     1.0000 0.89557  0.59033  0.74203  Biso   1.000  O
  O625     1.0000 0.07633  0.63857  0.07537  Biso   1.000  O
  O626     1.0000 0.36143  0.43777  0.07537  Biso   1.000  O
  O627     1.0000 0.56223  0.92367  0.07537  Biso   1.000  O
  O628     1.0000 0.42350  0.78080  0.56420  Biso   1.000  O
  O629     1.0000 0.21920  0.64270  0.56420  Biso   1.000  O
  O630     1.0000 0.35730  0.57650  0.56420  Biso   1.000  O
  O631     1.0000 0.09017  0.11413  0.89753  Biso   1.000  O
  O632     1.0000 0.88587  0.97603  0.89753  Biso   1.000  O
  O633     1.0000 0.02397  0.90983  0.89753  Biso   1.000  O
  O634     1.0000 0.75683  0.44747  0.23087  Biso   1.000  O
  O635     1.0000 0.55253  0.30937  0.23087  Biso   1.000  O
  O636     1.0000 0.69063  0.24317  0.23087  Biso   1.000  O
  O637     1.0000 0.33530  0.80950  0.34490  Biso   1.000  O
  O638     1.0000 0.19050  0.52580  0.34490  Biso   1.000  O
  O639     1.0000 0.47420  0.66470  0.34490  Biso   1.000  O
  O640     1.0000 0.00197  0.14283  0.67823  Biso   1.000  O
  O641     1.0000 0.85717  0.85913  0.67823  Biso   1.000  O
  O642     1.0000 0.14087  0.99803  0.67823  Biso   1.000  O
  O643     1.0000 0.66863  0.47617  0.01157  Biso   1.000  O
  O644     1.0000 0.52383  0.19247  0.01157  Biso   1.000  O
  O645     1.0000 0.80753  0.33137  0.01157  Biso   1.000  O
  O646     1.0000 0.33150  0.80710  0.46890  Biso   1.000  O
  O647     1.0000 0.19290  0.52440  0.46890  Biso   1.000  O
  O648     1.0000 0.47560  0.66850  0.46890  Biso   1.000  O
  O649     1.0000 0.99817  0.14043  0.80223  Biso   1.000  O
  O650     1.0000 0.85957  0.85773  0.80223  Biso   1.000  O
  O651     1.0000 0.14227  0.00183  0.80223  Biso   1.000  O
  O652     1.0000 0.66483  0.47377  0.13557  Biso   1.000  O
  O653     1.0000 0.52623  0.19107  0.13557  Biso   1.000  O
  O654     1.0000 0.80893  0.33517  0.13557  Biso   1.000  O
  O655     1.0000 0.22720  0.91170  0.14170  Biso   1.000  O
  O656     1.0000 0.08830  0.31550  0.14170  Biso   1.000  O
  O657     1.0000 0.68450  0.77280  0.14170  Biso   1.000  O
  O658     1.0000 0.89387  0.24503  0.47503  Biso   1.000  O
  O659     1.0000 0.75497  0.64883  0.47503  Biso   1.000  O
  O660     1.0000 0.35117  0.10613  0.47503  Biso   1.000  O
  O661     1.0000 0.56053  0.57837  0.80837  Biso   1.000  O
  O662     1.0000 0.42163  0.98217  0.80837  Biso   1.000  O
  O663     1.0000 0.01783  0.43947  0.80837  Biso   1.000  O
  O664     1.0000 0.23080  0.90140  0.57120  Biso   1.000  O
  O665     1.0000 0.09860  0.32940  0.57120  Biso   1.000  O
  O666     1.0000 0.67060  0.76920  0.57120  Biso   1.000  O
  O667     1.0000 0.89747  0.23473  0.90453  Biso   1.000  O
  O668     1.0000 0.76527  0.66273  0.90453  Biso   1.000  O
  O669     1.0000 0.33727  0.10253  0.90453  Biso   1.000  O
  O670     1.0000 0.56413  0.56807  0.23787  Biso   1.000  O
  O671     1.0000 0.43193  0.99607  0.23787  Biso   1.000  O
  O672     1.0000 0.00393  0.43587  0.23787  Biso   1.000  O
  O673     1.0000 0.69860  0.03420  0.47870  Biso   1.000  O
  O674     1.0000 0.96580  0.66440  0.47870  Biso   1.000  O
  O675     1.0000 0.33560  0.30140  0.47870  Biso   1.000  O
  O676     1.0000 0.36527  0.36753  0.81203  Biso   1.000  O
  O677     1.0000 0.63247  0.99773  0.81203  Biso   1.000  O
  O678     1.0000 0.00227  0.63473  0.81203  Biso   1.000  O
  O679     1.0000 0.03193  0.70087  0.14537  Biso   1.000  O
  O680     1.0000 0.29913  0.33107  0.14537  Biso   1.000  O
  O681     1.0000 0.66893  0.96807  0.14537  Biso   1.000  O
  O682     1.0000 0.64310  0.07240  0.42830  Biso   1.000  O
  O683     1.0000 0.92760  0.57070  0.42830  Biso   1.000  O
  O684     1.0000 0.42930  0.35690  0.42830  Biso   1.000  O
  O685     1.0000 0.30977  0.40573  0.76163  Biso   1.000  O
  O686     1.0000 0.59427  0.90403  0.76163  Biso   1.000  O
  O687     1.0000 0.09597  0.69023  0.76163  Biso   1.000  O
  O688     1.0000 0.97643  0.73907  0.09497  Biso   1.000  O
  O689     1.0000 0.26093  0.23737  0.09497  Biso   1.000  O
  O690     1.0000 0.76263  0.02357  0.09497  Biso   1.000  O
  O691     1.0000 0.38900  0.78800  0.22900  Biso   1.000  O
  O692     1.0000 0.21200  0.60100  0.22900  Biso   1.000  O
  O693     1.0000 0.39900  0.61100  0.22900  Biso   1.000  O
  O694     1.0000 0.05567  0.12133  0.56233  Biso   1.000  O
  O695     1.0000 0.87867  0.93433  0.56233  Biso   1.000  O
  O696     1.0000 0.06567  0.94433  0.56233  Biso   1.000  O
  O697     1.0000 0.72233  0.45467  0.89567  Biso   1.000  O
  O698     1.0000 0.54533  0.26767  0.89567  Biso   1.000  O
  O699     1.0000 0.73233  0.27767  0.89567  Biso   1.000  O
  O700     1.0000 0.47000  0.70900  0.62300  Biso   1.000  O
  O701     1.0000 0.29100  0.76100  0.62300  Biso   1.000  O
  O702     1.0000 0.23900  0.53000  0.62300  Biso   1.000  O
  O703     1.0000 0.13667  0.04233  0.95633  Biso   1.000  O
  O704     1.0000 0.95767  0.09433  0.95633  Biso   1.000  O
  O705     1.0000 0.90567  0.86333  0.95633  Biso   1.000  O
  O706     1.0000 0.80333  0.37567  0.28967  Biso   1.000  O
  O707     1.0000 0.62433  0.42767  0.28967  Biso   1.000  O
  O708     1.0000 0.57233  0.19667  0.28967  Biso   1.000  O
  O709     1.0000 0.30350  0.00480  0.06180  Biso   1.000  O
  O710     1.0000 0.99520  0.29870  0.06180  Biso   1.000  O
  O711     1.0000 0.70130  0.69650  0.06180  Biso   1.000  O
  O712     1.0000 0.97017  0.33813  0.39513  Biso   1.000  O
  O713     1.0000 0.66187  0.63203  0.39513  Biso   1.000  O
  O714     1.0000 0.36797  0.02983  0.39513  Biso   1.000  O
  O715     1.0000 0.63683  0.67147  0.72847  Biso   1.000  O
  O716     1.0000 0.32853  0.96537  0.72847  Biso   1.000  O
  O717     1.0000 0.03463  0.36317  0.72847  Biso   1.000  O
  O718     1.0000 0.34210  0.73840  0.54850  Biso   1.000  O
  O719     1.0000 0.26160  0.60370  0.54850  Biso   1.000  O
  O720     1.0000 0.39630  0.65790  0.54850  Biso   1.000  O
  O721     1.0000 0.00877  0.07173  0.88183  Biso   1.000  O
  O722     1.0000 0.92827  0.93703  0.88183  Biso   1.000  O
  O723     1.0000 0.06297  0.99123  0.88183  Biso   1.000  O
  O724     1.0000 0.67543  0.40507  0.21517  Biso   1.000  O
  O725     1.0000 0.59493  0.27037  0.21517  Biso   1.000  O
  O726     1.0000 0.72963  0.32457  0.21517  Biso   1.000  O
  O727     1.0000 0.19600  0.96370  0.25900  Biso   1.000  O
  O728     1.0000 0.03630  0.23230  0.25900  Biso   1.000  O
  O729     1.0000 0.76770  0.80400  0.25900  Biso   1.000  O
  O730     1.0000 0.86267  0.29703  0.59233  Biso   1.000  O
  O731     1.0000 0.70297  0.56563  0.59233  Biso   1.000  O
  O732     1.0000 0.43437  0.13733  0.59233  Biso   1.000  O
  O733     1.0000 0.52933  0.63037  0.92567  Biso   1.000  O
  O734     1.0000 0.36963  0.89897  0.92567  Biso   1.000  O
  O735     1.0000 0.10103  0.47067  0.92567  Biso   1.000  O
  O736     1.0000 0.51940  0.73950  0.50080  Biso   1.000  O
  O737     1.0000 0.26050  0.77990  0.50080  Biso   1.000  O
  O738     1.0000 0.22010  0.48060  0.50080  Biso   1.000  O
  O739     1.0000 0.18607  0.07283  0.83413  Biso   1.000  O
  O740     1.0000 0.92717  0.11323  0.83413  Biso   1.000  O
  O741     1.0000 0.88677  0.81393  0.83413  Biso   1.000  O
  O742     1.0000 0.85273  0.40617  0.16747  Biso   1.000  O
  O743     1.0000 0.59383  0.44657  0.16747  Biso   1.000  O
  O744     1.0000 0.55343  0.14727  0.16747  Biso   1.000  O
  O745     1.0000 0.67250  0.99780  0.24130  Biso   1.000  O
  O746     1.0000 0.00220  0.67470  0.24130  Biso   1.000  O
  O747     1.0000 0.32530  0.32750  0.24130  Biso   1.000  O
  O748     1.0000 0.33917  0.33113  0.57463  Biso   1.000  O
  O749     1.0000 0.66887  0.00803  0.57463  Biso   1.000  O
  O750     1.0000 0.99197  0.66083  0.57463  Biso   1.000  O
  O751     1.0000 0.00583  0.66447  0.90797  Biso   1.000  O
  O752     1.0000 0.33553  0.34137  0.90797  Biso   1.000  O
  O753     1.0000 0.65863  0.99417  0.90797  Biso   1.000  O
  O754     1.0000 0.43200  0.01540  0.65500  Biso   1.000  O
  O755     1.0000 0.98460  0.41660  0.65500  Biso   1.000  O
  O756     1.0000 0.58340  0.56800  0.65500  Biso   1.000  O
  O757     1.0000 0.09867  0.34873  0.98833  Biso   1.000  O
  O758     1.0000 0.65127  0.74993  0.98833  Biso   1.000  O
  O759     1.0000 0.25007  0.90133  0.98833  Biso   1.000  O
  O760     1.0000 0.76533  0.68207  0.32167  Biso   1.000  O
  O761     1.0000 0.31793  0.08327  0.32167  Biso   1.000  O
  O762     1.0000 0.91673  0.23467  0.32167  Biso   1.000  O
  O763     1.0000 0.40610  0.85460  0.31300  Biso   1.000  O
  O764     1.0000 0.14540  0.55150  0.31300  Biso   1.000  O
  O765     1.0000 0.44850  0.59390  0.31300  Biso   1.000  O
  O766     1.0000 0.07277  0.18793  0.64633  Biso   1.000  O
  O767     1.0000 0.81207  0.88483  0.64633  Biso   1.000  O
  O768     1.0000 0.11517  0.92723  0.64633  Biso   1.000  O
  O769     1.0000 0.73943  0.52127  0.97967  Biso   1.000  O
  O770     1.0000 0.47873  0.21817  0.97967  Biso   1.000  O
  O771     1.0000 0.78183  0.26057  0.97967  Biso   1.000  O
  O772     1.0000 0.25500  0.11200  0.03640  Biso   1.000  O
  O773     1.0000 0.88800  0.14300  0.03640  Biso   1.000  O
  O774     1.0000 0.85700  0.74500  0.03640  Biso   1.000  O
  O775     1.0000 0.92167  0.44533  0.36973  Biso   1.000  O
  O776     1.0000 0.55467  0.47633  0.36973  Biso   1.000  O
  O777     1.0000 0.52367  0.07833  0.36973  Biso   1.000  O
  O778     1.0000 0.58833  0.77867  0.70307  Biso   1.000  O
  O779     1.0000 0.22133  0.80967  0.70307  Biso   1.000  O
  O780     1.0000 0.19033  0.41167  0.70307  Biso   1.000  O
  O781     1.0000 0.47500  0.89500  0.71700  Biso   1.000  O
  O782     1.0000 0.10500  0.58000  0.71700  Biso   1.000  O
  O783     1.0000 0.42000  0.52500  0.71700  Biso   1.000  O
  O784     1.0000 0.14167  0.22833  0.05033  Biso   1.000  O
  O785     1.0000 0.77167  0.91333  0.05033  Biso   1.000  O
  O786     1.0000 0.08667  0.85833  0.05033  Biso   1.000  O
  O787     1.0000 0.80833  0.56167  0.38367  Biso   1.000  O
  O788     1.0000 0.43833  0.24667  0.38367  Biso   1.000  O
  O789     1.0000 0.75333  0.19167  0.38367  Biso   1.000  O
  O790     1.0000 0.33040  0.73340  0.47120  Biso   1.000  O
  O791     1.0000 0.26660  0.59700  0.47120  Biso   1.000  O
  O792     1.0000 0.40300  0.66960  0.47120  Biso   1.000  O
  O793     1.0000 0.99707  0.06673  0.80453  Biso   1.000  O
  O794     1.0000 0.93327  0.93033  0.80453  Biso   1.000  O
  O795     1.0000 0.06967  0.00293  0.80453  Biso   1.000  O
  O796     1.0000 0.66373  0.40007  0.13787  Biso   1.000  O
  O797     1.0000 0.59993  0.26367  0.13787  Biso   1.000  O
  O798     1.0000 0.73633  0.33627  0.13787  Biso   1.000  O
  O799     1.0000 0.65500  0.12600  0.54800  Biso   1.000  O
  O800     1.0000 0.87400  0.52900  0.54800  Biso   1.000  O
  O801     1.0000 0.47100  0.34500  0.54800  Biso   1.000  O
  O802     1.0000 0.32167  0.45933  0.88133  Biso   1.000  O
  O803     1.0000 0.54067  0.86233  0.88133  Biso   1.000  O
  O804     1.0000 0.13767  0.67833  0.88133  Biso   1.000  O
  O805     1.0000 0.98833  0.79267  0.21467  Biso   1.000  O
  O806     1.0000 0.20733  0.19567  0.21467  Biso   1.000  O
  O807     1.0000 0.80433  0.01167  0.21467  Biso   1.000  O
  O808     1.0000 0.32660  0.73220  0.27500  Biso   1.000  O
  O809     1.0000 0.26780  0.59440  0.27500  Biso   1.000  O
  O810     1.0000 0.40560  0.67340  0.27500  Biso   1.000  O
  O811     1.0000 0.99327  0.06553  0.60833  Biso   1.000  O
  O812     1.0000 0.93447  0.92773  0.60833  Biso   1.000  O
  O813     1.0000 0.07227  0.00673  0.60833  Biso   1.000  O
  O814     1.0000 0.65993  0.39887  0.94167  Biso   1.000  O
  O815     1.0000 0.60113  0.26107  0.94167  Biso   1.000  O
  O816     1.0000 0.73893  0.34007  0.94167  Biso   1.000  O
  O817     1.0000 0.54790  0.98190  0.66380  Biso   1.000  O
  O818     1.0000 0.01810  0.56600  0.66380  Biso   1.000  O
  O819     1.0000 0.43400  0.45210  0.66380  Biso   1.000  O
  O820     1.0000 0.21457  0.31523  0.99713  Biso   1.000  O
  O821     1.0000 0.68477  0.89933  0.99713  Biso   1.000  O
  O822     1.0000 0.10067  0.78543  0.99713  Biso   1.000  O
  O823     1.0000 0.88123  0.64857  0.33047  Biso   1.000  O
  O824     1.0000 0.35143  0.23267  0.33047  Biso   1.000  O
  O825     1.0000 0.76733  0.11877  0.33047  Biso   1.000  O
  O826     1.0000 0.41260  0.89070  0.06540  Biso   1.000  O
  O827     1.0000 0.10930  0.52190  0.06540  Biso   1.000  O
  O828     1.0000 0.47810  0.58740  0.06540  Biso   1.000  O
  O829     1.0000 0.07927  0.22403  0.39873  Biso   1.000  O
  O830     1.0000 0.77597  0.85523  0.39873  Biso   1.000  O
  O831     1.0000 0.14477  0.92073  0.39873  Biso   1.000  O
  O832     1.0000 0.74593  0.55737  0.73207  Biso   1.000  O
  O833     1.0000 0.44263  0.18857  0.73207  Biso   1.000  O
  O834     1.0000 0.81143  0.25407  0.73207  Biso   1.000  O
  O835     1.0000 0.34000  0.97420  0.08040  Biso   1.000  O
  O836     1.0000 0.02580  0.36580  0.08040  Biso   1.000  O
  O837     1.0000 0.63420  0.66000  0.08040  Biso   1.000  O
  O838     1.0000 0.00667  0.30753  0.41373  Biso   1.000  O
  O839     1.0000 0.69247  0.69913  0.41373  Biso   1.000  O
  O840     1.0000 0.30087  0.99333  0.41373  Biso   1.000  O
  O841     1.0000 0.67333  0.64087  0.74707  Biso   1.000  O
  O842     1.0000 0.35913  0.03247  0.74707  Biso   1.000  O
  O843     1.0000 0.96753  0.32667  0.74707  Biso   1.000  O
  O844     1.0000 0.73300  0.16400  0.63800  Biso   1.000  O
  O845     1.0000 0.83600  0.56900  0.63800  Biso   1.000  O
  O846     1.0000 0.43100  0.26700  0.63800  Biso   1.000  O
  O847     1.0000 0.39967  0.49733  0.97133  Biso   1.000  O
  O848     1.0000 0.50267  0.90233  0.97133  Biso   1.000  O
  O849     1.0000 0.09767  0.60033  0.97133  Biso   1.000  O
  O850     1.0000 0.06633  0.83067  0.30467  Biso   1.000  O
  O851     1.0000 0.16933  0.23567  0.30467  Biso   1.000  O
  O852     1.0000 0.76433  0.93367  0.30467  Biso   1.000  O
  O853     1.0000 0.22500  0.02600  0.18800  Biso   1.000  O
  O854     1.0000 0.97400  0.19900  0.18800  Biso   1.000  O
  O855     1.0000 0.80100  0.77500  0.18800  Biso   1.000  O
  O856     1.0000 0.89167  0.35933  0.52133  Biso   1.000  O
  O857     1.0000 0.64067  0.53233  0.52133  Biso   1.000  O
  O858     1.0000 0.46767  0.10833  0.52133  Biso   1.000  O
  O859     1.0000 0.55833  0.69267  0.85467  Biso   1.000  O
  O860     1.0000 0.30733  0.86567  0.85467  Biso   1.000  O
  O861     1.0000 0.13433  0.44167  0.85467  Biso   1.000  O
  O862     1.0000 0.72800  0.16600  0.51000  Biso   1.000  O
  O863     1.0000 0.83400  0.56200  0.51000  Biso   1.000  O
  O864     1.0000 0.43800  0.27200  0.51000  Biso   1.000  O
  O865     1.0000 0.39467  0.49933  0.84333  Biso   1.000  O
  O866     1.0000 0.50067  0.89533  0.84333  Biso   1.000  O
  O867     1.0000 0.10467  0.60533  0.84333  Biso   1.000  O
  O868     1.0000 0.06133  0.83267  0.17667  Biso   1.000  O
  O869     1.0000 0.16733  0.22867  0.17667  Biso   1.000  O
  O870     1.0000 0.77133  0.93867  0.17667  Biso   1.000  O
  O871     1.0000 0.27330  0.82630  0.09420  Biso   1.000  O
  O872     1.0000 0.17370  0.44700  0.09420  Biso   1.000  O
  O873     1.0000 0.55300  0.72670  0.09420  Biso   1.000  O
  O874     1.0000 0.93997  0.15963  0.42753  Biso   1.000  O
  O875     1.0000 0.84037  0.78033  0.42753  Biso   1.000  O
  O876     1.0000 0.21967  0.06003  0.42753  Biso   1.000  O
  O877     1.0000 0.60663  0.49297  0.76087  Biso   1.000  O
  O878     1.0000 0.50703  0.11367  0.76087  Biso   1.000  O
  O879     1.0000 0.88633  0.39337  0.76087  Biso   1.000  O
  O880     1.0000 0.43980  0.77520  0.17430  Biso   1.000  O
  O881     1.0000 0.22480  0.66460  0.17430  Biso   1.000  O
  O882     1.0000 0.33540  0.56020  0.17430  Biso   1.000  O
  O883     1.0000 0.10647  0.10853  0.50763  Biso   1.000  O
  O884     1.0000 0.89147  0.99793  0.50763  Biso   1.000  O
  O885     1.0000 0.00207  0.89353  0.50763  Biso   1.000  O
  O886     1.0000 0.77313  0.44187  0.84097  Biso   1.000  O
  O887     1.0000 0.55813  0.33127  0.84097  Biso   1.000  O
  O888     1.0000 0.66873  0.22687  0.84097  Biso   1.000  O
  O889     1.0000 0.18800  0.04700  0.32100  Biso   1.000  O
  O890     1.0000 0.95300  0.14100  0.32100  Biso   1.000  O
  O891     1.0000 0.85900  0.81200  0.32100  Biso   1.000  O
  O892     1.0000 0.85467  0.38033  0.65433  Biso   1.000  O
  O893     1.0000 0.61967  0.47433  0.65433  Biso   1.000  O
  O894     1.0000 0.52567  0.14533  0.65433  Biso   1.000  O
  O895     1.0000 0.52133  0.71367  0.98767  Biso   1.000  O
  O896     1.0000 0.28633  0.80767  0.98767  Biso   1.000  O
  O897     1.0000 0.19233  0.47867  0.98767  Biso   1.000  O
  O898     1.0000 0.21200  0.75000  0.06900  Biso   1.000  O
  O899     1.0000 0.25000  0.46200  0.06900  Biso   1.000  O
  O900     1.0000 0.53800  0.78800  0.06900  Biso   1.000  O
  O901     1.0000 0.87867  0.08333  0.40233  Biso   1.000  O
  O902     1.0000 0.91667  0.79533  0.40233  Biso   1.000  O
  O903     1.0000 0.20467  0.12133  0.40233  Biso   1.000  O
  O904     1.0000 0.54533  0.41667  0.73567  Biso   1.000  O
  O905     1.0000 0.58333  0.12867  0.73567  Biso   1.000  O
  O906     1.0000 0.87133  0.45467  0.73567  Biso   1.000  O
  O907     1.0000 0.38800  0.80400  0.22600  Biso   1.000  O
  O908     1.0000 0.19600  0.58400  0.22600  Biso   1.000  O
  O909     1.0000 0.41600  0.61200  0.22600  Biso   1.000  O
  O910     1.0000 0.05467  0.13733  0.55933  Biso   1.000  O
  O911     1.0000 0.86267  0.91733  0.55933  Biso   1.000  O
  O912     1.0000 0.08267  0.94533  0.55933  Biso   1.000  O
  O913     1.0000 0.72133  0.47067  0.89267  Biso   1.000  O
  O914     1.0000 0.52933  0.25067  0.89267  Biso   1.000  O
  O915     1.0000 0.74933  0.27867  0.89267  Biso   1.000  O
  O916     1.0000 0.73610  0.05360  0.39380  Biso   1.000  O
  O917     1.0000 0.94640  0.68250  0.39380  Biso   1.000  O
  O918     1.0000 0.31750  0.26390  0.39380  Biso   1.000  O
  O919     1.0000 0.40277  0.38693  0.72713  Biso   1.000  O
  O920     1.0000 0.61307  0.01583  0.72713  Biso   1.000  O
  O921     1.0000 0.98417  0.59723  0.72713  Biso   1.000  O
  O922     1.0000 0.06943  0.72027  0.06047  Biso   1.000  O
  O923     1.0000 0.27973  0.34917  0.06047  Biso   1.000  O
  O924     1.0000 0.65083  0.93057  0.06047  Biso   1.000  O
