data_image0
_cell_length_a       14.4062
_cell_length_b       26.9225
_cell_length_c       22.8104
_cell_angle_alpha    90
_cell_angle_beta     98.293
_cell_angle_gamma    90

_symmetry_space_group_name_H-M    "P 1"
_symmetry_int_tables_number       1

loop_
  _symmetry_equiv_pos_as_xyz
  'x, y, z'

loop_
  _atom_site_label
  _atom_site_occupancy
  _atom_site_fract_x
  _atom_site_fract_y
  _atom_site_fract_z
  _atom_site_thermal_displace_type
  _atom_site_B_iso_or_equiv
  _atom_site_type_symbol
  Cu1      1.0000 0.25729  0.30734  0.25431  Biso   1.000  Cu
  Cu2      1.0000 0.74271  0.30734  0.24569  Biso   1.000  Cu
  Cu3      1.0000 0.75729  0.80733  0.25431  Biso   1.000  Cu
  Cu4      1.0000 0.24271  0.80733  0.24569  Biso   1.000  Cu
  Cu5      1.0000 0.74271  0.69266  0.74569  Biso   1.000  Cu
  Cu6      1.0000 0.25729  0.69266  0.75431  Biso   1.000  Cu
  Cu7      1.0000 0.24271  0.19266  0.74569  Biso   1.000  Cu
  Cu8      1.0000 0.75729  0.19266  0.75431  Biso   1.000  Cu
  N1       1.0000 0.16687  0.44317  0.18309  Biso   1.000  N
  N2       1.0000 0.83313  0.44317  0.31691  Biso   1.000  N
  N3       1.0000 0.66687  0.94317  0.18309  Biso   1.000  N
  N4       1.0000 0.33313  0.94317  0.31691  Biso   1.000  N
  N5       1.0000 0.83313  0.55683  0.81691  Biso   1.000  N
  N6       1.0000 0.16687  0.55683  0.68309  Biso   1.000  N
  N7       1.0000 0.33313  0.05683  0.81691  Biso   1.000  N
  N8       1.0000 0.66687  0.05683  0.68309  Biso   1.000  N
  C1       1.0000 0.07190  0.30779  0.18485  Biso   1.000  C
  C2       1.0000 0.92810  0.30779  0.31515  Biso   1.000  C
  C3       1.0000 0.57190  0.80779  0.18485  Biso   1.000  C
  C4       1.0000 0.42810  0.80779  0.31515  Biso   1.000  C
  C5       1.0000 0.92810  0.69221  0.81515  Biso   1.000  C
  C6       1.0000 0.07190  0.69221  0.68485  Biso   1.000  C
  C7       1.0000 0.42810  0.19221  0.81515  Biso   1.000  C
  C8       1.0000 0.57190  0.19221  0.68485  Biso   1.000  C
  H1       1.0000 0.05510  0.30780  0.22270  Biso   1.000  H
  H2       1.0000 0.94490  0.30780  0.27730  Biso   1.000  H
  H3       1.0000 0.55510  0.80780  0.22270  Biso   1.000  H
  H4       1.0000 0.44490  0.80780  0.27730  Biso   1.000  H
  H5       1.0000 0.94490  0.69220  0.77730  Biso   1.000  H
  H6       1.0000 0.05510  0.69220  0.72270  Biso   1.000  H
  H7       1.0000 0.44490  0.19220  0.77730  Biso   1.000  H
  H8       1.0000 0.55510  0.19220  0.72270  Biso   1.000  H
  Cl1      1.0000 0.35392  0.36036  0.21247  Biso   1.000  Cl
  Cl2      1.0000 0.64608  0.36036  0.28753  Biso   1.000  Cl
  Cl3      1.0000 0.85392  0.86036  0.21247  Biso   1.000  Cl
  Cl4      1.0000 0.14608  0.86036  0.28753  Biso   1.000  Cl
  Cl5      1.0000 0.64608  0.63964  0.78753  Biso   1.000  Cl
  Cl6      1.0000 0.35392  0.63964  0.71247  Biso   1.000  Cl
  Cl7      1.0000 0.14608  0.13964  0.78753  Biso   1.000  Cl
  Cl8      1.0000 0.85392  0.13964  0.71247  Biso   1.000  Cl
  Cu9      1.0000 0.26294  0.43650  0.25769  Biso   1.000  Cu
  Cu10     1.0000 0.73706  0.43650  0.24231  Biso   1.000  Cu
  Cu11     1.0000 0.76294  0.93650  0.25769  Biso   1.000  Cu
  Cu12     1.0000 0.23706  0.93650  0.24231  Biso   1.000  Cu
  Cu13     1.0000 0.73706  0.56350  0.74231  Biso   1.000  Cu
  Cu14     1.0000 0.26294  0.56350  0.75769  Biso   1.000  Cu
  Cu15     1.0000 0.23706  0.06350  0.74231  Biso   1.000  Cu
  Cu16     1.0000 0.76294  0.06350  0.75769  Biso   1.000  Cu
  N9       1.0000 0.16304  0.30712  0.17970  Biso   1.000  N
  N10      1.0000 0.83696  0.30712  0.32030  Biso   1.000  N
  N11      1.0000 0.66304  0.80712  0.17970  Biso   1.000  N
  N12      1.0000 0.33696  0.80712  0.32030  Biso   1.000  N
  N13      1.0000 0.83696  0.69288  0.82030  Biso   1.000  N
  N14      1.0000 0.16304  0.69288  0.67970  Biso   1.000  N
  N15      1.0000 0.33696  0.19288  0.82030  Biso   1.000  N
  N16      1.0000 0.66304  0.19288  0.67970  Biso   1.000  N
  C9       1.0000 0.00200  0.30845  0.13742  Biso   1.000  C
  C10      1.0000 0.99800  0.30845  0.36258  Biso   1.000  C
  C11      1.0000 0.50200  0.80845  0.13742  Biso   1.000  C
  C12      1.0000 0.49800  0.80845  0.36258  Biso   1.000  C
  C13      1.0000 0.99800  0.69155  0.86258  Biso   1.000  C
  C14      1.0000 0.00200  0.69155  0.63742  Biso   1.000  C
  C15      1.0000 0.49800  0.19155  0.86258  Biso   1.000  C
  C16      1.0000 0.50200  0.19155  0.63742  Biso   1.000  C
  H9       1.0000 0.93950  0.30910  0.14320  Biso   1.000  H
  H10      1.0000 0.06050  0.30910  0.35680  Biso   1.000  H
  H11      1.0000 0.43950  0.80910  0.14320  Biso   1.000  H
  H12      1.0000 0.56050  0.80910  0.35680  Biso   1.000  H
  H13      1.0000 0.06050  0.69090  0.85680  Biso   1.000  H
  H14      1.0000 0.93950  0.69090  0.64320  Biso   1.000  H
  H15      1.0000 0.56050  0.19090  0.85680  Biso   1.000  H
  H16      1.0000 0.43950  0.19090  0.64320  Biso   1.000  H
  Cl9      1.0000 0.16394  0.38336  0.29788  Biso   1.000  Cl
  Cl10     1.0000 0.83606  0.38336  0.20212  Biso   1.000  Cl
  Cl11     1.0000 0.66394  0.88336  0.29788  Biso   1.000  Cl
  Cl12     1.0000 0.33606  0.88336  0.20212  Biso   1.000  Cl
  Cl13     1.0000 0.83606  0.61664  0.70212  Biso   1.000  Cl
  Cl14     1.0000 0.16394  0.61664  0.79788  Biso   1.000  Cl
  Cl15     1.0000 0.33606  0.11664  0.70212  Biso   1.000  Cl
  Cl16     1.0000 0.66394  0.11664  0.79788  Biso   1.000  Cl
  C17      1.0000 0.02560  0.30814  0.08101  Biso   1.000  C
  C18      1.0000 0.97440  0.30814  0.41899  Biso   1.000  C
  C19      1.0000 0.52560  0.80814  0.08101  Biso   1.000  C
  C20      1.0000 0.47440  0.80814  0.41899  Biso   1.000  C
  C21      1.0000 0.97440  0.69186  0.91899  Biso   1.000  C
  C22      1.0000 0.02560  0.69186  0.58101  Biso   1.000  C
  C23      1.0000 0.47440  0.19186  0.91899  Biso   1.000  C
  C24      1.0000 0.52560  0.19186  0.58101  Biso   1.000  C
  N17      1.0000 0.86060  0.31430  0.03269  Biso   1.000  N
  N18      1.0000 0.13940  0.31430  0.46731  Biso   1.000  N
  N19      1.0000 0.36060  0.81430  0.03269  Biso   1.000  N
  N20      1.0000 0.63940  0.81430  0.46731  Biso   1.000  N
  N21      1.0000 0.13940  0.68570  0.96731  Biso   1.000  N
  N22      1.0000 0.86060  0.68570  0.53269  Biso   1.000  N
  N23      1.0000 0.63940  0.18570  0.96731  Biso   1.000  N
  N24      1.0000 0.36060  0.18570  0.53269  Biso   1.000  N
  C25      1.0000 0.11970  0.30586  0.07527  Biso   1.000  C
  C26      1.0000 0.88030  0.30586  0.42473  Biso   1.000  C
  C27      1.0000 0.61970  0.80586  0.07527  Biso   1.000  C
  C28      1.0000 0.38030  0.80586  0.42473  Biso   1.000  C
  C29      1.0000 0.88030  0.69414  0.92473  Biso   1.000  C
  C30      1.0000 0.11970  0.69414  0.57527  Biso   1.000  C
  C31      1.0000 0.38030  0.19414  0.92473  Biso   1.000  C
  C32      1.0000 0.61970  0.19414  0.57527  Biso   1.000  C
  H17      1.0000 0.13810  0.30440  0.03790  Biso   1.000  H
  H18      1.0000 0.86190  0.30440  0.46210  Biso   1.000  H
  H19      1.0000 0.63810  0.80440  0.03790  Biso   1.000  H
  H20      1.0000 0.36190  0.80440  0.46210  Biso   1.000  H
  H21      1.0000 0.86190  0.69560  0.96210  Biso   1.000  H
  H22      1.0000 0.13810  0.69560  0.53790  Biso   1.000  H
  H23      1.0000 0.36190  0.19560  0.96210  Biso   1.000  H
  H24      1.0000 0.63810  0.19560  0.53790  Biso   1.000  H
  N25      1.0000 0.81780  0.32153  0.97850  Biso   1.000  N
  N26      1.0000 0.18220  0.32153  0.52150  Biso   1.000  N
  N27      1.0000 0.31780  0.82153  0.97850  Biso   1.000  N
  N28      1.0000 0.68220  0.82153  0.52150  Biso   1.000  N
  N29      1.0000 0.18220  0.67847  0.02150  Biso   1.000  N
  N30      1.0000 0.81780  0.67847  0.47850  Biso   1.000  N
  N31      1.0000 0.68220  0.17847  0.02150  Biso   1.000  N
  N32      1.0000 0.31780  0.17847  0.47850  Biso   1.000  N
  O1       1.0000 0.23712  0.52917  0.27379  Biso   1.000  O
  O2       1.0000 0.76288  0.52917  0.22621  Biso   1.000  O
  O3       1.0000 0.73712  0.02917  0.27379  Biso   1.000  O
  O4       1.0000 0.26288  0.02917  0.22621  Biso   1.000  O
  O5       1.0000 0.76288  0.47083  0.72621  Biso   1.000  O
  O6       1.0000 0.23712  0.47083  0.77379  Biso   1.000  O
  O7       1.0000 0.26288  0.97083  0.72621  Biso   1.000  O
  O8       1.0000 0.73712  0.97083  0.77379  Biso   1.000  O
  N33      1.0000 0.88390  0.32276  0.94531  Biso   1.000  N
  N34      1.0000 0.11610  0.32276  0.55469  Biso   1.000  N
  N35      1.0000 0.38390  0.82276  0.94531  Biso   1.000  N
  N36      1.0000 0.61610  0.82276  0.55469  Biso   1.000  N
  N37      1.0000 0.11610  0.67724  0.05469  Biso   1.000  N
  N38      1.0000 0.88390  0.67724  0.44531  Biso   1.000  N
  N39      1.0000 0.61610  0.17724  0.05469  Biso   1.000  N
  N40      1.0000 0.38390  0.17724  0.44531  Biso   1.000  N
  C33      1.0000 0.18550  0.30582  0.12458  Biso   1.000  C
  C34      1.0000 0.81450  0.30582  0.37542  Biso   1.000  C
  C35      1.0000 0.68550  0.80582  0.12458  Biso   1.000  C
  C36      1.0000 0.31450  0.80582  0.37542  Biso   1.000  C
  C37      1.0000 0.81450  0.69418  0.87542  Biso   1.000  C
  C38      1.0000 0.18550  0.69418  0.62458  Biso   1.000  C
  C39      1.0000 0.31450  0.19418  0.87542  Biso   1.000  C
  C40      1.0000 0.68550  0.19418  0.62458  Biso   1.000  C
  H25      1.0000 0.24850  0.30490  0.11990  Biso   1.000  H
  H26      1.0000 0.75150  0.30490  0.38010  Biso   1.000  H
  H27      1.0000 0.74850  0.80490  0.11990  Biso   1.000  H
  H28      1.0000 0.25150  0.80490  0.38010  Biso   1.000  H
  H29      1.0000 0.75150  0.69510  0.88010  Biso   1.000  H
  H30      1.0000 0.24850  0.69510  0.61990  Biso   1.000  H
  H31      1.0000 0.25150  0.19510  0.88010  Biso   1.000  H
  H32      1.0000 0.74850  0.19510  0.61990  Biso   1.000  H
  O9       1.0000 0.33852  0.48891  0.22630  Biso   1.000  O
  O10      1.0000 0.66148  0.48891  0.27370  Biso   1.000  O
  O11      1.0000 0.83852  0.98891  0.22630  Biso   1.000  O
  O12      1.0000 0.16148  0.98891  0.27370  Biso   1.000  O
  O13      1.0000 0.66148  0.51109  0.77370  Biso   1.000  O
  O14      1.0000 0.33852  0.51109  0.72630  Biso   1.000  O
  O15      1.0000 0.16148  0.01109  0.77370  Biso   1.000  O
  O16      1.0000 0.83852  0.01109  0.72630  Biso   1.000  O
  N41      1.0000 0.96980  0.31752  0.97439  Biso   1.000  N
  N42      1.0000 0.03020  0.31752  0.52561  Biso   1.000  N
  N43      1.0000 0.46980  0.81752  0.97439  Biso   1.000  N
  N44      1.0000 0.53020  0.81752  0.52561  Biso   1.000  N
  N45      1.0000 0.03020  0.68248  0.02561  Biso   1.000  N
  N46      1.0000 0.96980  0.68248  0.47439  Biso   1.000  N
  N47      1.0000 0.53020  0.18248  0.02561  Biso   1.000  N
  N48      1.0000 0.46980  0.18248  0.47439  Biso   1.000  N
  C41      1.0000 0.95230  0.31237  0.02978  Biso   1.000  C
  C42      1.0000 0.04770  0.31237  0.47022  Biso   1.000  C
  C43      1.0000 0.45230  0.81237  0.02978  Biso   1.000  C
  C44      1.0000 0.54770  0.81237  0.47022  Biso   1.000  C
  C45      1.0000 0.04770  0.68763  0.97022  Biso   1.000  C
  C46      1.0000 0.95230  0.68763  0.52978  Biso   1.000  C
  C47      1.0000 0.54770  0.18763  0.97022  Biso   1.000  C
  C48      1.0000 0.45230  0.18763  0.52978  Biso   1.000  C
  O17      1.0000 0.31908  0.75427  0.21537  Biso   1.000  O
  O18      1.0000 0.68092  0.75427  0.28463  Biso   1.000  O
  O19      1.0000 0.81908  0.25427  0.21537  Biso   1.000  O
  O20      1.0000 0.18092  0.25427  0.28463  Biso   1.000  O
  O21      1.0000 0.68092  0.24573  0.78463  Biso   1.000  O
  O22      1.0000 0.31908  0.24573  0.71537  Biso   1.000  O
  O23      1.0000 0.18092  0.74573  0.78463  Biso   1.000  O
  O24      1.0000 0.81908  0.74573  0.71537  Biso   1.000  O
  N49      1.0000 0.87880  0.43641  0.95066  Biso   1.000  N
  N50      1.0000 0.12120  0.43641  0.54934  Biso   1.000  N
  N51      1.0000 0.37880  0.93641  0.95066  Biso   1.000  N
  N52      1.0000 0.62120  0.93641  0.54934  Biso   1.000  N
  N53      1.0000 0.12120  0.56359  0.04934  Biso   1.000  N
  N54      1.0000 0.87880  0.56359  0.45066  Biso   1.000  N
  N55      1.0000 0.62120  0.06359  0.04934  Biso   1.000  N
  N56      1.0000 0.37880  0.06359  0.45066  Biso   1.000  N
  C49      1.0000 0.86510  0.33326  0.88164  Biso   1.000  C
  C50      1.0000 0.13490  0.33326  0.61836  Biso   1.000  C
  C51      1.0000 0.36510  0.83326  0.88164  Biso   1.000  C
  C52      1.0000 0.63490  0.83326  0.61836  Biso   1.000  C
  C53      1.0000 0.13490  0.66674  0.11836  Biso   1.000  C
  C54      1.0000 0.86510  0.66674  0.38164  Biso   1.000  C
  C55      1.0000 0.63490  0.16674  0.11836  Biso   1.000  C
  C56      1.0000 0.36510  0.16674  0.38164  Biso   1.000  C
  H33      1.0000 0.79800  0.33160  0.86890  Biso   1.000  H
  H34      1.0000 0.20200  0.33160  0.63110  Biso   1.000  H
  H35      1.0000 0.29800  0.83160  0.86890  Biso   1.000  H
  H36      1.0000 0.70200  0.83160  0.63110  Biso   1.000  H
  H37      1.0000 0.20200  0.66840  0.13110  Biso   1.000  H
  H38      1.0000 0.79800  0.66840  0.36890  Biso   1.000  H
  H39      1.0000 0.70200  0.16840  0.13110  Biso   1.000  H
  H40      1.0000 0.29800  0.16840  0.36890  Biso   1.000  H
  H41      1.0000 0.89430  0.30760  0.86060  Biso   1.000  H
  H42      1.0000 0.10570  0.30760  0.63940  Biso   1.000  H
  H43      1.0000 0.39430  0.80760  0.86060  Biso   1.000  H
  H44      1.0000 0.60570  0.80760  0.63940  Biso   1.000  H
  H45      1.0000 0.10570  0.69240  0.13940  Biso   1.000  H
  H46      1.0000 0.89430  0.69240  0.36060  Biso   1.000  H
  H47      1.0000 0.60570  0.19240  0.13940  Biso   1.000  H
  H48      1.0000 0.39430  0.19240  0.36060  Biso   1.000  H
  O25      1.0000 0.23054  0.71396  0.27093  Biso   1.000  O
  O26      1.0000 0.76946  0.71396  0.22907  Biso   1.000  O
  O27      1.0000 0.73054  0.21396  0.27093  Biso   1.000  O
  O28      1.0000 0.26946  0.21396  0.22907  Biso   1.000  O
  O29      1.0000 0.76946  0.28604  0.72907  Biso   1.000  O
  O30      1.0000 0.23054  0.28604  0.77093  Biso   1.000  O
  O31      1.0000 0.26946  0.78604  0.72907  Biso   1.000  O
  O32      1.0000 0.73054  0.78604  0.77093  Biso   1.000  O
  C57      1.0000 0.89960  0.38216  0.86504  Biso   1.000  C
  C58      1.0000 0.10040  0.38216  0.63496  Biso   1.000  C
  C59      1.0000 0.39960  0.88216  0.86504  Biso   1.000  C
  C60      1.0000 0.60040  0.88216  0.63496  Biso   1.000  C
  C61      1.0000 0.10040  0.61784  0.13496  Biso   1.000  C
  C62      1.0000 0.89960  0.61784  0.36504  Biso   1.000  C
  C63      1.0000 0.60040  0.11784  0.13496  Biso   1.000  C
  C64      1.0000 0.39960  0.11784  0.36504  Biso   1.000  C
  H49      1.0000 0.89250  0.38400  0.82220  Biso   1.000  H
  H50      1.0000 0.10750  0.38400  0.67780  Biso   1.000  H
  H51      1.0000 0.39250  0.88400  0.82220  Biso   1.000  H
  H52      1.0000 0.60750  0.88400  0.67780  Biso   1.000  H
  H53      1.0000 0.10750  0.61600  0.17780  Biso   1.000  H
  H54      1.0000 0.89250  0.61600  0.32220  Biso   1.000  H
  H55      1.0000 0.60750  0.11600  0.17780  Biso   1.000  H
  H56      1.0000 0.39250  0.11600  0.32220  Biso   1.000  H
  H57      1.0000 0.96610  0.38420  0.87970  Biso   1.000  H
  H58      1.0000 0.03390  0.38420  0.62030  Biso   1.000  H
  H59      1.0000 0.46610  0.88420  0.87970  Biso   1.000  H
  H60      1.0000 0.53390  0.88420  0.62030  Biso   1.000  H
  H61      1.0000 0.03390  0.61580  0.12030  Biso   1.000  H
  H62      1.0000 0.96610  0.61580  0.37970  Biso   1.000  H
  H63      1.0000 0.53390  0.11580  0.12030  Biso   1.000  H
  H64      1.0000 0.46610  0.11580  0.37970  Biso   1.000  H
  N57      1.0000 0.81710  0.45101  0.98390  Biso   1.000  N
  N58      1.0000 0.18290  0.45101  0.51610  Biso   1.000  N
  N59      1.0000 0.31710  0.95101  0.98390  Biso   1.000  N
  N60      1.0000 0.68290  0.95101  0.51610  Biso   1.000  N
  N61      1.0000 0.18290  0.54899  0.01610  Biso   1.000  N
  N62      1.0000 0.81710  0.54899  0.48390  Biso   1.000  N
  N63      1.0000 0.68290  0.04899  0.01610  Biso   1.000  N
  N64      1.0000 0.31710  0.04899  0.48390  Biso   1.000  N
  N65      1.0000 0.86450  0.45833  0.03695  Biso   1.000  N
  N66      1.0000 0.13550  0.45833  0.46305  Biso   1.000  N
  N67      1.0000 0.36450  0.95833  0.03695  Biso   1.000  N
  N68      1.0000 0.63550  0.95833  0.46305  Biso   1.000  N
  N69      1.0000 0.13550  0.54167  0.96305  Biso   1.000  N
  N70      1.0000 0.86450  0.54167  0.53695  Biso   1.000  N
  N71      1.0000 0.63550  0.04167  0.96305  Biso   1.000  N
  N72      1.0000 0.36450  0.04167  0.53695  Biso   1.000  N
  C65      1.0000 0.85250  0.42598  0.88710  Biso   1.000  C
  C66      1.0000 0.14750  0.42598  0.61290  Biso   1.000  C
  C67      1.0000 0.35250  0.92598  0.88710  Biso   1.000  C
  C68      1.0000 0.64750  0.92598  0.61290  Biso   1.000  C
  C69      1.0000 0.14750  0.57402  0.11290  Biso   1.000  C
  C70      1.0000 0.85250  0.57402  0.38710  Biso   1.000  C
  C71      1.0000 0.64750  0.07402  0.11290  Biso   1.000  C
  C72      1.0000 0.35250  0.07402  0.38710  Biso   1.000  C
  H65      1.0000 0.86710  0.45500  0.86490  Biso   1.000  H
  H66      1.0000 0.13290  0.45500  0.63510  Biso   1.000  H
  H67      1.0000 0.36710  0.95500  0.86490  Biso   1.000  H
  H68      1.0000 0.63290  0.95500  0.63510  Biso   1.000  H
  H69      1.0000 0.13290  0.54500  0.13510  Biso   1.000  H
  H70      1.0000 0.86710  0.54500  0.36490  Biso   1.000  H
  H71      1.0000 0.63290  0.04500  0.13510  Biso   1.000  H
  H72      1.0000 0.36710  0.04500  0.36490  Biso   1.000  H
  H73      1.0000 0.78520  0.42090  0.87920  Biso   1.000  H
  H74      1.0000 0.21480  0.42090  0.62080  Biso   1.000  H
  H75      1.0000 0.28520  0.92090  0.87920  Biso   1.000  H
  H76      1.0000 0.71480  0.92090  0.62080  Biso   1.000  H
  H77      1.0000 0.21480  0.57910  0.12080  Biso   1.000  H
  H78      1.0000 0.78520  0.57910  0.37920  Biso   1.000  H
  H79      1.0000 0.71480  0.07910  0.12080  Biso   1.000  H
  H80      1.0000 0.28520  0.07910  0.37920  Biso   1.000  H
  N73      1.0000 0.96650  0.43383  0.97829  Biso   1.000  N
  N74      1.0000 0.03350  0.43383  0.52171  Biso   1.000  N
  N75      1.0000 0.46650  0.93383  0.97829  Biso   1.000  N
  N76      1.0000 0.53350  0.93383  0.52171  Biso   1.000  N
  N77      1.0000 0.03350  0.56617  0.02171  Biso   1.000  N
  N78      1.0000 0.96650  0.56617  0.47829  Biso   1.000  N
  N79      1.0000 0.53350  0.06617  0.02171  Biso   1.000  N
  N80      1.0000 0.46650  0.06617  0.47829  Biso   1.000  N
  C73      1.0000 0.95470  0.44748  0.03317  Biso   1.000  C
  C74      1.0000 0.04530  0.44748  0.46683  Biso   1.000  C
  C75      1.0000 0.45470  0.94748  0.03317  Biso   1.000  C
  C76      1.0000 0.54530  0.94748  0.46683  Biso   1.000  C
  C77      1.0000 0.04530  0.55252  0.96683  Biso   1.000  C
  C78      1.0000 0.95470  0.55252  0.53317  Biso   1.000  C
  C79      1.0000 0.54530  0.05252  0.96683  Biso   1.000  C
  C80      1.0000 0.45470  0.05252  0.53317  Biso   1.000  C
  C81      1.0000 0.02890  0.44841  0.08414  Biso   1.000  C
  C82      1.0000 0.97110  0.44841  0.41586  Biso   1.000  C
  C83      1.0000 0.52890  0.94841  0.08414  Biso   1.000  C
  C84      1.0000 0.47110  0.94841  0.41586  Biso   1.000  C
  C85      1.0000 0.97110  0.55159  0.91586  Biso   1.000  C
  C86      1.0000 0.02890  0.55159  0.58414  Biso   1.000  C
  C87      1.0000 0.47110  0.05159  0.91586  Biso   1.000  C
  C88      1.0000 0.52890  0.05159  0.58414  Biso   1.000  C
  N81      1.0000 0.35358  0.43754  0.33401  Biso   1.000  N
  N82      1.0000 0.64642  0.43754  0.16599  Biso   1.000  N
  N83      1.0000 0.85358  0.93754  0.33401  Biso   1.000  N
  N84      1.0000 0.14642  0.93754  0.16599  Biso   1.000  N
  N85      1.0000 0.64642  0.56246  0.66599  Biso   1.000  N
  N86      1.0000 0.35358  0.56246  0.83401  Biso   1.000  N
  N87      1.0000 0.14642  0.06246  0.66599  Biso   1.000  N
  N88      1.0000 0.85358  0.06246  0.83401  Biso   1.000  N
  N89      1.0000 0.34926  0.30180  0.33005  Biso   1.000  N
  N90      1.0000 0.65074  0.30180  0.16995  Biso   1.000  N
  N91      1.0000 0.84926  0.80180  0.33005  Biso   1.000  N
  N92      1.0000 0.15074  0.80180  0.16995  Biso   1.000  N
  N93      1.0000 0.65074  0.69820  0.66995  Biso   1.000  N
  N94      1.0000 0.34926  0.69820  0.83005  Biso   1.000  N
  N95      1.0000 0.15074  0.19820  0.66995  Biso   1.000  N
  N96      1.0000 0.84926  0.19820  0.83005  Biso   1.000  N
  C89      1.0000 0.12150  0.43889  0.07909  Biso   1.000  C
  C90      1.0000 0.87850  0.43889  0.42091  Biso   1.000  C
  C91      1.0000 0.62150  0.93889  0.07909  Biso   1.000  C
  C92      1.0000 0.37850  0.93889  0.42091  Biso   1.000  C
  C93      1.0000 0.87850  0.56111  0.92091  Biso   1.000  C
  C94      1.0000 0.12150  0.56111  0.57909  Biso   1.000  C
  C95      1.0000 0.37850  0.06111  0.92091  Biso   1.000  C
  C96      1.0000 0.62150  0.06111  0.57909  Biso   1.000  C
  H81      1.0000 0.13890  0.43380  0.04180  Biso   1.000  H
  H82      1.0000 0.86110  0.43380  0.45820  Biso   1.000  H
  H83      1.0000 0.63890  0.93380  0.04180  Biso   1.000  H
  H84      1.0000 0.36110  0.93380  0.45820  Biso   1.000  H
  H85      1.0000 0.86110  0.56620  0.95820  Biso   1.000  H
  H86      1.0000 0.13890  0.56620  0.54180  Biso   1.000  H
  H87      1.0000 0.36110  0.06620  0.95820  Biso   1.000  H
  H88      1.0000 0.63890  0.06620  0.54180  Biso   1.000  H
  N97      1.0000 0.51060  0.31085  0.54432  Biso   1.000  N
  N98      1.0000 0.48940  0.31085  0.95568  Biso   1.000  N
  N99      1.0000 0.01060  0.81085  0.54432  Biso   1.000  N
  N100     1.0000 0.98940  0.81085  0.95568  Biso   1.000  N
  N101     1.0000 0.48940  0.68915  0.45568  Biso   1.000  N
  N102     1.0000 0.51060  0.68915  0.04432  Biso   1.000  N
  N103     1.0000 0.98940  0.18915  0.45568  Biso   1.000  N
  N104     1.0000 0.01060  0.18915  0.04432  Biso   1.000  N
  C97      1.0000 0.18780  0.43684  0.12836  Biso   1.000  C
  C98      1.0000 0.81220  0.43684  0.37164  Biso   1.000  C
  C99      1.0000 0.68780  0.93684  0.12836  Biso   1.000  C
  C100     1.0000 0.31220  0.93684  0.37164  Biso   1.000  C
  C101     1.0000 0.81220  0.56316  0.87164  Biso   1.000  C
  C102     1.0000 0.18780  0.56316  0.62836  Biso   1.000  C
  C103     1.0000 0.31220  0.06316  0.87164  Biso   1.000  C
  C104     1.0000 0.68780  0.06316  0.62836  Biso   1.000  C
  H89      1.0000 0.24990  0.43080  0.12360  Biso   1.000  H
  H90      1.0000 0.75010  0.43080  0.37640  Biso   1.000  H
  H91      1.0000 0.74990  0.93080  0.12360  Biso   1.000  H
  H92      1.0000 0.25010  0.93080  0.37640  Biso   1.000  H
  H93      1.0000 0.75010  0.56920  0.87640  Biso   1.000  H
  H94      1.0000 0.24990  0.56920  0.62360  Biso   1.000  H
  H95      1.0000 0.25010  0.06920  0.87640  Biso   1.000  H
  H96      1.0000 0.74990  0.06920  0.62360  Biso   1.000  H
  N105     1.0000 0.58730  0.31644  0.58288  Biso   1.000  N
  N106     1.0000 0.41270  0.31644  0.91712  Biso   1.000  N
  N107     1.0000 0.08730  0.81644  0.58288  Biso   1.000  N
  N108     1.0000 0.91270  0.81644  0.91712  Biso   1.000  N
  N109     1.0000 0.41270  0.68356  0.41712  Biso   1.000  N
  N110     1.0000 0.58730  0.68356  0.08288  Biso   1.000  N
  N111     1.0000 0.91270  0.18356  0.41712  Biso   1.000  N
  N112     1.0000 0.08730  0.18356  0.08288  Biso   1.000  N
  C105     1.0000 0.00820  0.45713  0.14063  Biso   1.000  C
  C106     1.0000 0.99180  0.45713  0.35937  Biso   1.000  C
  C107     1.0000 0.50820  0.95713  0.14063  Biso   1.000  C
  C108     1.0000 0.49180  0.95713  0.35937  Biso   1.000  C
  C109     1.0000 0.99180  0.54287  0.85937  Biso   1.000  C
  C110     1.0000 0.00820  0.54287  0.64063  Biso   1.000  C
  C111     1.0000 0.49180  0.04287  0.85937  Biso   1.000  C
  C112     1.0000 0.50820  0.04287  0.64063  Biso   1.000  C
  H97      1.0000 0.94750  0.46520  0.14650  Biso   1.000  H
  H98      1.0000 0.05250  0.46520  0.35350  Biso   1.000  H
  H99      1.0000 0.44750  0.96520  0.14650  Biso   1.000  H
  H100     1.0000 0.55250  0.96520  0.35350  Biso   1.000  H
  H101     1.0000 0.05250  0.53480  0.85350  Biso   1.000  H
  H102     1.0000 0.94750  0.53480  0.64650  Biso   1.000  H
  H103     1.0000 0.55250  0.03480  0.85350  Biso   1.000  H
  H104     1.0000 0.44750  0.03480  0.64650  Biso   1.000  H
  N113     1.0000 0.65720  0.31439  0.55217  Biso   1.000  N
  N114     1.0000 0.34280  0.31439  0.94783  Biso   1.000  N
  N115     1.0000 0.15720  0.81439  0.55217  Biso   1.000  N
  N116     1.0000 0.84280  0.81439  0.94783  Biso   1.000  N
  N117     1.0000 0.34280  0.68561  0.44783  Biso   1.000  N
  N118     1.0000 0.65720  0.68561  0.05217  Biso   1.000  N
  N119     1.0000 0.84280  0.18561  0.44783  Biso   1.000  N
  N120     1.0000 0.15720  0.18561  0.05217  Biso   1.000  N
  C113     1.0000 0.07820  0.45369  0.18752  Biso   1.000  C
  C114     1.0000 0.92180  0.45369  0.31248  Biso   1.000  C
  C115     1.0000 0.57820  0.95369  0.18752  Biso   1.000  C
  C116     1.0000 0.42180  0.95369  0.31248  Biso   1.000  C
  C117     1.0000 0.92180  0.54631  0.81248  Biso   1.000  C
  C118     1.0000 0.07820  0.54631  0.68752  Biso   1.000  C
  C119     1.0000 0.42180  0.04631  0.81248  Biso   1.000  C
  C120     1.0000 0.57820  0.04631  0.68752  Biso   1.000  C
  H105     1.0000 0.06270  0.45910  0.22520  Biso   1.000  H
  H106     1.0000 0.93730  0.45910  0.27480  Biso   1.000  H
  H107     1.0000 0.56270  0.95910  0.22520  Biso   1.000  H
  H108     1.0000 0.43730  0.95910  0.27480  Biso   1.000  H
  H109     1.0000 0.93730  0.54090  0.77480  Biso   1.000  H
  H110     1.0000 0.06270  0.54090  0.72520  Biso   1.000  H
  H111     1.0000 0.43730  0.04090  0.77480  Biso   1.000  H
  H112     1.0000 0.56270  0.04090  0.72520  Biso   1.000  H
  N121     1.0000 0.63230  0.30746  0.49466  Biso   1.000  N
  N122     1.0000 0.36770  0.30746  0.00534  Biso   1.000  N
  N123     1.0000 0.13230  0.80746  0.49466  Biso   1.000  N
  N124     1.0000 0.86770  0.80746  0.00534  Biso   1.000  N
  N125     1.0000 0.36770  0.69254  0.50534  Biso   1.000  N
  N126     1.0000 0.63230  0.69254  0.99466  Biso   1.000  N
  N127     1.0000 0.86770  0.19254  0.50534  Biso   1.000  N
  N128     1.0000 0.13230  0.19254  0.99466  Biso   1.000  N
  C121     1.0000 0.44150  0.29778  0.33028  Biso   1.000  C
  C122     1.0000 0.55850  0.29778  0.16972  Biso   1.000  C
  C123     1.0000 0.94150  0.79778  0.33028  Biso   1.000  C
  C124     1.0000 0.05850  0.79778  0.16972  Biso   1.000  C
  C125     1.0000 0.55850  0.70222  0.66972  Biso   1.000  C
  C126     1.0000 0.44150  0.70222  0.83028  Biso   1.000  C
  C127     1.0000 0.05850  0.20222  0.66972  Biso   1.000  C
  C128     1.0000 0.94150  0.20222  0.83028  Biso   1.000  C
  H113     1.0000 0.46390  0.29550  0.29410  Biso   1.000  H
  H114     1.0000 0.53610  0.29550  0.20590  Biso   1.000  H
  H115     1.0000 0.96390  0.79550  0.29410  Biso   1.000  H
  H116     1.0000 0.03610  0.79550  0.20590  Biso   1.000  H
  H117     1.0000 0.53610  0.70450  0.70590  Biso   1.000  H
  H118     1.0000 0.46390  0.70450  0.79410  Biso   1.000  H
  H119     1.0000 0.03610  0.20450  0.70590  Biso   1.000  H
  H120     1.0000 0.96390  0.20450  0.79410  Biso   1.000  H
  N129     1.0000 0.51760  0.44219  0.54780  Biso   1.000  N
  N130     1.0000 0.48240  0.44219  0.95220  Biso   1.000  N
  N131     1.0000 0.01760  0.94219  0.54780  Biso   1.000  N
  N132     1.0000 0.98240  0.94219  0.95220  Biso   1.000  N
  N133     1.0000 0.48240  0.55781  0.45220  Biso   1.000  N
  N134     1.0000 0.51760  0.55781  0.04780  Biso   1.000  N
  N135     1.0000 0.98240  0.05781  0.45220  Biso   1.000  N
  N136     1.0000 0.01760  0.05781  0.04780  Biso   1.000  N
  C129     1.0000 0.50490  0.29690  0.38108  Biso   1.000  C
  C130     1.0000 0.49510  0.29690  0.11892  Biso   1.000  C
  C131     1.0000 0.00490  0.79690  0.38108  Biso   1.000  C
  C132     1.0000 0.99510  0.79690  0.11892  Biso   1.000  C
  C133     1.0000 0.49510  0.70310  0.61892  Biso   1.000  C
  C134     1.0000 0.50490  0.70310  0.88108  Biso   1.000  C
  C135     1.0000 0.99510  0.20310  0.61892  Biso   1.000  C
  C136     1.0000 0.00490  0.20310  0.88108  Biso   1.000  C
  H121     1.0000 0.56860  0.29350  0.37900  Biso   1.000  H
  H122     1.0000 0.43140  0.29350  0.12100  Biso   1.000  H
  H123     1.0000 0.06860  0.79350  0.37900  Biso   1.000  H
  H124     1.0000 0.93140  0.79350  0.12100  Biso   1.000  H
  H125     1.0000 0.43140  0.70650  0.62100  Biso   1.000  H
  H126     1.0000 0.56860  0.70650  0.87900  Biso   1.000  H
  H127     1.0000 0.93140  0.20650  0.62100  Biso   1.000  H
  H128     1.0000 0.06860  0.20650  0.87900  Biso   1.000  H
  N137     1.0000 0.59360  0.43642  0.58683  Biso   1.000  N
  N138     1.0000 0.40640  0.43642  0.91317  Biso   1.000  N
  N139     1.0000 0.09360  0.93642  0.58683  Biso   1.000  N
  N140     1.0000 0.90640  0.93642  0.91317  Biso   1.000  N
  N141     1.0000 0.40640  0.56358  0.41317  Biso   1.000  N
  N142     1.0000 0.59360  0.56358  0.08683  Biso   1.000  N
  N143     1.0000 0.90640  0.06358  0.41317  Biso   1.000  N
  N144     1.0000 0.09360  0.06358  0.08683  Biso   1.000  N
  C137     1.0000 0.47400  0.30112  0.43568  Biso   1.000  C
  C138     1.0000 0.52600  0.30112  0.06432  Biso   1.000  C
  C139     1.0000 0.97400  0.80112  0.43568  Biso   1.000  C
  C140     1.0000 0.02600  0.80112  0.06432  Biso   1.000  C
  C141     1.0000 0.52600  0.69888  0.56432  Biso   1.000  C
  C142     1.0000 0.47400  0.69888  0.93568  Biso   1.000  C
  C143     1.0000 0.02600  0.19888  0.56432  Biso   1.000  C
  C144     1.0000 0.97400  0.19888  0.93568  Biso   1.000  C
  N145     1.0000 0.66230  0.42845  0.55590  Biso   1.000  N
  N146     1.0000 0.33770  0.42845  0.94410  Biso   1.000  N
  N147     1.0000 0.16230  0.92845  0.55590  Biso   1.000  N
  N148     1.0000 0.83770  0.92845  0.94410  Biso   1.000  N
  N149     1.0000 0.33770  0.57155  0.44410  Biso   1.000  N
  N150     1.0000 0.66230  0.57155  0.05590  Biso   1.000  N
  N151     1.0000 0.83770  0.07155  0.44410  Biso   1.000  N
  N152     1.0000 0.16230  0.07155  0.05590  Biso   1.000  N
  C145     1.0000 0.37840  0.30455  0.43556  Biso   1.000  C
  C146     1.0000 0.62160  0.30455  0.06444  Biso   1.000  C
  C147     1.0000 0.87840  0.80455  0.43556  Biso   1.000  C
  C148     1.0000 0.12160  0.80455  0.06444  Biso   1.000  C
  C149     1.0000 0.62160  0.69545  0.56444  Biso   1.000  C
  C150     1.0000 0.37840  0.69545  0.93556  Biso   1.000  C
  C151     1.0000 0.12160  0.19545  0.56444  Biso   1.000  C
  C152     1.0000 0.87840  0.19545  0.93556  Biso   1.000  C
  H129     1.0000 0.35430  0.30690  0.47110  Biso   1.000  H
  H130     1.0000 0.64570  0.30690  0.02890  Biso   1.000  H
  H131     1.0000 0.85430  0.80690  0.47110  Biso   1.000  H
  H132     1.0000 0.14570  0.80690  0.02890  Biso   1.000  H
  H133     1.0000 0.64570  0.69310  0.52890  Biso   1.000  H
  H134     1.0000 0.35430  0.69310  0.97110  Biso   1.000  H
  H135     1.0000 0.14570  0.19310  0.52890  Biso   1.000  H
  H136     1.0000 0.85430  0.19310  0.97110  Biso   1.000  H
  N153     1.0000 0.63660  0.42861  0.49744  Biso   1.000  N
  N154     1.0000 0.36340  0.42861  0.00256  Biso   1.000  N
  N155     1.0000 0.13660  0.92861  0.49744  Biso   1.000  N
  N156     1.0000 0.86340  0.92861  0.00256  Biso   1.000  N
  N157     1.0000 0.36340  0.57139  0.50256  Biso   1.000  N
  N158     1.0000 0.63660  0.57139  0.99744  Biso   1.000  N
  N159     1.0000 0.86340  0.07139  0.50256  Biso   1.000  N
  N160     1.0000 0.13660  0.07139  0.99744  Biso   1.000  N
  C153     1.0000 0.31910  0.30448  0.38281  Biso   1.000  C
  C154     1.0000 0.68090  0.30448  0.11719  Biso   1.000  C
  C155     1.0000 0.81910  0.80448  0.38281  Biso   1.000  C
  C156     1.0000 0.18090  0.80448  0.11719  Biso   1.000  C
  C157     1.0000 0.68090  0.69552  0.61719  Biso   1.000  C
  C158     1.0000 0.31910  0.69552  0.88281  Biso   1.000  C
  C159     1.0000 0.18090  0.19552  0.61719  Biso   1.000  C
  C160     1.0000 0.81910  0.19552  0.88281  Biso   1.000  C
  H137     1.0000 0.25490  0.30640  0.38370  Biso   1.000  H
  H138     1.0000 0.74510  0.30640  0.11630  Biso   1.000  H
  H139     1.0000 0.75490  0.80640  0.38370  Biso   1.000  H
  H140     1.0000 0.24510  0.80640  0.11630  Biso   1.000  H
  H141     1.0000 0.74510  0.69360  0.61630  Biso   1.000  H
  H142     1.0000 0.25490  0.69360  0.88370  Biso   1.000  H
  H143     1.0000 0.24510  0.19360  0.61630  Biso   1.000  H
  H144     1.0000 0.75490  0.19360  0.88370  Biso   1.000  H
  C161     1.0000 0.53890  0.30557  0.49111  Biso   1.000  C
  C162     1.0000 0.46110  0.30557  0.00889  Biso   1.000  C
  C163     1.0000 0.03890  0.80557  0.49111  Biso   1.000  C
  C164     1.0000 0.96110  0.80557  0.00889  Biso   1.000  C
  C165     1.0000 0.46110  0.69443  0.50889  Biso   1.000  C
  C166     1.0000 0.53890  0.69443  0.99111  Biso   1.000  C
  C167     1.0000 0.96110  0.19443  0.50889  Biso   1.000  C
  C168     1.0000 0.03890  0.19443  0.99111  Biso   1.000  C
  C169     1.0000 0.75440  0.32225  0.58041  Biso   1.000  C
  C170     1.0000 0.24560  0.32225  0.91959  Biso   1.000  C
  C171     1.0000 0.25440  0.82225  0.58041  Biso   1.000  C
  C172     1.0000 0.74560  0.82225  0.91959  Biso   1.000  C
  C173     1.0000 0.24560  0.67775  0.41959  Biso   1.000  C
  C174     1.0000 0.75440  0.67775  0.08041  Biso   1.000  C
  C175     1.0000 0.74560  0.17775  0.41959  Biso   1.000  C
  C176     1.0000 0.25440  0.17775  0.08041  Biso   1.000  C
  H145     1.0000 0.79290  0.29490  0.57010  Biso   1.000  H
  H146     1.0000 0.20710  0.29490  0.92990  Biso   1.000  H
  H147     1.0000 0.29290  0.79490  0.57010  Biso   1.000  H
  H148     1.0000 0.70710  0.79490  0.92990  Biso   1.000  H
  H149     1.0000 0.20710  0.70510  0.42990  Biso   1.000  H
  H150     1.0000 0.79290  0.70510  0.07010  Biso   1.000  H
  H151     1.0000 0.70710  0.20510  0.42990  Biso   1.000  H
  H152     1.0000 0.29290  0.20510  0.07010  Biso   1.000  H
  H153     1.0000 0.75630  0.32210  0.62310  Biso   1.000  H
  H154     1.0000 0.24370  0.32210  0.87690  Biso   1.000  H
  H155     1.0000 0.25630  0.82210  0.62310  Biso   1.000  H
  H156     1.0000 0.74370  0.82210  0.87690  Biso   1.000  H
  H157     1.0000 0.24370  0.67790  0.37690  Biso   1.000  H
  H158     1.0000 0.75630  0.67790  0.12310  Biso   1.000  H
  H159     1.0000 0.74370  0.17790  0.37690  Biso   1.000  H
  H160     1.0000 0.25630  0.17790  0.12310  Biso   1.000  H
  C177     1.0000 0.79537  0.37018  0.56234  Biso   1.000  C
  C178     1.0000 0.20463  0.37018  0.93766  Biso   1.000  C
  C179     1.0000 0.29537  0.87018  0.56234  Biso   1.000  C
  C180     1.0000 0.70463  0.87018  0.93766  Biso   1.000  C
  C181     1.0000 0.20463  0.62982  0.43766  Biso   1.000  C
  C182     1.0000 0.79537  0.62982  0.06234  Biso   1.000  C
  C183     1.0000 0.70463  0.12982  0.43766  Biso   1.000  C
  C184     1.0000 0.29537  0.12982  0.06234  Biso   1.000  C
  H161     1.0000 0.86240  0.36910  0.57580  Biso   1.000  H
  H162     1.0000 0.13760  0.36910  0.92420  Biso   1.000  H
  H163     1.0000 0.36240  0.86910  0.57580  Biso   1.000  H
  H164     1.0000 0.63760  0.86910  0.92420  Biso   1.000  H
  H165     1.0000 0.13760  0.63090  0.42420  Biso   1.000  H
  H166     1.0000 0.86240  0.63090  0.07580  Biso   1.000  H
  H167     1.0000 0.63760  0.13090  0.42420  Biso   1.000  H
  H168     1.0000 0.36240  0.13090  0.07580  Biso   1.000  H
  H169     1.0000 0.78710  0.37090  0.51940  Biso   1.000  H
  H170     1.0000 0.21290  0.37090  0.98060  Biso   1.000  H
  H171     1.0000 0.28710  0.87090  0.51940  Biso   1.000  H
  H172     1.0000 0.71290  0.87090  0.98060  Biso   1.000  H
  H173     1.0000 0.21290  0.62910  0.48060  Biso   1.000  H
  H174     1.0000 0.78710  0.62910  0.01940  Biso   1.000  H
  H175     1.0000 0.71290  0.12910  0.48060  Biso   1.000  H
  H176     1.0000 0.28710  0.12910  0.01940  Biso   1.000  H
  C185     1.0000 0.75976  0.41820  0.58271  Biso   1.000  C
  C186     1.0000 0.24024  0.41820  0.91729  Biso   1.000  C
  C187     1.0000 0.25976  0.91820  0.58271  Biso   1.000  C
  C188     1.0000 0.74024  0.91820  0.91729  Biso   1.000  C
  C189     1.0000 0.24024  0.58180  0.41729  Biso   1.000  C
  C190     1.0000 0.75976  0.58180  0.08271  Biso   1.000  C
  C191     1.0000 0.74024  0.08180  0.41729  Biso   1.000  C
  C192     1.0000 0.25976  0.08180  0.08271  Biso   1.000  C
  H177     1.0000 0.76420  0.41760  0.62550  Biso   1.000  H
  H178     1.0000 0.23580  0.41760  0.87450  Biso   1.000  H
  H179     1.0000 0.26420  0.91760  0.62550  Biso   1.000  H
  H180     1.0000 0.73580  0.91760  0.87450  Biso   1.000  H
  H181     1.0000 0.23580  0.58240  0.37450  Biso   1.000  H
  H182     1.0000 0.76420  0.58240  0.12550  Biso   1.000  H
  H183     1.0000 0.73580  0.08240  0.37450  Biso   1.000  H
  H184     1.0000 0.26420  0.08240  0.12550  Biso   1.000  H
  H185     1.0000 0.79950  0.44490  0.57230  Biso   1.000  H
  H186     1.0000 0.20050  0.44490  0.92770  Biso   1.000  H
  H187     1.0000 0.29950  0.94490  0.57230  Biso   1.000  H
  H188     1.0000 0.70050  0.94490  0.92770  Biso   1.000  H
  H189     1.0000 0.20050  0.55510  0.42770  Biso   1.000  H
  H190     1.0000 0.79950  0.55510  0.07230  Biso   1.000  H
  H191     1.0000 0.70050  0.05510  0.42770  Biso   1.000  H
  H192     1.0000 0.29950  0.05510  0.07230  Biso   1.000  H
  C193     1.0000 0.54530  0.43703  0.49390  Biso   1.000  C
  C194     1.0000 0.45470  0.43703  0.00610  Biso   1.000  C
  C195     1.0000 0.04530  0.93703  0.49390  Biso   1.000  C
  C196     1.0000 0.95470  0.93703  0.00610  Biso   1.000  C
  C197     1.0000 0.45470  0.56297  0.50610  Biso   1.000  C
  C198     1.0000 0.54530  0.56297  0.99390  Biso   1.000  C
  C199     1.0000 0.95470  0.06297  0.50610  Biso   1.000  C
  C200     1.0000 0.04530  0.06297  0.99390  Biso   1.000  C
  C201     1.0000 0.32340  0.44067  0.38705  Biso   1.000  C
  C202     1.0000 0.67660  0.44067  0.11295  Biso   1.000  C
  C203     1.0000 0.82340  0.94067  0.38705  Biso   1.000  C
  C204     1.0000 0.17660  0.94067  0.11295  Biso   1.000  C
  C205     1.0000 0.67660  0.55933  0.61295  Biso   1.000  C
  C206     1.0000 0.32340  0.55933  0.88705  Biso   1.000  C
  C207     1.0000 0.17660  0.05933  0.61295  Biso   1.000  C
  C208     1.0000 0.82340  0.05933  0.88705  Biso   1.000  C
  H193     1.0000 0.25920  0.44230  0.38840  Biso   1.000  H
  H194     1.0000 0.74080  0.44230  0.11160  Biso   1.000  H
  H195     1.0000 0.75920  0.94230  0.38840  Biso   1.000  H
  H196     1.0000 0.24080  0.94230  0.11160  Biso   1.000  H
  H197     1.0000 0.74080  0.55770  0.61160  Biso   1.000  H
  H198     1.0000 0.25920  0.55770  0.88840  Biso   1.000  H
  H199     1.0000 0.24080  0.05770  0.61160  Biso   1.000  H
  H200     1.0000 0.75920  0.05770  0.88840  Biso   1.000  H
  C209     1.0000 0.38400  0.44156  0.43918  Biso   1.000  C
  C210     1.0000 0.61600  0.44156  0.06082  Biso   1.000  C
  C211     1.0000 0.88400  0.94156  0.43918  Biso   1.000  C
  C212     1.0000 0.11600  0.94156  0.06082  Biso   1.000  C
  C213     1.0000 0.61600  0.55844  0.56082  Biso   1.000  C
  C214     1.0000 0.38400  0.55844  0.93918  Biso   1.000  C
  C215     1.0000 0.11600  0.05844  0.56082  Biso   1.000  C
  C216     1.0000 0.88400  0.05844  0.93918  Biso   1.000  C
  H201     1.0000 0.36060  0.44410  0.47500  Biso   1.000  H
  H202     1.0000 0.63940  0.44410  0.02500  Biso   1.000  H
  H203     1.0000 0.86060  0.94410  0.47500  Biso   1.000  H
  H204     1.0000 0.13940  0.94410  0.02500  Biso   1.000  H
  H205     1.0000 0.63940  0.55590  0.52500  Biso   1.000  H
  H206     1.0000 0.36060  0.55590  0.97500  Biso   1.000  H
  H207     1.0000 0.13940  0.05590  0.52500  Biso   1.000  H
  H208     1.0000 0.86060  0.05590  0.97500  Biso   1.000  H
  C217     1.0000 0.47990  0.43871  0.43892  Biso   1.000  C
  C218     1.0000 0.52010  0.43871  0.06108  Biso   1.000  C
  C219     1.0000 0.97990  0.93871  0.43892  Biso   1.000  C
  C220     1.0000 0.02010  0.93871  0.06108  Biso   1.000  C
  C221     1.0000 0.52010  0.56129  0.56108  Biso   1.000  C
  C222     1.0000 0.47990  0.56129  0.93892  Biso   1.000  C
  C223     1.0000 0.02010  0.06129  0.56108  Biso   1.000  C
  C224     1.0000 0.97990  0.06129  0.93892  Biso   1.000  C
  C225     1.0000 0.51040  0.43648  0.38353  Biso   1.000  C
  C226     1.0000 0.48960  0.43648  0.11647  Biso   1.000  C
  C227     1.0000 0.01040  0.93648  0.38353  Biso   1.000  C
  C228     1.0000 0.98960  0.93648  0.11647  Biso   1.000  C
  C229     1.0000 0.48960  0.56352  0.61647  Biso   1.000  C
  C230     1.0000 0.51040  0.56352  0.88353  Biso   1.000  C
  C231     1.0000 0.98960  0.06352  0.61647  Biso   1.000  C
  C232     1.0000 0.01040  0.06352  0.88353  Biso   1.000  C
  H209     1.0000 0.57410  0.43520  0.38090  Biso   1.000  H
  H210     1.0000 0.42590  0.43520  0.11910  Biso   1.000  H
  H211     1.0000 0.07410  0.93520  0.38090  Biso   1.000  H
  H212     1.0000 0.92590  0.93520  0.11910  Biso   1.000  H
  H213     1.0000 0.42590  0.56480  0.61910  Biso   1.000  H
  H214     1.0000 0.57410  0.56480  0.88090  Biso   1.000  H
  H215     1.0000 0.92590  0.06480  0.61910  Biso   1.000  H
  H216     1.0000 0.07410  0.06480  0.88090  Biso   1.000  H
  C233     1.0000 0.44580  0.43621  0.33315  Biso   1.000  C
  C234     1.0000 0.55420  0.43621  0.16685  Biso   1.000  C
  C235     1.0000 0.94580  0.93621  0.33315  Biso   1.000  C
  C236     1.0000 0.05420  0.93621  0.16685  Biso   1.000  C
  C237     1.0000 0.55420  0.56379  0.66685  Biso   1.000  C
  C238     1.0000 0.44580  0.56379  0.83315  Biso   1.000  C
  C239     1.0000 0.05420  0.06379  0.66685  Biso   1.000  C
  C240     1.0000 0.94580  0.06379  0.83315  Biso   1.000  C
  H217     1.0000 0.46740  0.43500  0.29670  Biso   1.000  H
  H218     1.0000 0.53260  0.43500  0.20330  Biso   1.000  H
  H219     1.0000 0.96740  0.93500  0.29670  Biso   1.000  H
  H220     1.0000 0.03260  0.93500  0.20330  Biso   1.000  H
  H221     1.0000 0.53260  0.56500  0.70330  Biso   1.000  H
  H222     1.0000 0.46740  0.56500  0.79670  Biso   1.000  H
  H223     1.0000 0.03260  0.06500  0.70330  Biso   1.000  H
  H224     1.0000 0.96740  0.06500  0.79670  Biso   1.000  H
  C241     1.0000 0.34330  0.57711  0.22547  Biso   1.000  C
  C242     1.0000 0.65670  0.57711  0.27453  Biso   1.000  C
  C243     1.0000 0.84330  0.07711  0.22547  Biso   1.000  C
  C244     1.0000 0.15670  0.07711  0.27453  Biso   1.000  C
  C245     1.0000 0.65670  0.42289  0.77453  Biso   1.000  C
  C246     1.0000 0.34330  0.42289  0.72547  Biso   1.000  C
  C247     1.0000 0.15670  0.92289  0.77453  Biso   1.000  C
  C248     1.0000 0.84330  0.92289  0.72547  Biso   1.000  C
  C249     1.0000 0.30690  0.62182  0.24235  Biso   1.000  C
  C250     1.0000 0.69310  0.62182  0.25765  Biso   1.000  C
  C251     1.0000 0.80690  0.12182  0.24235  Biso   1.000  C
  C252     1.0000 0.19310  0.12182  0.25765  Biso   1.000  C
  C253     1.0000 0.69310  0.37818  0.75765  Biso   1.000  C
  C254     1.0000 0.30690  0.37818  0.74235  Biso   1.000  C
  C255     1.0000 0.19310  0.87818  0.75765  Biso   1.000  C
  C256     1.0000 0.80690  0.87818  0.74235  Biso   1.000  C
  H225     1.0000 0.26100  0.62160  0.26710  Biso   1.000  H
  H226     1.0000 0.73900  0.62160  0.23290  Biso   1.000  H
  H227     1.0000 0.76100  0.12160  0.26710  Biso   1.000  H
  H228     1.0000 0.23900  0.12160  0.23290  Biso   1.000  H
  H229     1.0000 0.73900  0.37840  0.73290  Biso   1.000  H
  H230     1.0000 0.26100  0.37840  0.76710  Biso   1.000  H
  H231     1.0000 0.23900  0.87840  0.73290  Biso   1.000  H
  H232     1.0000 0.76100  0.87840  0.76710  Biso   1.000  H
  C257     1.0000 0.33820  0.66686  0.22274  Biso   1.000  C
  C258     1.0000 0.66180  0.66686  0.27726  Biso   1.000  C
  C259     1.0000 0.83820  0.16686  0.22274  Biso   1.000  C
  C260     1.0000 0.16180  0.16686  0.27726  Biso   1.000  C
  C261     1.0000 0.66180  0.33314  0.77726  Biso   1.000  C
  C262     1.0000 0.33820  0.33314  0.72274  Biso   1.000  C
  C263     1.0000 0.16180  0.83314  0.77726  Biso   1.000  C
  C264     1.0000 0.83820  0.83314  0.72274  Biso   1.000  C
  C265     1.0000 0.40800  0.66660  0.18724  Biso   1.000  C
  C266     1.0000 0.59200  0.66660  0.31276  Biso   1.000  C
  C267     1.0000 0.90800  0.16660  0.18724  Biso   1.000  C
  C268     1.0000 0.09200  0.16660  0.31276  Biso   1.000  C
  C269     1.0000 0.59200  0.33340  0.81276  Biso   1.000  C
  C270     1.0000 0.40800  0.33340  0.68724  Biso   1.000  C
  C271     1.0000 0.09200  0.83340  0.81276  Biso   1.000  C
  C272     1.0000 0.90800  0.83340  0.68724  Biso   1.000  C
  H233     1.0000 0.42970  0.69650  0.17400  Biso   1.000  H
  H234     1.0000 0.57030  0.69650  0.32600  Biso   1.000  H
  H235     1.0000 0.92970  0.19650  0.17400  Biso   1.000  H
  H236     1.0000 0.07030  0.19650  0.32600  Biso   1.000  H
  H237     1.0000 0.57030  0.30350  0.82600  Biso   1.000  H
  H238     1.0000 0.42970  0.30350  0.67400  Biso   1.000  H
  H239     1.0000 0.07030  0.80350  0.82600  Biso   1.000  H
  H240     1.0000 0.92970  0.80350  0.67400  Biso   1.000  H
  C273     1.0000 0.44580  0.62269  0.17123  Biso   1.000  C
  C274     1.0000 0.55420  0.62269  0.32877  Biso   1.000  C
  C275     1.0000 0.94580  0.12269  0.17123  Biso   1.000  C
  C276     1.0000 0.05420  0.12269  0.32877  Biso   1.000  C
  C277     1.0000 0.55420  0.37731  0.82877  Biso   1.000  C
  C278     1.0000 0.44580  0.37731  0.67123  Biso   1.000  C
  C279     1.0000 0.05420  0.87731  0.82877  Biso   1.000  C
  C280     1.0000 0.94580  0.87731  0.67123  Biso   1.000  C
  H241     1.0000 0.49360  0.62300  0.14790  Biso   1.000  H
  H242     1.0000 0.50640  0.62300  0.35210  Biso   1.000  H
  H243     1.0000 0.99360  0.12300  0.14790  Biso   1.000  H
  H244     1.0000 0.00640  0.12300  0.35210  Biso   1.000  H
  H245     1.0000 0.50640  0.37700  0.85210  Biso   1.000  H
  H246     1.0000 0.49360  0.37700  0.64790  Biso   1.000  H
  H247     1.0000 0.00640  0.87700  0.85210  Biso   1.000  H
  H248     1.0000 0.99360  0.87700  0.64790  Biso   1.000  H
  C281     1.0000 0.41290  0.57838  0.18970  Biso   1.000  C
  C282     1.0000 0.58710  0.57838  0.31030  Biso   1.000  C
  C283     1.0000 0.91290  0.07838  0.18970  Biso   1.000  C
  C284     1.0000 0.08710  0.07838  0.31030  Biso   1.000  C
  C285     1.0000 0.58710  0.42162  0.81030  Biso   1.000  C
  C286     1.0000 0.41290  0.42162  0.68970  Biso   1.000  C
  C287     1.0000 0.08710  0.92162  0.81030  Biso   1.000  C
  C288     1.0000 0.91290  0.92162  0.68970  Biso   1.000  C
  H249     1.0000 0.43780  0.54880  0.17800  Biso   1.000  H
  H250     1.0000 0.56220  0.54880  0.32200  Biso   1.000  H
  H251     1.0000 0.93780  0.04880  0.17800  Biso   1.000  H
  H252     1.0000 0.06220  0.04880  0.32200  Biso   1.000  H
  H253     1.0000 0.56220  0.45120  0.82200  Biso   1.000  H
  H254     1.0000 0.43780  0.45120  0.67800  Biso   1.000  H
  H255     1.0000 0.06220  0.95120  0.82200  Biso   1.000  H
  H256     1.0000 0.93780  0.95120  0.67800  Biso   1.000  H
  C289     1.0000 0.29190  0.71414  0.23807  Biso   1.000  C
  C290     1.0000 0.70810  0.71414  0.26193  Biso   1.000  C
  C291     1.0000 0.79190  0.21414  0.23807  Biso   1.000  C
  C292     1.0000 0.20810  0.21414  0.26193  Biso   1.000  C
  C293     1.0000 0.70810  0.28586  0.76193  Biso   1.000  C
  C294     1.0000 0.29190  0.28586  0.73807  Biso   1.000  C
  C295     1.0000 0.20810  0.78586  0.76193  Biso   1.000  C
  C296     1.0000 0.79190  0.78586  0.73807  Biso   1.000  C
  C297     1.0000 0.30270  0.52914  0.24361  Biso   1.000  C
  C298     1.0000 0.69730  0.52914  0.25639  Biso   1.000  C
  C299     1.0000 0.80270  0.02914  0.24361  Biso   1.000  C
  C300     1.0000 0.19730  0.02914  0.25639  Biso   1.000  C
  C301     1.0000 0.69730  0.47086  0.75639  Biso   1.000  C
  C302     1.0000 0.30270  0.47086  0.74361  Biso   1.000  C
  C303     1.0000 0.19730  0.97086  0.75639  Biso   1.000  C
  C304     1.0000 0.80270  0.97086  0.74361  Biso   1.000  C
