data_image0
_cell_length_a       64.528
_cell_length_b       64.528
_cell_length_c       64.528
_cell_angle_alpha    90
_cell_angle_beta     90
_cell_angle_gamma    90

_symmetry_space_group_name_H-M    "P 1"
_symmetry_int_tables_number       1

loop_
  _symmetry_equiv_pos_as_xyz
  'x, y, z'

loop_
  _atom_site_label
  _atom_site_occupancy
  _atom_site_fract_x
  _atom_site_fract_y
  _atom_site_fract_z
  _atom_site_thermal_displace_type
  _atom_site_B_iso_or_equiv
  _atom_site_type_symbol
  Cu1      1.0000 0.00000  0.61500  0.88500  Biso   1.000  Cu
  Cu2      1.0000 0.00000  0.38500  0.88500  Biso   1.000  Cu
  Cu3      1.0000 0.00000  0.61500  0.11500  Biso   1.000  Cu
  Cu4      1.0000 0.00000  0.38500  0.11500  Biso   1.000  Cu
  Cu5      1.0000 0.88500  0.00000  0.61500  Biso   1.000  Cu
  Cu6      1.0000 0.88500  0.00000  0.38500  Biso   1.000  Cu
  Cu7      1.0000 0.11500  0.00000  0.61500  Biso   1.000  Cu
  Cu8      1.0000 0.11500  0.00000  0.38500  Biso   1.000  Cu
  Cu9      1.0000 0.61500  0.88500  0.00000  Biso   1.000  Cu
  Cu10     1.0000 0.38500  0.88500  0.00000  Biso   1.000  Cu
  Cu11     1.0000 0.61500  0.11500  0.00000  Biso   1.000  Cu
  Cu12     1.0000 0.38500  0.11500  0.00000  Biso   1.000  Cu
  Cu13     1.0000 0.61500  0.00000  0.11500  Biso   1.000  Cu
  Cu14     1.0000 0.38500  0.00000  0.11500  Biso   1.000  Cu
  Cu15     1.0000 0.61500  0.00000  0.88500  Biso   1.000  Cu
  Cu16     1.0000 0.38500  0.00000  0.88500  Biso   1.000  Cu
  Cu17     1.0000 0.00000  0.88500  0.38500  Biso   1.000  Cu
  Cu18     1.0000 0.00000  0.88500  0.61500  Biso   1.000  Cu
  Cu19     1.0000 0.00000  0.11500  0.38500  Biso   1.000  Cu
  Cu20     1.0000 0.00000  0.11500  0.61500  Biso   1.000  Cu
  Cu21     1.0000 0.88500  0.61500  0.00000  Biso   1.000  Cu
  Cu22     1.0000 0.88500  0.38500  0.00000  Biso   1.000  Cu
  Cu23     1.0000 0.11500  0.61500  0.00000  Biso   1.000  Cu
  Cu24     1.0000 0.11500  0.38500  0.00000  Biso   1.000  Cu
  Cu25     1.0000 0.88500  0.50000  0.11500  Biso   1.000  Cu
  Cu26     1.0000 0.88500  0.50000  0.88500  Biso   1.000  Cu
  Cu27     1.0000 0.11500  0.50000  0.11500  Biso   1.000  Cu
  Cu28     1.0000 0.11500  0.50000  0.88500  Biso   1.000  Cu
  Cu29     1.0000 0.61500  0.38500  0.50000  Biso   1.000  Cu
  Cu30     1.0000 0.38500  0.38500  0.50000  Biso   1.000  Cu
  Cu31     1.0000 0.61500  0.61500  0.50000  Biso   1.000  Cu
  Cu32     1.0000 0.38500  0.61500  0.50000  Biso   1.000  Cu
  Cu33     1.0000 0.61500  0.50000  0.61500  Biso   1.000  Cu
  Cu34     1.0000 0.38500  0.50000  0.61500  Biso   1.000  Cu
  Cu35     1.0000 0.61500  0.50000  0.38500  Biso   1.000  Cu
  Cu36     1.0000 0.38500  0.50000  0.38500  Biso   1.000  Cu
  Cu37     1.0000 0.88500  0.11500  0.50000  Biso   1.000  Cu
  Cu38     1.0000 0.88500  0.88500  0.50000  Biso   1.000  Cu
  Cu39     1.0000 0.11500  0.11500  0.50000  Biso   1.000  Cu
  Cu40     1.0000 0.11500  0.88500  0.50000  Biso   1.000  Cu
  Cu41     1.0000 0.50000  0.61500  0.38500  Biso   1.000  Cu
  Cu42     1.0000 0.50000  0.38500  0.38500  Biso   1.000  Cu
  Cu43     1.0000 0.50000  0.61500  0.61500  Biso   1.000  Cu
  Cu44     1.0000 0.50000  0.38500  0.61500  Biso   1.000  Cu
  Cu45     1.0000 0.50000  0.88500  0.88500  Biso   1.000  Cu
  Cu46     1.0000 0.50000  0.88500  0.11500  Biso   1.000  Cu
  Cu47     1.0000 0.50000  0.11500  0.88500  Biso   1.000  Cu
  Cu48     1.0000 0.50000  0.11500  0.11500  Biso   1.000  Cu
  Cu49     1.0000 0.00000  0.58000  0.92000  Biso   1.000  Cu
  Cu50     1.0000 0.00000  0.42000  0.92000  Biso   1.000  Cu
  Cu51     1.0000 0.00000  0.58000  0.08000  Biso   1.000  Cu
  Cu52     1.0000 0.00000  0.42000  0.08000  Biso   1.000  Cu
  Cu53     1.0000 0.92000  0.00000  0.58000  Biso   1.000  Cu
  Cu54     1.0000 0.92000  0.00000  0.42000  Biso   1.000  Cu
  Cu55     1.0000 0.08000  0.00000  0.58000  Biso   1.000  Cu
  Cu56     1.0000 0.08000  0.00000  0.42000  Biso   1.000  Cu
  Cu57     1.0000 0.58000  0.92000  0.00000  Biso   1.000  Cu
  Cu58     1.0000 0.42000  0.92000  0.00000  Biso   1.000  Cu
  Cu59     1.0000 0.58000  0.08000  0.00000  Biso   1.000  Cu
  Cu60     1.0000 0.42000  0.08000  0.00000  Biso   1.000  Cu
  Cu61     1.0000 0.58000  0.00000  0.08000  Biso   1.000  Cu
  Cu62     1.0000 0.42000  0.00000  0.08000  Biso   1.000  Cu
  Cu63     1.0000 0.58000  0.00000  0.92000  Biso   1.000  Cu
  Cu64     1.0000 0.42000  0.00000  0.92000  Biso   1.000  Cu
  Cu65     1.0000 0.00000  0.92000  0.42000  Biso   1.000  Cu
  Cu66     1.0000 0.00000  0.92000  0.58000  Biso   1.000  Cu
  Cu67     1.0000 0.00000  0.08000  0.42000  Biso   1.000  Cu
  Cu68     1.0000 0.00000  0.08000  0.58000  Biso   1.000  Cu
  Cu69     1.0000 0.92000  0.58000  0.00000  Biso   1.000  Cu
  Cu70     1.0000 0.92000  0.42000  0.00000  Biso   1.000  Cu
  Cu71     1.0000 0.08000  0.58000  0.00000  Biso   1.000  Cu
  Cu72     1.0000 0.08000  0.42000  0.00000  Biso   1.000  Cu
  Cu73     1.0000 0.92000  0.50000  0.08000  Biso   1.000  Cu
  Cu74     1.0000 0.92000  0.50000  0.92000  Biso   1.000  Cu
  Cu75     1.0000 0.08000  0.50000  0.08000  Biso   1.000  Cu
  Cu76     1.0000 0.08000  0.50000  0.92000  Biso   1.000  Cu
  Cu77     1.0000 0.58000  0.42000  0.50000  Biso   1.000  Cu
  Cu78     1.0000 0.42000  0.42000  0.50000  Biso   1.000  Cu
  Cu79     1.0000 0.58000  0.58000  0.50000  Biso   1.000  Cu
  Cu80     1.0000 0.42000  0.58000  0.50000  Biso   1.000  Cu
  Cu81     1.0000 0.58000  0.50000  0.58000  Biso   1.000  Cu
  Cu82     1.0000 0.42000  0.50000  0.58000  Biso   1.000  Cu
  Cu83     1.0000 0.58000  0.50000  0.42000  Biso   1.000  Cu
  Cu84     1.0000 0.42000  0.50000  0.42000  Biso   1.000  Cu
  Cu85     1.0000 0.92000  0.08000  0.50000  Biso   1.000  Cu
  Cu86     1.0000 0.92000  0.92000  0.50000  Biso   1.000  Cu
  Cu87     1.0000 0.08000  0.08000  0.50000  Biso   1.000  Cu
  Cu88     1.0000 0.08000  0.92000  0.50000  Biso   1.000  Cu
  Cu89     1.0000 0.50000  0.58000  0.42000  Biso   1.000  Cu
  Cu90     1.0000 0.50000  0.42000  0.42000  Biso   1.000  Cu
  Cu91     1.0000 0.50000  0.58000  0.58000  Biso   1.000  Cu
  Cu92     1.0000 0.50000  0.42000  0.58000  Biso   1.000  Cu
  Cu93     1.0000 0.50000  0.92000  0.92000  Biso   1.000  Cu
  Cu94     1.0000 0.50000  0.92000  0.08000  Biso   1.000  Cu
  Cu95     1.0000 0.50000  0.08000  0.92000  Biso   1.000  Cu
  Cu96     1.0000 0.50000  0.08000  0.08000  Biso   1.000  Cu
  O1       1.0000 0.37600  0.59500  0.52200  Biso   1.000  O
  O2       1.0000 0.62400  0.40500  0.52200  Biso   1.000  O
  O3       1.0000 0.62400  0.59500  0.47800  Biso   1.000  O
  O4       1.0000 0.37600  0.40500  0.47800  Biso   1.000  O
  O5       1.0000 0.52200  0.37600  0.59500  Biso   1.000  O
  O6       1.0000 0.52200  0.62400  0.40500  Biso   1.000  O
  O7       1.0000 0.47800  0.62400  0.59500  Biso   1.000  O
  O8       1.0000 0.47800  0.37600  0.40500  Biso   1.000  O
  O9       1.0000 0.59500  0.52200  0.37600  Biso   1.000  O
  O10      1.0000 0.40500  0.52200  0.62400  Biso   1.000  O
  O11      1.0000 0.59500  0.47800  0.62400  Biso   1.000  O
  O12      1.0000 0.40500  0.47800  0.37600  Biso   1.000  O
  O13      1.0000 0.59500  0.37600  0.47800  Biso   1.000  O
  O14      1.0000 0.40500  0.62400  0.47800  Biso   1.000  O
  O15      1.0000 0.59500  0.62400  0.52200  Biso   1.000  O
  O16      1.0000 0.40500  0.37600  0.52200  Biso   1.000  O
  O17      1.0000 0.37600  0.52200  0.40500  Biso   1.000  O
  O18      1.0000 0.62400  0.52200  0.59500  Biso   1.000  O
  O19      1.0000 0.62400  0.47800  0.40500  Biso   1.000  O
  O20      1.0000 0.37600  0.47800  0.59500  Biso   1.000  O
  O21      1.0000 0.52200  0.59500  0.62400  Biso   1.000  O
  O22      1.0000 0.52200  0.40500  0.37600  Biso   1.000  O
  O23      1.0000 0.47800  0.59500  0.37600  Biso   1.000  O
  O24      1.0000 0.47800  0.40500  0.62400  Biso   1.000  O
  O25      1.0000 0.37600  0.09500  0.02200  Biso   1.000  O
  O26      1.0000 0.62400  0.90500  0.02200  Biso   1.000  O
  O27      1.0000 0.62400  0.09500  0.97800  Biso   1.000  O
  O28      1.0000 0.37600  0.90500  0.97800  Biso   1.000  O
  O29      1.0000 0.52200  0.87600  0.09500  Biso   1.000  O
  O30      1.0000 0.52200  0.12400  0.90500  Biso   1.000  O
  O31      1.0000 0.47800  0.12400  0.09500  Biso   1.000  O
  O32      1.0000 0.47800  0.87600  0.90500  Biso   1.000  O
  O33      1.0000 0.59500  0.02200  0.87600  Biso   1.000  O
  O34      1.0000 0.40500  0.02200  0.12400  Biso   1.000  O
  O35      1.0000 0.59500  0.97800  0.12400  Biso   1.000  O
  O36      1.0000 0.40500  0.97800  0.87600  Biso   1.000  O
  O37      1.0000 0.59500  0.87600  0.97800  Biso   1.000  O
  O38      1.0000 0.40500  0.12400  0.97800  Biso   1.000  O
  O39      1.0000 0.59500  0.12400  0.02200  Biso   1.000  O
  O40      1.0000 0.40500  0.87600  0.02200  Biso   1.000  O
  O41      1.0000 0.37600  0.02200  0.90500  Biso   1.000  O
  O42      1.0000 0.62400  0.02200  0.09500  Biso   1.000  O
  O43      1.0000 0.62400  0.97800  0.90500  Biso   1.000  O
  O44      1.0000 0.37600  0.97800  0.09500  Biso   1.000  O
  O45      1.0000 0.52200  0.09500  0.12400  Biso   1.000  O
  O46      1.0000 0.52200  0.90500  0.87600  Biso   1.000  O
  O47      1.0000 0.47800  0.09500  0.87600  Biso   1.000  O
  O48      1.0000 0.47800  0.90500  0.12400  Biso   1.000  O
  O49      1.0000 0.87600  0.59500  0.02200  Biso   1.000  O
  O50      1.0000 0.12400  0.40500  0.02200  Biso   1.000  O
  O51      1.0000 0.12400  0.59500  0.97800  Biso   1.000  O
  O52      1.0000 0.87600  0.40500  0.97800  Biso   1.000  O
  O53      1.0000 0.02200  0.37600  0.09500  Biso   1.000  O
  O54      1.0000 0.02200  0.62400  0.90500  Biso   1.000  O
  O55      1.0000 0.97800  0.62400  0.09500  Biso   1.000  O
  O56      1.0000 0.97800  0.37600  0.90500  Biso   1.000  O
  O57      1.0000 0.09500  0.52200  0.87600  Biso   1.000  O
  O58      1.0000 0.90500  0.52200  0.12400  Biso   1.000  O
  O59      1.0000 0.09500  0.47800  0.12400  Biso   1.000  O
  O60      1.0000 0.90500  0.47800  0.87600  Biso   1.000  O
  O61      1.0000 0.09500  0.37600  0.97800  Biso   1.000  O
  O62      1.0000 0.90500  0.62400  0.97800  Biso   1.000  O
  O63      1.0000 0.09500  0.62400  0.02200  Biso   1.000  O
  O64      1.0000 0.90500  0.37600  0.02200  Biso   1.000  O
  O65      1.0000 0.87600  0.52200  0.90500  Biso   1.000  O
  O66      1.0000 0.12400  0.52200  0.09500  Biso   1.000  O
  O67      1.0000 0.12400  0.47800  0.90500  Biso   1.000  O
  O68      1.0000 0.87600  0.47800  0.09500  Biso   1.000  O
  O69      1.0000 0.02200  0.59500  0.12400  Biso   1.000  O
  O70      1.0000 0.02200  0.40500  0.87600  Biso   1.000  O
  O71      1.0000 0.97800  0.59500  0.87600  Biso   1.000  O
  O72      1.0000 0.97800  0.40500  0.12400  Biso   1.000  O
  O73      1.0000 0.87600  0.09500  0.52200  Biso   1.000  O
  O74      1.0000 0.12400  0.90500  0.52200  Biso   1.000  O
  O75      1.0000 0.12400  0.09500  0.47800  Biso   1.000  O
  O76      1.0000 0.87600  0.90500  0.47800  Biso   1.000  O
  O77      1.0000 0.02200  0.87600  0.59500  Biso   1.000  O
  O78      1.0000 0.02200  0.12400  0.40500  Biso   1.000  O
  O79      1.0000 0.97800  0.12400  0.59500  Biso   1.000  O
  O80      1.0000 0.97800  0.87600  0.40500  Biso   1.000  O
  O81      1.0000 0.09500  0.02200  0.37600  Biso   1.000  O
  O82      1.0000 0.90500  0.02200  0.62400  Biso   1.000  O
  O83      1.0000 0.09500  0.97800  0.62400  Biso   1.000  O
  O84      1.0000 0.90500  0.97800  0.37600  Biso   1.000  O
  O85      1.0000 0.09500  0.87600  0.47800  Biso   1.000  O
  O86      1.0000 0.90500  0.12400  0.47800  Biso   1.000  O
  O87      1.0000 0.09500  0.12400  0.52200  Biso   1.000  O
  O88      1.0000 0.90500  0.87600  0.52200  Biso   1.000  O
  O89      1.0000 0.87600  0.02200  0.40500  Biso   1.000  O
  O90      1.0000 0.12400  0.02200  0.59500  Biso   1.000  O
  O91      1.0000 0.12400  0.97800  0.40500  Biso   1.000  O
  O92      1.0000 0.87600  0.97800  0.59500  Biso   1.000  O
  O93      1.0000 0.02200  0.09500  0.62400  Biso   1.000  O
  O94      1.0000 0.02200  0.90500  0.37600  Biso   1.000  O
  O95      1.0000 0.97800  0.09500  0.37600  Biso   1.000  O
  O96      1.0000 0.97800  0.90500  0.62400  Biso   1.000  O
  O97      1.0000 0.62400  0.40500  0.47800  Biso   1.000  O
  O98      1.0000 0.37600  0.59500  0.47800  Biso   1.000  O
  O99      1.0000 0.37600  0.40500  0.52200  Biso   1.000  O
  O100     1.0000 0.62400  0.59500  0.52200  Biso   1.000  O
  O101     1.0000 0.47800  0.62400  0.40500  Biso   1.000  O
  O102     1.0000 0.47800  0.37600  0.59500  Biso   1.000  O
  O103     1.0000 0.52200  0.37600  0.40500  Biso   1.000  O
  O104     1.0000 0.52200  0.62400  0.59500  Biso   1.000  O
  O105     1.0000 0.40500  0.47800  0.62400  Biso   1.000  O
  O106     1.0000 0.59500  0.47800  0.37600  Biso   1.000  O
  O107     1.0000 0.40500  0.52200  0.37600  Biso   1.000  O
  O108     1.0000 0.59500  0.52200  0.62400  Biso   1.000  O
  O109     1.0000 0.40500  0.62400  0.52200  Biso   1.000  O
  O110     1.0000 0.59500  0.37600  0.52200  Biso   1.000  O
  O111     1.0000 0.40500  0.37600  0.47800  Biso   1.000  O
  O112     1.0000 0.59500  0.62400  0.47800  Biso   1.000  O
  O113     1.0000 0.62400  0.47800  0.59500  Biso   1.000  O
  O114     1.0000 0.37600  0.47800  0.40500  Biso   1.000  O
  O115     1.0000 0.37600  0.52200  0.59500  Biso   1.000  O
  O116     1.0000 0.62400  0.52200  0.40500  Biso   1.000  O
  O117     1.0000 0.47800  0.40500  0.37600  Biso   1.000  O
  O118     1.0000 0.47800  0.59500  0.62400  Biso   1.000  O
  O119     1.0000 0.52200  0.40500  0.62400  Biso   1.000  O
  O120     1.0000 0.52200  0.59500  0.37600  Biso   1.000  O
  O121     1.0000 0.62400  0.90500  0.97800  Biso   1.000  O
  O122     1.0000 0.37600  0.09500  0.97800  Biso   1.000  O
  O123     1.0000 0.37600  0.90500  0.02200  Biso   1.000  O
  O124     1.0000 0.62400  0.09500  0.02200  Biso   1.000  O
  O125     1.0000 0.47800  0.12400  0.90500  Biso   1.000  O
  O126     1.0000 0.47800  0.87600  0.09500  Biso   1.000  O
  O127     1.0000 0.52200  0.87600  0.90500  Biso   1.000  O
  O128     1.0000 0.52200  0.12400  0.09500  Biso   1.000  O
  O129     1.0000 0.40500  0.97800  0.12400  Biso   1.000  O
  O130     1.0000 0.59500  0.97800  0.87600  Biso   1.000  O
  O131     1.0000 0.40500  0.02200  0.87600  Biso   1.000  O
  O132     1.0000 0.59500  0.02200  0.12400  Biso   1.000  O
  O133     1.0000 0.40500  0.12400  0.02200  Biso   1.000  O
  O134     1.0000 0.59500  0.87600  0.02200  Biso   1.000  O
  O135     1.0000 0.40500  0.87600  0.97800  Biso   1.000  O
  O136     1.0000 0.59500  0.12400  0.97800  Biso   1.000  O
  O137     1.0000 0.62400  0.97800  0.09500  Biso   1.000  O
  O138     1.0000 0.37600  0.97800  0.90500  Biso   1.000  O
  O139     1.0000 0.37600  0.02200  0.09500  Biso   1.000  O
  O140     1.0000 0.62400  0.02200  0.90500  Biso   1.000  O
  O141     1.0000 0.47800  0.90500  0.87600  Biso   1.000  O
  O142     1.0000 0.47800  0.09500  0.12400  Biso   1.000  O
  O143     1.0000 0.52200  0.90500  0.12400  Biso   1.000  O
  O144     1.0000 0.52200  0.09500  0.87600  Biso   1.000  O
  O145     1.0000 0.12400  0.40500  0.97800  Biso   1.000  O
  O146     1.0000 0.87600  0.59500  0.97800  Biso   1.000  O
  O147     1.0000 0.87600  0.40500  0.02200  Biso   1.000  O
  O148     1.0000 0.12400  0.59500  0.02200  Biso   1.000  O
  O149     1.0000 0.97800  0.62400  0.90500  Biso   1.000  O
  O150     1.0000 0.97800  0.37600  0.09500  Biso   1.000  O
  O151     1.0000 0.02200  0.37600  0.90500  Biso   1.000  O
  O152     1.0000 0.02200  0.62400  0.09500  Biso   1.000  O
  O153     1.0000 0.90500  0.47800  0.12400  Biso   1.000  O
  O154     1.0000 0.09500  0.47800  0.87600  Biso   1.000  O
  O155     1.0000 0.90500  0.52200  0.87600  Biso   1.000  O
  O156     1.0000 0.09500  0.52200  0.12400  Biso   1.000  O
  O157     1.0000 0.90500  0.62400  0.02200  Biso   1.000  O
  O158     1.0000 0.09500  0.37600  0.02200  Biso   1.000  O
  O159     1.0000 0.90500  0.37600  0.97800  Biso   1.000  O
  O160     1.0000 0.09500  0.62400  0.97800  Biso   1.000  O
  O161     1.0000 0.12400  0.47800  0.09500  Biso   1.000  O
  O162     1.0000 0.87600  0.47800  0.90500  Biso   1.000  O
  O163     1.0000 0.87600  0.52200  0.09500  Biso   1.000  O
  O164     1.0000 0.12400  0.52200  0.90500  Biso   1.000  O
  O165     1.0000 0.97800  0.40500  0.87600  Biso   1.000  O
  O166     1.0000 0.97800  0.59500  0.12400  Biso   1.000  O
  O167     1.0000 0.02200  0.40500  0.12400  Biso   1.000  O
  O168     1.0000 0.02200  0.59500  0.87600  Biso   1.000  O
  O169     1.0000 0.12400  0.90500  0.47800  Biso   1.000  O
  O170     1.0000 0.87600  0.09500  0.47800  Biso   1.000  O
  O171     1.0000 0.87600  0.90500  0.52200  Biso   1.000  O
  O172     1.0000 0.12400  0.09500  0.52200  Biso   1.000  O
  O173     1.0000 0.97800  0.12400  0.40500  Biso   1.000  O
  O174     1.0000 0.97800  0.87600  0.59500  Biso   1.000  O
  O175     1.0000 0.02200  0.87600  0.40500  Biso   1.000  O
  O176     1.0000 0.02200  0.12400  0.59500  Biso   1.000  O
  O177     1.0000 0.90500  0.97800  0.62400  Biso   1.000  O
  O178     1.0000 0.09500  0.97800  0.37600  Biso   1.000  O
  O179     1.0000 0.90500  0.02200  0.37600  Biso   1.000  O
  O180     1.0000 0.09500  0.02200  0.62400  Biso   1.000  O
  O181     1.0000 0.90500  0.12400  0.52200  Biso   1.000  O
  O182     1.0000 0.09500  0.87600  0.52200  Biso   1.000  O
  O183     1.0000 0.90500  0.87600  0.47800  Biso   1.000  O
  O184     1.0000 0.09500  0.12400  0.47800  Biso   1.000  O
  O185     1.0000 0.12400  0.97800  0.59500  Biso   1.000  O
  O186     1.0000 0.87600  0.97800  0.40500  Biso   1.000  O
  O187     1.0000 0.87600  0.02200  0.59500  Biso   1.000  O
  O188     1.0000 0.12400  0.02200  0.40500  Biso   1.000  O
  O189     1.0000 0.97800  0.90500  0.37600  Biso   1.000  O
  O190     1.0000 0.97800  0.09500  0.62400  Biso   1.000  O
  O191     1.0000 0.02200  0.90500  0.62400  Biso   1.000  O
  O192     1.0000 0.02200  0.09500  0.37600  Biso   1.000  O
  O193     1.0000 0.40000  0.57100  0.52200  Biso   1.000  O
  O194     1.0000 0.60000  0.42900  0.52200  Biso   1.000  O
  O195     1.0000 0.60000  0.57100  0.47800  Biso   1.000  O
  O196     1.0000 0.40000  0.42900  0.47800  Biso   1.000  O
  O197     1.0000 0.52200  0.40000  0.57100  Biso   1.000  O
  O198     1.0000 0.52200  0.60000  0.42900  Biso   1.000  O
  O199     1.0000 0.47800  0.60000  0.57100  Biso   1.000  O
  O200     1.0000 0.47800  0.40000  0.42900  Biso   1.000  O
  O201     1.0000 0.57100  0.52200  0.40000  Biso   1.000  O
  O202     1.0000 0.42900  0.52200  0.60000  Biso   1.000  O
  O203     1.0000 0.57100  0.47800  0.60000  Biso   1.000  O
  O204     1.0000 0.42900  0.47800  0.40000  Biso   1.000  O
  O205     1.0000 0.57100  0.40000  0.47800  Biso   1.000  O
  O206     1.0000 0.42900  0.60000  0.47800  Biso   1.000  O
  O207     1.0000 0.57100  0.60000  0.52200  Biso   1.000  O
  O208     1.0000 0.42900  0.40000  0.52200  Biso   1.000  O
  O209     1.0000 0.40000  0.52200  0.42900  Biso   1.000  O
  O210     1.0000 0.60000  0.52200  0.57100  Biso   1.000  O
  O211     1.0000 0.60000  0.47800  0.42900  Biso   1.000  O
  O212     1.0000 0.40000  0.47800  0.57100  Biso   1.000  O
  O213     1.0000 0.52200  0.57100  0.60000  Biso   1.000  O
  O214     1.0000 0.52200  0.42900  0.40000  Biso   1.000  O
  O215     1.0000 0.47800  0.57100  0.40000  Biso   1.000  O
  O216     1.0000 0.47800  0.42900  0.60000  Biso   1.000  O
  O217     1.0000 0.40000  0.07100  0.02200  Biso   1.000  O
  O218     1.0000 0.60000  0.92900  0.02200  Biso   1.000  O
  O219     1.0000 0.60000  0.07100  0.97800  Biso   1.000  O
  O220     1.0000 0.40000  0.92900  0.97800  Biso   1.000  O
  O221     1.0000 0.52200  0.90000  0.07100  Biso   1.000  O
  O222     1.0000 0.52200  0.10000  0.92900  Biso   1.000  O
  O223     1.0000 0.47800  0.10000  0.07100  Biso   1.000  O
  O224     1.0000 0.47800  0.90000  0.92900  Biso   1.000  O
  O225     1.0000 0.57100  0.02200  0.90000  Biso   1.000  O
  O226     1.0000 0.42900  0.02200  0.10000  Biso   1.000  O
  O227     1.0000 0.57100  0.97800  0.10000  Biso   1.000  O
  O228     1.0000 0.42900  0.97800  0.90000  Biso   1.000  O
  O229     1.0000 0.57100  0.90000  0.97800  Biso   1.000  O
  O230     1.0000 0.42900  0.10000  0.97800  Biso   1.000  O
  O231     1.0000 0.57100  0.10000  0.02200  Biso   1.000  O
  O232     1.0000 0.42900  0.90000  0.02200  Biso   1.000  O
  O233     1.0000 0.40000  0.02200  0.92900  Biso   1.000  O
  O234     1.0000 0.60000  0.02200  0.07100  Biso   1.000  O
  O235     1.0000 0.60000  0.97800  0.92900  Biso   1.000  O
  O236     1.0000 0.40000  0.97800  0.07100  Biso   1.000  O
  O237     1.0000 0.52200  0.07100  0.10000  Biso   1.000  O
  O238     1.0000 0.52200  0.92900  0.90000  Biso   1.000  O
  O239     1.0000 0.47800  0.07100  0.90000  Biso   1.000  O
  O240     1.0000 0.47800  0.92900  0.10000  Biso   1.000  O
  O241     1.0000 0.90000  0.57100  0.02200  Biso   1.000  O
  O242     1.0000 0.10000  0.42900  0.02200  Biso   1.000  O
  O243     1.0000 0.10000  0.57100  0.97800  Biso   1.000  O
  O244     1.0000 0.90000  0.42900  0.97800  Biso   1.000  O
  O245     1.0000 0.02200  0.40000  0.07100  Biso   1.000  O
  O246     1.0000 0.02200  0.60000  0.92900  Biso   1.000  O
  O247     1.0000 0.97800  0.60000  0.07100  Biso   1.000  O
  O248     1.0000 0.97800  0.40000  0.92900  Biso   1.000  O
  O249     1.0000 0.07100  0.52200  0.90000  Biso   1.000  O
  O250     1.0000 0.92900  0.52200  0.10000  Biso   1.000  O
  O251     1.0000 0.07100  0.47800  0.10000  Biso   1.000  O
  O252     1.0000 0.92900  0.47800  0.90000  Biso   1.000  O
  O253     1.0000 0.07100  0.40000  0.97800  Biso   1.000  O
  O254     1.0000 0.92900  0.60000  0.97800  Biso   1.000  O
  O255     1.0000 0.07100  0.60000  0.02200  Biso   1.000  O
  O256     1.0000 0.92900  0.40000  0.02200  Biso   1.000  O
  O257     1.0000 0.90000  0.52200  0.92900  Biso   1.000  O
  O258     1.0000 0.10000  0.52200  0.07100  Biso   1.000  O
  O259     1.0000 0.10000  0.47800  0.92900  Biso   1.000  O
  O260     1.0000 0.90000  0.47800  0.07100  Biso   1.000  O
  O261     1.0000 0.02200  0.57100  0.10000  Biso   1.000  O
  O262     1.0000 0.02200  0.42900  0.90000  Biso   1.000  O
  O263     1.0000 0.97800  0.57100  0.90000  Biso   1.000  O
  O264     1.0000 0.97800  0.42900  0.10000  Biso   1.000  O
  O265     1.0000 0.90000  0.07100  0.52200  Biso   1.000  O
  O266     1.0000 0.10000  0.92900  0.52200  Biso   1.000  O
  O267     1.0000 0.10000  0.07100  0.47800  Biso   1.000  O
  O268     1.0000 0.90000  0.92900  0.47800  Biso   1.000  O
  O269     1.0000 0.02200  0.90000  0.57100  Biso   1.000  O
  O270     1.0000 0.02200  0.10000  0.42900  Biso   1.000  O
  O271     1.0000 0.97800  0.10000  0.57100  Biso   1.000  O
  O272     1.0000 0.97800  0.90000  0.42900  Biso   1.000  O
  O273     1.0000 0.07100  0.02200  0.40000  Biso   1.000  O
  O274     1.0000 0.92900  0.02200  0.60000  Biso   1.000  O
  O275     1.0000 0.07100  0.97800  0.60000  Biso   1.000  O
  O276     1.0000 0.92900  0.97800  0.40000  Biso   1.000  O
  O277     1.0000 0.07100  0.90000  0.47800  Biso   1.000  O
  O278     1.0000 0.92900  0.10000  0.47800  Biso   1.000  O
  O279     1.0000 0.07100  0.10000  0.52200  Biso   1.000  O
  O280     1.0000 0.92900  0.90000  0.52200  Biso   1.000  O
  O281     1.0000 0.90000  0.02200  0.42900  Biso   1.000  O
  O282     1.0000 0.10000  0.02200  0.57100  Biso   1.000  O
  O283     1.0000 0.10000  0.97800  0.42900  Biso   1.000  O
  O284     1.0000 0.90000  0.97800  0.57100  Biso   1.000  O
  O285     1.0000 0.02200  0.07100  0.60000  Biso   1.000  O
  O286     1.0000 0.02200  0.92900  0.40000  Biso   1.000  O
  O287     1.0000 0.97800  0.07100  0.40000  Biso   1.000  O
  O288     1.0000 0.97800  0.92900  0.60000  Biso   1.000  O
  O289     1.0000 0.60000  0.42900  0.47800  Biso   1.000  O
  O290     1.0000 0.40000  0.57100  0.47800  Biso   1.000  O
  O291     1.0000 0.40000  0.42900  0.52200  Biso   1.000  O
  O292     1.0000 0.60000  0.57100  0.52200  Biso   1.000  O
  O293     1.0000 0.47800  0.60000  0.42900  Biso   1.000  O
  O294     1.0000 0.47800  0.40000  0.57100  Biso   1.000  O
  O295     1.0000 0.52200  0.40000  0.42900  Biso   1.000  O
  O296     1.0000 0.52200  0.60000  0.57100  Biso   1.000  O
  O297     1.0000 0.42900  0.47800  0.60000  Biso   1.000  O
  O298     1.0000 0.57100  0.47800  0.40000  Biso   1.000  O
  O299     1.0000 0.42900  0.52200  0.40000  Biso   1.000  O
  O300     1.0000 0.57100  0.52200  0.60000  Biso   1.000  O
  O301     1.0000 0.42900  0.60000  0.52200  Biso   1.000  O
  O302     1.0000 0.57100  0.40000  0.52200  Biso   1.000  O
  O303     1.0000 0.42900  0.40000  0.47800  Biso   1.000  O
  O304     1.0000 0.57100  0.60000  0.47800  Biso   1.000  O
  O305     1.0000 0.60000  0.47800  0.57100  Biso   1.000  O
  O306     1.0000 0.40000  0.47800  0.42900  Biso   1.000  O
  O307     1.0000 0.40000  0.52200  0.57100  Biso   1.000  O
  O308     1.0000 0.60000  0.52200  0.42900  Biso   1.000  O
  O309     1.0000 0.47800  0.42900  0.40000  Biso   1.000  O
  O310     1.0000 0.47800  0.57100  0.60000  Biso   1.000  O
  O311     1.0000 0.52200  0.42900  0.60000  Biso   1.000  O
  O312     1.0000 0.52200  0.57100  0.40000  Biso   1.000  O
  O313     1.0000 0.60000  0.92900  0.97800  Biso   1.000  O
  O314     1.0000 0.40000  0.07100  0.97800  Biso   1.000  O
  O315     1.0000 0.40000  0.92900  0.02200  Biso   1.000  O
  O316     1.0000 0.60000  0.07100  0.02200  Biso   1.000  O
  O317     1.0000 0.47800  0.10000  0.92900  Biso   1.000  O
  O318     1.0000 0.47800  0.90000  0.07100  Biso   1.000  O
  O319     1.0000 0.52200  0.90000  0.92900  Biso   1.000  O
  O320     1.0000 0.52200  0.10000  0.07100  Biso   1.000  O
  O321     1.0000 0.42900  0.97800  0.10000  Biso   1.000  O
  O322     1.0000 0.57100  0.97800  0.90000  Biso   1.000  O
  O323     1.0000 0.42900  0.02200  0.90000  Biso   1.000  O
  O324     1.0000 0.57100  0.02200  0.10000  Biso   1.000  O
  O325     1.0000 0.42900  0.10000  0.02200  Biso   1.000  O
  O326     1.0000 0.57100  0.90000  0.02200  Biso   1.000  O
  O327     1.0000 0.42900  0.90000  0.97800  Biso   1.000  O
  O328     1.0000 0.57100  0.10000  0.97800  Biso   1.000  O
  O329     1.0000 0.60000  0.97800  0.07100  Biso   1.000  O
  O330     1.0000 0.40000  0.97800  0.92900  Biso   1.000  O
  O331     1.0000 0.40000  0.02200  0.07100  Biso   1.000  O
  O332     1.0000 0.60000  0.02200  0.92900  Biso   1.000  O
  O333     1.0000 0.47800  0.92900  0.90000  Biso   1.000  O
  O334     1.0000 0.47800  0.07100  0.10000  Biso   1.000  O
  O335     1.0000 0.52200  0.92900  0.10000  Biso   1.000  O
  O336     1.0000 0.52200  0.07100  0.90000  Biso   1.000  O
  O337     1.0000 0.10000  0.42900  0.97800  Biso   1.000  O
  O338     1.0000 0.90000  0.57100  0.97800  Biso   1.000  O
  O339     1.0000 0.90000  0.42900  0.02200  Biso   1.000  O
  O340     1.0000 0.10000  0.57100  0.02200  Biso   1.000  O
  O341     1.0000 0.97800  0.60000  0.92900  Biso   1.000  O
  O342     1.0000 0.97800  0.40000  0.07100  Biso   1.000  O
  O343     1.0000 0.02200  0.40000  0.92900  Biso   1.000  O
  O344     1.0000 0.02200  0.60000  0.07100  Biso   1.000  O
  O345     1.0000 0.92900  0.47800  0.10000  Biso   1.000  O
  O346     1.0000 0.07100  0.47800  0.90000  Biso   1.000  O
  O347     1.0000 0.92900  0.52200  0.90000  Biso   1.000  O
  O348     1.0000 0.07100  0.52200  0.10000  Biso   1.000  O
  O349     1.0000 0.92900  0.60000  0.02200  Biso   1.000  O
  O350     1.0000 0.07100  0.40000  0.02200  Biso   1.000  O
  O351     1.0000 0.92900  0.40000  0.97800  Biso   1.000  O
  O352     1.0000 0.07100  0.60000  0.97800  Biso   1.000  O
  O353     1.0000 0.10000  0.47800  0.07100  Biso   1.000  O
  O354     1.0000 0.90000  0.47800  0.92900  Biso   1.000  O
  O355     1.0000 0.90000  0.52200  0.07100  Biso   1.000  O
  O356     1.0000 0.10000  0.52200  0.92900  Biso   1.000  O
  O357     1.0000 0.97800  0.42900  0.90000  Biso   1.000  O
  O358     1.0000 0.97800  0.57100  0.10000  Biso   1.000  O
  O359     1.0000 0.02200  0.42900  0.10000  Biso   1.000  O
  O360     1.0000 0.02200  0.57100  0.90000  Biso   1.000  O
  O361     1.0000 0.10000  0.92900  0.47800  Biso   1.000  O
  O362     1.0000 0.90000  0.07100  0.47800  Biso   1.000  O
  O363     1.0000 0.90000  0.92900  0.52200  Biso   1.000  O
  O364     1.0000 0.10000  0.07100  0.52200  Biso   1.000  O
  O365     1.0000 0.97800  0.10000  0.42900  Biso   1.000  O
  O366     1.0000 0.97800  0.90000  0.57100  Biso   1.000  O
  O367     1.0000 0.02200  0.90000  0.42900  Biso   1.000  O
  O368     1.0000 0.02200  0.10000  0.57100  Biso   1.000  O
  O369     1.0000 0.92900  0.97800  0.60000  Biso   1.000  O
  O370     1.0000 0.07100  0.97800  0.40000  Biso   1.000  O
  O371     1.0000 0.92900  0.02200  0.40000  Biso   1.000  O
  O372     1.0000 0.07100  0.02200  0.60000  Biso   1.000  O
  O373     1.0000 0.92900  0.10000  0.52200  Biso   1.000  O
  O374     1.0000 0.07100  0.90000  0.52200  Biso   1.000  O
  O375     1.0000 0.92900  0.90000  0.47800  Biso   1.000  O
  O376     1.0000 0.07100  0.10000  0.47800  Biso   1.000  O
  O377     1.0000 0.10000  0.97800  0.57100  Biso   1.000  O
  O378     1.0000 0.90000  0.97800  0.42900  Biso   1.000  O
  O379     1.0000 0.90000  0.02200  0.57100  Biso   1.000  O
  O380     1.0000 0.10000  0.02200  0.42900  Biso   1.000  O
  O381     1.0000 0.97800  0.92900  0.40000  Biso   1.000  O
  O382     1.0000 0.97800  0.07100  0.60000  Biso   1.000  O
  O383     1.0000 0.02200  0.92900  0.60000  Biso   1.000  O
  O384     1.0000 0.02200  0.07100  0.40000  Biso   1.000  O
  C1       1.0000 0.38500  0.58000  0.52750  Biso   1.000  C
  C2       1.0000 0.61500  0.42000  0.52750  Biso   1.000  C
  C3       1.0000 0.61500  0.58000  0.47250  Biso   1.000  C
  C4       1.0000 0.38500  0.42000  0.47250  Biso   1.000  C
  C5       1.0000 0.52750  0.38500  0.58000  Biso   1.000  C
  C6       1.0000 0.52750  0.61500  0.42000  Biso   1.000  C
  C7       1.0000 0.47250  0.61500  0.58000  Biso   1.000  C
  C8       1.0000 0.47250  0.38500  0.42000  Biso   1.000  C
  C9       1.0000 0.58000  0.52750  0.38500  Biso   1.000  C
  C10      1.0000 0.42000  0.52750  0.61500  Biso   1.000  C
  C11      1.0000 0.58000  0.47250  0.61500  Biso   1.000  C
  C12      1.0000 0.42000  0.47250  0.38500  Biso   1.000  C
  C13      1.0000 0.58000  0.38500  0.47250  Biso   1.000  C
  C14      1.0000 0.42000  0.61500  0.47250  Biso   1.000  C
  C15      1.0000 0.58000  0.61500  0.52750  Biso   1.000  C
  C16      1.0000 0.42000  0.38500  0.52750  Biso   1.000  C
  C17      1.0000 0.38500  0.52750  0.42000  Biso   1.000  C
  C18      1.0000 0.61500  0.52750  0.58000  Biso   1.000  C
  C19      1.0000 0.61500  0.47250  0.42000  Biso   1.000  C
  C20      1.0000 0.38500  0.47250  0.58000  Biso   1.000  C
  C21      1.0000 0.52750  0.58000  0.61500  Biso   1.000  C
  C22      1.0000 0.52750  0.42000  0.38500  Biso   1.000  C
  C23      1.0000 0.47250  0.58000  0.38500  Biso   1.000  C
  C24      1.0000 0.47250  0.42000  0.61500  Biso   1.000  C
  C25      1.0000 0.38500  0.08000  0.02750  Biso   1.000  C
  C26      1.0000 0.61500  0.92000  0.02750  Biso   1.000  C
  C27      1.0000 0.61500  0.08000  0.97250  Biso   1.000  C
  C28      1.0000 0.38500  0.92000  0.97250  Biso   1.000  C
  C29      1.0000 0.52750  0.88500  0.08000  Biso   1.000  C
  C30      1.0000 0.52750  0.11500  0.92000  Biso   1.000  C
  C31      1.0000 0.47250  0.11500  0.08000  Biso   1.000  C
  C32      1.0000 0.47250  0.88500  0.92000  Biso   1.000  C
  C33      1.0000 0.58000  0.02750  0.88500  Biso   1.000  C
  C34      1.0000 0.42000  0.02750  0.11500  Biso   1.000  C
  C35      1.0000 0.58000  0.97250  0.11500  Biso   1.000  C
  C36      1.0000 0.42000  0.97250  0.88500  Biso   1.000  C
  C37      1.0000 0.58000  0.88500  0.97250  Biso   1.000  C
  C38      1.0000 0.42000  0.11500  0.97250  Biso   1.000  C
  C39      1.0000 0.58000  0.11500  0.02750  Biso   1.000  C
  C40      1.0000 0.42000  0.88500  0.02750  Biso   1.000  C
  C41      1.0000 0.38500  0.02750  0.92000  Biso   1.000  C
  C42      1.0000 0.61500  0.02750  0.08000  Biso   1.000  C
  C43      1.0000 0.61500  0.97250  0.92000  Biso   1.000  C
  C44      1.0000 0.38500  0.97250  0.08000  Biso   1.000  C
  C45      1.0000 0.52750  0.08000  0.11500  Biso   1.000  C
  C46      1.0000 0.52750  0.92000  0.88500  Biso   1.000  C
  C47      1.0000 0.47250  0.08000  0.88500  Biso   1.000  C
  C48      1.0000 0.47250  0.92000  0.11500  Biso   1.000  C
  C49      1.0000 0.88500  0.58000  0.02750  Biso   1.000  C
  C50      1.0000 0.11500  0.42000  0.02750  Biso   1.000  C
  C51      1.0000 0.11500  0.58000  0.97250  Biso   1.000  C
  C52      1.0000 0.88500  0.42000  0.97250  Biso   1.000  C
  C53      1.0000 0.02750  0.38500  0.08000  Biso   1.000  C
  C54      1.0000 0.02750  0.61500  0.92000  Biso   1.000  C
  C55      1.0000 0.97250  0.61500  0.08000  Biso   1.000  C
  C56      1.0000 0.97250  0.38500  0.92000  Biso   1.000  C
  C57      1.0000 0.08000  0.52750  0.88500  Biso   1.000  C
  C58      1.0000 0.92000  0.52750  0.11500  Biso   1.000  C
  C59      1.0000 0.08000  0.47250  0.11500  Biso   1.000  C
  C60      1.0000 0.92000  0.47250  0.88500  Biso   1.000  C
  C61      1.0000 0.08000  0.38500  0.97250  Biso   1.000  C
  C62      1.0000 0.92000  0.61500  0.97250  Biso   1.000  C
  C63      1.0000 0.08000  0.61500  0.02750  Biso   1.000  C
  C64      1.0000 0.92000  0.38500  0.02750  Biso   1.000  C
  C65      1.0000 0.88500  0.52750  0.92000  Biso   1.000  C
  C66      1.0000 0.11500  0.52750  0.08000  Biso   1.000  C
  C67      1.0000 0.11500  0.47250  0.92000  Biso   1.000  C
  C68      1.0000 0.88500  0.47250  0.08000  Biso   1.000  C
  C69      1.0000 0.02750  0.58000  0.11500  Biso   1.000  C
  C70      1.0000 0.02750  0.42000  0.88500  Biso   1.000  C
  C71      1.0000 0.97250  0.58000  0.88500  Biso   1.000  C
  C72      1.0000 0.97250  0.42000  0.11500  Biso   1.000  C
  C73      1.0000 0.88500  0.08000  0.52750  Biso   1.000  C
  C74      1.0000 0.11500  0.92000  0.52750  Biso   1.000  C
  C75      1.0000 0.11500  0.08000  0.47250  Biso   1.000  C
  C76      1.0000 0.88500  0.92000  0.47250  Biso   1.000  C
  C77      1.0000 0.02750  0.88500  0.58000  Biso   1.000  C
  C78      1.0000 0.02750  0.11500  0.42000  Biso   1.000  C
  C79      1.0000 0.97250  0.11500  0.58000  Biso   1.000  C
  C80      1.0000 0.97250  0.88500  0.42000  Biso   1.000  C
  C81      1.0000 0.08000  0.02750  0.38500  Biso   1.000  C
  C82      1.0000 0.92000  0.02750  0.61500  Biso   1.000  C
  C83      1.0000 0.08000  0.97250  0.61500  Biso   1.000  C
  C84      1.0000 0.92000  0.97250  0.38500  Biso   1.000  C
  C85      1.0000 0.08000  0.88500  0.47250  Biso   1.000  C
  C86      1.0000 0.92000  0.11500  0.47250  Biso   1.000  C
  C87      1.0000 0.08000  0.11500  0.52750  Biso   1.000  C
  C88      1.0000 0.92000  0.88500  0.52750  Biso   1.000  C
  C89      1.0000 0.88500  0.02750  0.42000  Biso   1.000  C
  C90      1.0000 0.11500  0.02750  0.58000  Biso   1.000  C
  C91      1.0000 0.11500  0.97250  0.42000  Biso   1.000  C
  C92      1.0000 0.88500  0.97250  0.58000  Biso   1.000  C
  C93      1.0000 0.02750  0.08000  0.61500  Biso   1.000  C
  C94      1.0000 0.02750  0.92000  0.38500  Biso   1.000  C
  C95      1.0000 0.97250  0.08000  0.38500  Biso   1.000  C
  C96      1.0000 0.97250  0.92000  0.61500  Biso   1.000  C
  C97      1.0000 0.61500  0.42000  0.47250  Biso   1.000  C
  C98      1.0000 0.38500  0.58000  0.47250  Biso   1.000  C
  C99      1.0000 0.38500  0.42000  0.52750  Biso   1.000  C
  C100     1.0000 0.61500  0.58000  0.52750  Biso   1.000  C
  C101     1.0000 0.47250  0.61500  0.42000  Biso   1.000  C
  C102     1.0000 0.47250  0.38500  0.58000  Biso   1.000  C
  C103     1.0000 0.52750  0.38500  0.42000  Biso   1.000  C
  C104     1.0000 0.52750  0.61500  0.58000  Biso   1.000  C
  C105     1.0000 0.42000  0.47250  0.61500  Biso   1.000  C
  C106     1.0000 0.58000  0.47250  0.38500  Biso   1.000  C
  C107     1.0000 0.42000  0.52750  0.38500  Biso   1.000  C
  C108     1.0000 0.58000  0.52750  0.61500  Biso   1.000  C
  C109     1.0000 0.42000  0.61500  0.52750  Biso   1.000  C
  C110     1.0000 0.58000  0.38500  0.52750  Biso   1.000  C
  C111     1.0000 0.42000  0.38500  0.47250  Biso   1.000  C
  C112     1.0000 0.58000  0.61500  0.47250  Biso   1.000  C
  C113     1.0000 0.61500  0.47250  0.58000  Biso   1.000  C
  C114     1.0000 0.38500  0.47250  0.42000  Biso   1.000  C
  C115     1.0000 0.38500  0.52750  0.58000  Biso   1.000  C
  C116     1.0000 0.61500  0.52750  0.42000  Biso   1.000  C
  C117     1.0000 0.47250  0.42000  0.38500  Biso   1.000  C
  C118     1.0000 0.47250  0.58000  0.61500  Biso   1.000  C
  C119     1.0000 0.52750  0.42000  0.61500  Biso   1.000  C
  C120     1.0000 0.52750  0.58000  0.38500  Biso   1.000  C
  C121     1.0000 0.61500  0.92000  0.97250  Biso   1.000  C
  C122     1.0000 0.38500  0.08000  0.97250  Biso   1.000  C
  C123     1.0000 0.38500  0.92000  0.02750  Biso   1.000  C
  C124     1.0000 0.61500  0.08000  0.02750  Biso   1.000  C
  C125     1.0000 0.47250  0.11500  0.92000  Biso   1.000  C
  C126     1.0000 0.47250  0.88500  0.08000  Biso   1.000  C
  C127     1.0000 0.52750  0.88500  0.92000  Biso   1.000  C
  C128     1.0000 0.52750  0.11500  0.08000  Biso   1.000  C
  C129     1.0000 0.42000  0.97250  0.11500  Biso   1.000  C
  C130     1.0000 0.58000  0.97250  0.88500  Biso   1.000  C
  C131     1.0000 0.42000  0.02750  0.88500  Biso   1.000  C
  C132     1.0000 0.58000  0.02750  0.11500  Biso   1.000  C
  C133     1.0000 0.42000  0.11500  0.02750  Biso   1.000  C
  C134     1.0000 0.58000  0.88500  0.02750  Biso   1.000  C
  C135     1.0000 0.42000  0.88500  0.97250  Biso   1.000  C
  C136     1.0000 0.58000  0.11500  0.97250  Biso   1.000  C
  C137     1.0000 0.61500  0.97250  0.08000  Biso   1.000  C
  C138     1.0000 0.38500  0.97250  0.92000  Biso   1.000  C
  C139     1.0000 0.38500  0.02750  0.08000  Biso   1.000  C
  C140     1.0000 0.61500  0.02750  0.92000  Biso   1.000  C
  C141     1.0000 0.47250  0.92000  0.88500  Biso   1.000  C
  C142     1.0000 0.47250  0.08000  0.11500  Biso   1.000  C
  C143     1.0000 0.52750  0.92000  0.11500  Biso   1.000  C
  C144     1.0000 0.52750  0.08000  0.88500  Biso   1.000  C
  C145     1.0000 0.11500  0.42000  0.97250  Biso   1.000  C
  C146     1.0000 0.88500  0.58000  0.97250  Biso   1.000  C
  C147     1.0000 0.88500  0.42000  0.02750  Biso   1.000  C
  C148     1.0000 0.11500  0.58000  0.02750  Biso   1.000  C
  C149     1.0000 0.97250  0.61500  0.92000  Biso   1.000  C
  C150     1.0000 0.97250  0.38500  0.08000  Biso   1.000  C
  C151     1.0000 0.02750  0.38500  0.92000  Biso   1.000  C
  C152     1.0000 0.02750  0.61500  0.08000  Biso   1.000  C
  C153     1.0000 0.92000  0.47250  0.11500  Biso   1.000  C
  C154     1.0000 0.08000  0.47250  0.88500  Biso   1.000  C
  C155     1.0000 0.92000  0.52750  0.88500  Biso   1.000  C
  C156     1.0000 0.08000  0.52750  0.11500  Biso   1.000  C
  C157     1.0000 0.92000  0.61500  0.02750  Biso   1.000  C
  C158     1.0000 0.08000  0.38500  0.02750  Biso   1.000  C
  C159     1.0000 0.92000  0.38500  0.97250  Biso   1.000  C
  C160     1.0000 0.08000  0.61500  0.97250  Biso   1.000  C
  C161     1.0000 0.11500  0.47250  0.08000  Biso   1.000  C
  C162     1.0000 0.88500  0.47250  0.92000  Biso   1.000  C
  C163     1.0000 0.88500  0.52750  0.08000  Biso   1.000  C
  C164     1.0000 0.11500  0.52750  0.92000  Biso   1.000  C
  C165     1.0000 0.97250  0.42000  0.88500  Biso   1.000  C
  C166     1.0000 0.97250  0.58000  0.11500  Biso   1.000  C
  C167     1.0000 0.02750  0.42000  0.11500  Biso   1.000  C
  C168     1.0000 0.02750  0.58000  0.88500  Biso   1.000  C
  C169     1.0000 0.11500  0.92000  0.47250  Biso   1.000  C
  C170     1.0000 0.88500  0.08000  0.47250  Biso   1.000  C
  C171     1.0000 0.88500  0.92000  0.52750  Biso   1.000  C
  C172     1.0000 0.11500  0.08000  0.52750  Biso   1.000  C
  C173     1.0000 0.97250  0.11500  0.42000  Biso   1.000  C
  C174     1.0000 0.97250  0.88500  0.58000  Biso   1.000  C
  C175     1.0000 0.02750  0.88500  0.42000  Biso   1.000  C
  C176     1.0000 0.02750  0.11500  0.58000  Biso   1.000  C
  C177     1.0000 0.92000  0.97250  0.61500  Biso   1.000  C
  C178     1.0000 0.08000  0.97250  0.38500  Biso   1.000  C
  C179     1.0000 0.92000  0.02750  0.38500  Biso   1.000  C
  C180     1.0000 0.08000  0.02750  0.61500  Biso   1.000  C
  C181     1.0000 0.92000  0.11500  0.52750  Biso   1.000  C
  C182     1.0000 0.08000  0.88500  0.52750  Biso   1.000  C
  C183     1.0000 0.92000  0.88500  0.47250  Biso   1.000  C
  C184     1.0000 0.08000  0.11500  0.47250  Biso   1.000  C
  C185     1.0000 0.11500  0.97250  0.58000  Biso   1.000  C
  C186     1.0000 0.88500  0.97250  0.42000  Biso   1.000  C
  C187     1.0000 0.88500  0.02750  0.58000  Biso   1.000  C
  C188     1.0000 0.11500  0.02750  0.42000  Biso   1.000  C
  C189     1.0000 0.97250  0.92000  0.38500  Biso   1.000  C
  C190     1.0000 0.97250  0.08000  0.61500  Biso   1.000  C
  C191     1.0000 0.02750  0.92000  0.61500  Biso   1.000  C
  C192     1.0000 0.02750  0.08000  0.38500  Biso   1.000  C
  C193     1.0000 0.37500  0.56830  0.54360  Biso   1.000  C
  C194     1.0000 0.62500  0.43170  0.54360  Biso   1.000  C
  C195     1.0000 0.62500  0.56830  0.45640  Biso   1.000  C
  C196     1.0000 0.37500  0.43170  0.45640  Biso   1.000  C
  C197     1.0000 0.54360  0.37500  0.56830  Biso   1.000  C
  C198     1.0000 0.54360  0.62500  0.43170  Biso   1.000  C
  C199     1.0000 0.45640  0.62500  0.56830  Biso   1.000  C
  C200     1.0000 0.45640  0.37500  0.43170  Biso   1.000  C
  C201     1.0000 0.56830  0.54360  0.37500  Biso   1.000  C
  C202     1.0000 0.43170  0.54360  0.62500  Biso   1.000  C
  C203     1.0000 0.56830  0.45640  0.62500  Biso   1.000  C
  C204     1.0000 0.43170  0.45640  0.37500  Biso   1.000  C
  C205     1.0000 0.56830  0.37500  0.45640  Biso   1.000  C
  C206     1.0000 0.43170  0.62500  0.45640  Biso   1.000  C
  C207     1.0000 0.56830  0.62500  0.54360  Biso   1.000  C
  C208     1.0000 0.43170  0.37500  0.54360  Biso   1.000  C
  C209     1.0000 0.37500  0.54360  0.43170  Biso   1.000  C
  C210     1.0000 0.62500  0.54360  0.56830  Biso   1.000  C
  C211     1.0000 0.62500  0.45640  0.43170  Biso   1.000  C
  C212     1.0000 0.37500  0.45640  0.56830  Biso   1.000  C
  C213     1.0000 0.54360  0.56830  0.62500  Biso   1.000  C
  C214     1.0000 0.54360  0.43170  0.37500  Biso   1.000  C
  C215     1.0000 0.45640  0.56830  0.37500  Biso   1.000  C
  C216     1.0000 0.45640  0.43170  0.62500  Biso   1.000  C
  C217     1.0000 0.37500  0.06830  0.04360  Biso   1.000  C
  C218     1.0000 0.62500  0.93170  0.04360  Biso   1.000  C
  C219     1.0000 0.62500  0.06830  0.95640  Biso   1.000  C
  C220     1.0000 0.37500  0.93170  0.95640  Biso   1.000  C
  C221     1.0000 0.54360  0.87500  0.06830  Biso   1.000  C
  C222     1.0000 0.54360  0.12500  0.93170  Biso   1.000  C
  C223     1.0000 0.45640  0.12500  0.06830  Biso   1.000  C
  C224     1.0000 0.45640  0.87500  0.93170  Biso   1.000  C
  C225     1.0000 0.56830  0.04360  0.87500  Biso   1.000  C
  C226     1.0000 0.43170  0.04360  0.12500  Biso   1.000  C
  C227     1.0000 0.56830  0.95640  0.12500  Biso   1.000  C
  C228     1.0000 0.43170  0.95640  0.87500  Biso   1.000  C
  C229     1.0000 0.56830  0.87500  0.95640  Biso   1.000  C
  C230     1.0000 0.43170  0.12500  0.95640  Biso   1.000  C
  C231     1.0000 0.56830  0.12500  0.04360  Biso   1.000  C
  C232     1.0000 0.43170  0.87500  0.04360  Biso   1.000  C
  C233     1.0000 0.37500  0.04360  0.93170  Biso   1.000  C
  C234     1.0000 0.62500  0.04360  0.06830  Biso   1.000  C
  C235     1.0000 0.62500  0.95640  0.93170  Biso   1.000  C
  C236     1.0000 0.37500  0.95640  0.06830  Biso   1.000  C
  C237     1.0000 0.54360  0.06830  0.12500  Biso   1.000  C
  C238     1.0000 0.54360  0.93170  0.87500  Biso   1.000  C
  C239     1.0000 0.45640  0.06830  0.87500  Biso   1.000  C
  C240     1.0000 0.45640  0.93170  0.12500  Biso   1.000  C
  C241     1.0000 0.87500  0.56830  0.04360  Biso   1.000  C
  C242     1.0000 0.12500  0.43170  0.04360  Biso   1.000  C
  C243     1.0000 0.12500  0.56830  0.95640  Biso   1.000  C
  C244     1.0000 0.87500  0.43170  0.95640  Biso   1.000  C
  C245     1.0000 0.04360  0.37500  0.06830  Biso   1.000  C
  C246     1.0000 0.04360  0.62500  0.93170  Biso   1.000  C
  C247     1.0000 0.95640  0.62500  0.06830  Biso   1.000  C
  C248     1.0000 0.95640  0.37500  0.93170  Biso   1.000  C
  C249     1.0000 0.06830  0.54360  0.87500  Biso   1.000  C
  C250     1.0000 0.93170  0.54360  0.12500  Biso   1.000  C
  C251     1.0000 0.06830  0.45640  0.12500  Biso   1.000  C
  C252     1.0000 0.93170  0.45640  0.87500  Biso   1.000  C
  C253     1.0000 0.06830  0.37500  0.95640  Biso   1.000  C
  C254     1.0000 0.93170  0.62500  0.95640  Biso   1.000  C
  C255     1.0000 0.06830  0.62500  0.04360  Biso   1.000  C
  C256     1.0000 0.93170  0.37500  0.04360  Biso   1.000  C
  C257     1.0000 0.87500  0.54360  0.93170  Biso   1.000  C
  C258     1.0000 0.12500  0.54360  0.06830  Biso   1.000  C
  C259     1.0000 0.12500  0.45640  0.93170  Biso   1.000  C
  C260     1.0000 0.87500  0.45640  0.06830  Biso   1.000  C
  C261     1.0000 0.04360  0.56830  0.12500  Biso   1.000  C
  C262     1.0000 0.04360  0.43170  0.87500  Biso   1.000  C
  C263     1.0000 0.95640  0.56830  0.87500  Biso   1.000  C
  C264     1.0000 0.95640  0.43170  0.12500  Biso   1.000  C
  C265     1.0000 0.87500  0.06830  0.54360  Biso   1.000  C
  C266     1.0000 0.12500  0.93170  0.54360  Biso   1.000  C
  C267     1.0000 0.12500  0.06830  0.45640  Biso   1.000  C
  C268     1.0000 0.87500  0.93170  0.45640  Biso   1.000  C
  C269     1.0000 0.04360  0.87500  0.56830  Biso   1.000  C
  C270     1.0000 0.04360  0.12500  0.43170  Biso   1.000  C
  C271     1.0000 0.95640  0.12500  0.56830  Biso   1.000  C
  C272     1.0000 0.95640  0.87500  0.43170  Biso   1.000  C
  C273     1.0000 0.06830  0.04360  0.37500  Biso   1.000  C
  C274     1.0000 0.93170  0.04360  0.62500  Biso   1.000  C
  C275     1.0000 0.06830  0.95640  0.62500  Biso   1.000  C
  C276     1.0000 0.93170  0.95640  0.37500  Biso   1.000  C
  C277     1.0000 0.06830  0.87500  0.45640  Biso   1.000  C
  C278     1.0000 0.93170  0.12500  0.45640  Biso   1.000  C
  C279     1.0000 0.06830  0.12500  0.54360  Biso   1.000  C
  C280     1.0000 0.93170  0.87500  0.54360  Biso   1.000  C
  C281     1.0000 0.87500  0.04360  0.43170  Biso   1.000  C
  C282     1.0000 0.12500  0.04360  0.56830  Biso   1.000  C
  C283     1.0000 0.12500  0.95640  0.43170  Biso   1.000  C
  C284     1.0000 0.87500  0.95640  0.56830  Biso   1.000  C
  C285     1.0000 0.04360  0.06830  0.62500  Biso   1.000  C
  C286     1.0000 0.04360  0.93170  0.37500  Biso   1.000  C
  C287     1.0000 0.95640  0.06830  0.37500  Biso   1.000  C
  C288     1.0000 0.95640  0.93170  0.62500  Biso   1.000  C
  C289     1.0000 0.62500  0.43170  0.45640  Biso   1.000  C
  C290     1.0000 0.37500  0.56830  0.45640  Biso   1.000  C
  C291     1.0000 0.37500  0.43170  0.54360  Biso   1.000  C
  C292     1.0000 0.62500  0.56830  0.54360  Biso   1.000  C
  C293     1.0000 0.45640  0.62500  0.43170  Biso   1.000  C
  C294     1.0000 0.45640  0.37500  0.56830  Biso   1.000  C
  C295     1.0000 0.54360  0.37500  0.43170  Biso   1.000  C
  C296     1.0000 0.54360  0.62500  0.56830  Biso   1.000  C
  C297     1.0000 0.43170  0.45640  0.62500  Biso   1.000  C
  C298     1.0000 0.56830  0.45640  0.37500  Biso   1.000  C
  C299     1.0000 0.43170  0.54360  0.37500  Biso   1.000  C
  C300     1.0000 0.56830  0.54360  0.62500  Biso   1.000  C
  C301     1.0000 0.43170  0.62500  0.54360  Biso   1.000  C
  C302     1.0000 0.56830  0.37500  0.54360  Biso   1.000  C
  C303     1.0000 0.43170  0.37500  0.45640  Biso   1.000  C
  C304     1.0000 0.56830  0.62500  0.45640  Biso   1.000  C
  C305     1.0000 0.62500  0.45640  0.56830  Biso   1.000  C
  C306     1.0000 0.37500  0.45640  0.43170  Biso   1.000  C
  C307     1.0000 0.37500  0.54360  0.56830  Biso   1.000  C
  C308     1.0000 0.62500  0.54360  0.43170  Biso   1.000  C
  C309     1.0000 0.45640  0.43170  0.37500  Biso   1.000  C
  C310     1.0000 0.45640  0.56830  0.62500  Biso   1.000  C
  C311     1.0000 0.54360  0.43170  0.62500  Biso   1.000  C
  C312     1.0000 0.54360  0.56830  0.37500  Biso   1.000  C
  C313     1.0000 0.62500  0.93170  0.95640  Biso   1.000  C
  C314     1.0000 0.37500  0.06830  0.95640  Biso   1.000  C
  C315     1.0000 0.37500  0.93170  0.04360  Biso   1.000  C
  C316     1.0000 0.62500  0.06830  0.04360  Biso   1.000  C
  C317     1.0000 0.45640  0.12500  0.93170  Biso   1.000  C
  C318     1.0000 0.45640  0.87500  0.06830  Biso   1.000  C
  C319     1.0000 0.54360  0.87500  0.93170  Biso   1.000  C
  C320     1.0000 0.54360  0.12500  0.06830  Biso   1.000  C
  C321     1.0000 0.43170  0.95640  0.12500  Biso   1.000  C
  C322     1.0000 0.56830  0.95640  0.87500  Biso   1.000  C
  C323     1.0000 0.43170  0.04360  0.87500  Biso   1.000  C
  C324     1.0000 0.56830  0.04360  0.12500  Biso   1.000  C
  C325     1.0000 0.43170  0.12500  0.04360  Biso   1.000  C
  C326     1.0000 0.56830  0.87500  0.04360  Biso   1.000  C
  C327     1.0000 0.43170  0.87500  0.95640  Biso   1.000  C
  C328     1.0000 0.56830  0.12500  0.95640  Biso   1.000  C
  C329     1.0000 0.62500  0.95640  0.06830  Biso   1.000  C
  C330     1.0000 0.37500  0.95640  0.93170  Biso   1.000  C
  C331     1.0000 0.37500  0.04360  0.06830  Biso   1.000  C
  C332     1.0000 0.62500  0.04360  0.93170  Biso   1.000  C
  C333     1.0000 0.45640  0.93170  0.87500  Biso   1.000  C
  C334     1.0000 0.45640  0.06830  0.12500  Biso   1.000  C
  C335     1.0000 0.54360  0.93170  0.12500  Biso   1.000  C
  C336     1.0000 0.54360  0.06830  0.87500  Biso   1.000  C
  C337     1.0000 0.12500  0.43170  0.95640  Biso   1.000  C
  C338     1.0000 0.87500  0.56830  0.95640  Biso   1.000  C
  C339     1.0000 0.87500  0.43170  0.04360  Biso   1.000  C
  C340     1.0000 0.12500  0.56830  0.04360  Biso   1.000  C
  C341     1.0000 0.95640  0.62500  0.93170  Biso   1.000  C
  C342     1.0000 0.95640  0.37500  0.06830  Biso   1.000  C
  C343     1.0000 0.04360  0.37500  0.93170  Biso   1.000  C
  C344     1.0000 0.04360  0.62500  0.06830  Biso   1.000  C
  C345     1.0000 0.93170  0.45640  0.12500  Biso   1.000  C
  C346     1.0000 0.06830  0.45640  0.87500  Biso   1.000  C
  C347     1.0000 0.93170  0.54360  0.87500  Biso   1.000  C
  C348     1.0000 0.06830  0.54360  0.12500  Biso   1.000  C
  C349     1.0000 0.93170  0.62500  0.04360  Biso   1.000  C
  C350     1.0000 0.06830  0.37500  0.04360  Biso   1.000  C
  C351     1.0000 0.93170  0.37500  0.95640  Biso   1.000  C
  C352     1.0000 0.06830  0.62500  0.95640  Biso   1.000  C
  C353     1.0000 0.12500  0.45640  0.06830  Biso   1.000  C
  C354     1.0000 0.87500  0.45640  0.93170  Biso   1.000  C
  C355     1.0000 0.87500  0.54360  0.06830  Biso   1.000  C
  C356     1.0000 0.12500  0.54360  0.93170  Biso   1.000  C
  C357     1.0000 0.95640  0.43170  0.87500  Biso   1.000  C
  C358     1.0000 0.95640  0.56830  0.12500  Biso   1.000  C
  C359     1.0000 0.04360  0.43170  0.12500  Biso   1.000  C
  C360     1.0000 0.04360  0.56830  0.87500  Biso   1.000  C
  C361     1.0000 0.12500  0.93170  0.45640  Biso   1.000  C
  C362     1.0000 0.87500  0.06830  0.45640  Biso   1.000  C
  C363     1.0000 0.87500  0.93170  0.54360  Biso   1.000  C
  C364     1.0000 0.12500  0.06830  0.54360  Biso   1.000  C
  C365     1.0000 0.95640  0.12500  0.43170  Biso   1.000  C
  C366     1.0000 0.95640  0.87500  0.56830  Biso   1.000  C
  C367     1.0000 0.04360  0.87500  0.43170  Biso   1.000  C
  C368     1.0000 0.04360  0.12500  0.56830  Biso   1.000  C
  C369     1.0000 0.93170  0.95640  0.62500  Biso   1.000  C
  C370     1.0000 0.06830  0.95640  0.37500  Biso   1.000  C
  C371     1.0000 0.93170  0.04360  0.37500  Biso   1.000  C
  C372     1.0000 0.06830  0.04360  0.62500  Biso   1.000  C
  C373     1.0000 0.93170  0.12500  0.54360  Biso   1.000  C
  C374     1.0000 0.06830  0.87500  0.54360  Biso   1.000  C
  C375     1.0000 0.93170  0.87500  0.45640  Biso   1.000  C
  C376     1.0000 0.06830  0.12500  0.45640  Biso   1.000  C
  C377     1.0000 0.12500  0.95640  0.56830  Biso   1.000  C
  C378     1.0000 0.87500  0.95640  0.43170  Biso   1.000  C
  C379     1.0000 0.87500  0.04360  0.56830  Biso   1.000  C
  C380     1.0000 0.12500  0.04360  0.43170  Biso   1.000  C
  C381     1.0000 0.95640  0.93170  0.37500  Biso   1.000  C
  C382     1.0000 0.95640  0.06830  0.62500  Biso   1.000  C
  C383     1.0000 0.04360  0.93170  0.62500  Biso   1.000  C
  C384     1.0000 0.04360  0.06830  0.37500  Biso   1.000  C
  C385     1.0000 0.38400  0.55050  0.55050  Biso   1.000  C
  C386     1.0000 0.61600  0.44950  0.55050  Biso   1.000  C
  C387     1.0000 0.61600  0.55050  0.44950  Biso   1.000  C
  C388     1.0000 0.38400  0.44950  0.44950  Biso   1.000  C
  C389     1.0000 0.55050  0.38400  0.55050  Biso   1.000  C
  C390     1.0000 0.55050  0.61600  0.44950  Biso   1.000  C
  C391     1.0000 0.44950  0.61600  0.55050  Biso   1.000  C
  C392     1.0000 0.44950  0.38400  0.44950  Biso   1.000  C
  C393     1.0000 0.55050  0.55050  0.38400  Biso   1.000  C
  C394     1.0000 0.44950  0.55050  0.61600  Biso   1.000  C
  C395     1.0000 0.55050  0.44950  0.61600  Biso   1.000  C
  C396     1.0000 0.44950  0.44950  0.38400  Biso   1.000  C
  C397     1.0000 0.55050  0.38400  0.44950  Biso   1.000  C
  C398     1.0000 0.44950  0.61600  0.44950  Biso   1.000  C
  C399     1.0000 0.55050  0.61600  0.55050  Biso   1.000  C
  C400     1.0000 0.44950  0.38400  0.55050  Biso   1.000  C
  C401     1.0000 0.38400  0.55050  0.44950  Biso   1.000  C
  C402     1.0000 0.61600  0.55050  0.55050  Biso   1.000  C
  C403     1.0000 0.61600  0.44950  0.44950  Biso   1.000  C
  C404     1.0000 0.38400  0.44950  0.55050  Biso   1.000  C
  C405     1.0000 0.55050  0.55050  0.61600  Biso   1.000  C
  C406     1.0000 0.55050  0.44950  0.38400  Biso   1.000  C
  C407     1.0000 0.44950  0.55050  0.38400  Biso   1.000  C
  C408     1.0000 0.44950  0.44950  0.61600  Biso   1.000  C
  C409     1.0000 0.38400  0.05050  0.05050  Biso   1.000  C
  C410     1.0000 0.61600  0.94950  0.05050  Biso   1.000  C
  C411     1.0000 0.61600  0.05050  0.94950  Biso   1.000  C
  C412     1.0000 0.38400  0.94950  0.94950  Biso   1.000  C
  C413     1.0000 0.55050  0.88400  0.05050  Biso   1.000  C
  C414     1.0000 0.55050  0.11600  0.94950  Biso   1.000  C
  C415     1.0000 0.44950  0.11600  0.05050  Biso   1.000  C
  C416     1.0000 0.44950  0.88400  0.94950  Biso   1.000  C
  C417     1.0000 0.55050  0.05050  0.88400  Biso   1.000  C
  C418     1.0000 0.44950  0.05050  0.11600  Biso   1.000  C
  C419     1.0000 0.55050  0.94950  0.11600  Biso   1.000  C
  C420     1.0000 0.44950  0.94950  0.88400  Biso   1.000  C
  C421     1.0000 0.55050  0.88400  0.94950  Biso   1.000  C
  C422     1.0000 0.44950  0.11600  0.94950  Biso   1.000  C
  C423     1.0000 0.55050  0.11600  0.05050  Biso   1.000  C
  C424     1.0000 0.44950  0.88400  0.05050  Biso   1.000  C
  C425     1.0000 0.38400  0.05050  0.94950  Biso   1.000  C
  C426     1.0000 0.61600  0.05050  0.05050  Biso   1.000  C
  C427     1.0000 0.61600  0.94950  0.94950  Biso   1.000  C
  C428     1.0000 0.38400  0.94950  0.05050  Biso   1.000  C
  C429     1.0000 0.55050  0.05050  0.11600  Biso   1.000  C
  C430     1.0000 0.55050  0.94950  0.88400  Biso   1.000  C
  C431     1.0000 0.44950  0.05050  0.88400  Biso   1.000  C
  C432     1.0000 0.44950  0.94950  0.11600  Biso   1.000  C
  C433     1.0000 0.88400  0.55050  0.05050  Biso   1.000  C
  C434     1.0000 0.11600  0.44950  0.05050  Biso   1.000  C
  C435     1.0000 0.11600  0.55050  0.94950  Biso   1.000  C
  C436     1.0000 0.88400  0.44950  0.94950  Biso   1.000  C
  C437     1.0000 0.05050  0.38400  0.05050  Biso   1.000  C
  C438     1.0000 0.05050  0.61600  0.94950  Biso   1.000  C
  C439     1.0000 0.94950  0.61600  0.05050  Biso   1.000  C
  C440     1.0000 0.94950  0.38400  0.94950  Biso   1.000  C
  C441     1.0000 0.05050  0.55050  0.88400  Biso   1.000  C
  C442     1.0000 0.94950  0.55050  0.11600  Biso   1.000  C
  C443     1.0000 0.05050  0.44950  0.11600  Biso   1.000  C
  C444     1.0000 0.94950  0.44950  0.88400  Biso   1.000  C
  C445     1.0000 0.05050  0.38400  0.94950  Biso   1.000  C
  C446     1.0000 0.94950  0.61600  0.94950  Biso   1.000  C
  C447     1.0000 0.05050  0.61600  0.05050  Biso   1.000  C
  C448     1.0000 0.94950  0.38400  0.05050  Biso   1.000  C
  C449     1.0000 0.88400  0.55050  0.94950  Biso   1.000  C
  C450     1.0000 0.11600  0.55050  0.05050  Biso   1.000  C
  C451     1.0000 0.11600  0.44950  0.94950  Biso   1.000  C
  C452     1.0000 0.88400  0.44950  0.05050  Biso   1.000  C
  C453     1.0000 0.05050  0.55050  0.11600  Biso   1.000  C
  C454     1.0000 0.05050  0.44950  0.88400  Biso   1.000  C
  C455     1.0000 0.94950  0.55050  0.88400  Biso   1.000  C
  C456     1.0000 0.94950  0.44950  0.11600  Biso   1.000  C
  C457     1.0000 0.88400  0.05050  0.55050  Biso   1.000  C
  C458     1.0000 0.11600  0.94950  0.55050  Biso   1.000  C
  C459     1.0000 0.11600  0.05050  0.44950  Biso   1.000  C
  C460     1.0000 0.88400  0.94950  0.44950  Biso   1.000  C
  C461     1.0000 0.05050  0.88400  0.55050  Biso   1.000  C
  C462     1.0000 0.05050  0.11600  0.44950  Biso   1.000  C
  C463     1.0000 0.94950  0.11600  0.55050  Biso   1.000  C
  C464     1.0000 0.94950  0.88400  0.44950  Biso   1.000  C
  C465     1.0000 0.05050  0.05050  0.38400  Biso   1.000  C
  C466     1.0000 0.94950  0.05050  0.61600  Biso   1.000  C
  C467     1.0000 0.05050  0.94950  0.61600  Biso   1.000  C
  C468     1.0000 0.94950  0.94950  0.38400  Biso   1.000  C
  C469     1.0000 0.05050  0.88400  0.44950  Biso   1.000  C
  C470     1.0000 0.94950  0.11600  0.44950  Biso   1.000  C
  C471     1.0000 0.05050  0.11600  0.55050  Biso   1.000  C
  C472     1.0000 0.94950  0.88400  0.55050  Biso   1.000  C
  C473     1.0000 0.88400  0.05050  0.44950  Biso   1.000  C
  C474     1.0000 0.11600  0.05050  0.55050  Biso   1.000  C
  C475     1.0000 0.11600  0.94950  0.44950  Biso   1.000  C
  C476     1.0000 0.88400  0.94950  0.55050  Biso   1.000  C
  C477     1.0000 0.05050  0.05050  0.61600  Biso   1.000  C
  C478     1.0000 0.05050  0.94950  0.38400  Biso   1.000  C
  C479     1.0000 0.94950  0.05050  0.38400  Biso   1.000  C
  C480     1.0000 0.94950  0.94950  0.61600  Biso   1.000  C
  H1       1.0000 0.39550  0.54370  0.54380  Biso   1.000  H
  H2       1.0000 0.60450  0.45630  0.54380  Biso   1.000  H
  H3       1.0000 0.60450  0.54370  0.45620  Biso   1.000  H
  H4       1.0000 0.39550  0.45630  0.45620  Biso   1.000  H
  H5       1.0000 0.54380  0.39550  0.54370  Biso   1.000  H
  H6       1.0000 0.54380  0.60450  0.45630  Biso   1.000  H
  H7       1.0000 0.45620  0.60450  0.54370  Biso   1.000  H
  H8       1.0000 0.45620  0.39550  0.45630  Biso   1.000  H
  H9       1.0000 0.54370  0.54380  0.39550  Biso   1.000  H
  H10      1.0000 0.45630  0.54380  0.60450  Biso   1.000  H
  H11      1.0000 0.54370  0.45620  0.60450  Biso   1.000  H
  H12      1.0000 0.45630  0.45620  0.39550  Biso   1.000  H
  H13      1.0000 0.54370  0.39550  0.45620  Biso   1.000  H
  H14      1.0000 0.45630  0.60450  0.45620  Biso   1.000  H
  H15      1.0000 0.54370  0.60450  0.54380  Biso   1.000  H
  H16      1.0000 0.45630  0.39550  0.54380  Biso   1.000  H
  H17      1.0000 0.39550  0.54380  0.45630  Biso   1.000  H
  H18      1.0000 0.60450  0.54380  0.54370  Biso   1.000  H
  H19      1.0000 0.60450  0.45620  0.45630  Biso   1.000  H
  H20      1.0000 0.39550  0.45620  0.54370  Biso   1.000  H
  H21      1.0000 0.54380  0.54370  0.60450  Biso   1.000  H
  H22      1.0000 0.54380  0.45630  0.39550  Biso   1.000  H
  H23      1.0000 0.45620  0.54370  0.39550  Biso   1.000  H
  H24      1.0000 0.45620  0.45630  0.60450  Biso   1.000  H
  H25      1.0000 0.39550  0.04370  0.04380  Biso   1.000  H
  H26      1.0000 0.60450  0.95630  0.04380  Biso   1.000  H
  H27      1.0000 0.60450  0.04370  0.95620  Biso   1.000  H
  H28      1.0000 0.39550  0.95630  0.95620  Biso   1.000  H
  H29      1.0000 0.54380  0.89550  0.04370  Biso   1.000  H
  H30      1.0000 0.54380  0.10450  0.95630  Biso   1.000  H
  H31      1.0000 0.45620  0.10450  0.04370  Biso   1.000  H
  H32      1.0000 0.45620  0.89550  0.95630  Biso   1.000  H
  H33      1.0000 0.54370  0.04380  0.89550  Biso   1.000  H
  H34      1.0000 0.45630  0.04380  0.10450  Biso   1.000  H
  H35      1.0000 0.54370  0.95620  0.10450  Biso   1.000  H
  H36      1.0000 0.45630  0.95620  0.89550  Biso   1.000  H
  H37      1.0000 0.54370  0.89550  0.95620  Biso   1.000  H
  H38      1.0000 0.45630  0.10450  0.95620  Biso   1.000  H
  H39      1.0000 0.54370  0.10450  0.04380  Biso   1.000  H
  H40      1.0000 0.45630  0.89550  0.04380  Biso   1.000  H
  H41      1.0000 0.39550  0.04380  0.95630  Biso   1.000  H
  H42      1.0000 0.60450  0.04380  0.04370  Biso   1.000  H
  H43      1.0000 0.60450  0.95620  0.95630  Biso   1.000  H
  H44      1.0000 0.39550  0.95620  0.04370  Biso   1.000  H
  H45      1.0000 0.54380  0.04370  0.10450  Biso   1.000  H
  H46      1.0000 0.54380  0.95630  0.89550  Biso   1.000  H
  H47      1.0000 0.45620  0.04370  0.89550  Biso   1.000  H
  H48      1.0000 0.45620  0.95630  0.10450  Biso   1.000  H
  H49      1.0000 0.89550  0.54370  0.04380  Biso   1.000  H
  H50      1.0000 0.10450  0.45630  0.04380  Biso   1.000  H
  H51      1.0000 0.10450  0.54370  0.95620  Biso   1.000  H
  H52      1.0000 0.89550  0.45630  0.95620  Biso   1.000  H
  H53      1.0000 0.04380  0.39550  0.04370  Biso   1.000  H
  H54      1.0000 0.04380  0.60450  0.95630  Biso   1.000  H
  H55      1.0000 0.95620  0.60450  0.04370  Biso   1.000  H
  H56      1.0000 0.95620  0.39550  0.95630  Biso   1.000  H
  H57      1.0000 0.04370  0.54380  0.89550  Biso   1.000  H
  H58      1.0000 0.95630  0.54380  0.10450  Biso   1.000  H
  H59      1.0000 0.04370  0.45620  0.10450  Biso   1.000  H
  H60      1.0000 0.95630  0.45620  0.89550  Biso   1.000  H
  H61      1.0000 0.04370  0.39550  0.95620  Biso   1.000  H
  H62      1.0000 0.95630  0.60450  0.95620  Biso   1.000  H
  H63      1.0000 0.04370  0.60450  0.04380  Biso   1.000  H
  H64      1.0000 0.95630  0.39550  0.04380  Biso   1.000  H
  H65      1.0000 0.89550  0.54380  0.95630  Biso   1.000  H
  H66      1.0000 0.10450  0.54380  0.04370  Biso   1.000  H
  H67      1.0000 0.10450  0.45620  0.95630  Biso   1.000  H
  H68      1.0000 0.89550  0.45620  0.04370  Biso   1.000  H
  H69      1.0000 0.04380  0.54370  0.10450  Biso   1.000  H
  H70      1.0000 0.04380  0.45630  0.89550  Biso   1.000  H
  H71      1.0000 0.95620  0.54370  0.89550  Biso   1.000  H
  H72      1.0000 0.95620  0.45630  0.10450  Biso   1.000  H
  H73      1.0000 0.89550  0.04370  0.54380  Biso   1.000  H
  H74      1.0000 0.10450  0.95630  0.54380  Biso   1.000  H
  H75      1.0000 0.10450  0.04370  0.45620  Biso   1.000  H
  H76      1.0000 0.89550  0.95630  0.45620  Biso   1.000  H
  H77      1.0000 0.04380  0.89550  0.54370  Biso   1.000  H
  H78      1.0000 0.04380  0.10450  0.45630  Biso   1.000  H
  H79      1.0000 0.95620  0.10450  0.54370  Biso   1.000  H
  H80      1.0000 0.95620  0.89550  0.45630  Biso   1.000  H
  H81      1.0000 0.04370  0.04380  0.39550  Biso   1.000  H
  H82      1.0000 0.95630  0.04380  0.60450  Biso   1.000  H
  H83      1.0000 0.04370  0.95620  0.60450  Biso   1.000  H
  H84      1.0000 0.95630  0.95620  0.39550  Biso   1.000  H
  H85      1.0000 0.04370  0.89550  0.45620  Biso   1.000  H
  H86      1.0000 0.95630  0.10450  0.45620  Biso   1.000  H
  H87      1.0000 0.04370  0.10450  0.54380  Biso   1.000  H
  H88      1.0000 0.95630  0.89550  0.54380  Biso   1.000  H
  H89      1.0000 0.89550  0.04380  0.45630  Biso   1.000  H
  H90      1.0000 0.10450  0.04380  0.54370  Biso   1.000  H
  H91      1.0000 0.10450  0.95620  0.45630  Biso   1.000  H
  H92      1.0000 0.89550  0.95620  0.54370  Biso   1.000  H
  H93      1.0000 0.04380  0.04370  0.60450  Biso   1.000  H
  H94      1.0000 0.04380  0.95630  0.39550  Biso   1.000  H
  H95      1.0000 0.95620  0.04370  0.39550  Biso   1.000  H
  H96      1.0000 0.95620  0.95630  0.60450  Biso   1.000  H
  C481     1.0000 0.35700  0.57600  0.55160  Biso   1.000  C
  C482     1.0000 0.64300  0.42400  0.55160  Biso   1.000  C
  C483     1.0000 0.64300  0.57600  0.44840  Biso   1.000  C
  C484     1.0000 0.35700  0.42400  0.44840  Biso   1.000  C
  C485     1.0000 0.55160  0.35700  0.57600  Biso   1.000  C
  C486     1.0000 0.55160  0.64300  0.42400  Biso   1.000  C
  C487     1.0000 0.44840  0.64300  0.57600  Biso   1.000  C
  C488     1.0000 0.44840  0.35700  0.42400  Biso   1.000  C
  C489     1.0000 0.57600  0.55160  0.35700  Biso   1.000  C
  C490     1.0000 0.42400  0.55160  0.64300  Biso   1.000  C
  C491     1.0000 0.57600  0.44840  0.64300  Biso   1.000  C
  C492     1.0000 0.42400  0.44840  0.35700  Biso   1.000  C
  C493     1.0000 0.57600  0.35700  0.44840  Biso   1.000  C
  C494     1.0000 0.42400  0.64300  0.44840  Biso   1.000  C
  C495     1.0000 0.57600  0.64300  0.55160  Biso   1.000  C
  C496     1.0000 0.42400  0.35700  0.55160  Biso   1.000  C
  C497     1.0000 0.35700  0.55160  0.42400  Biso   1.000  C
  C498     1.0000 0.64300  0.55160  0.57600  Biso   1.000  C
  C499     1.0000 0.64300  0.44840  0.42400  Biso   1.000  C
  C500     1.0000 0.35700  0.44840  0.57600  Biso   1.000  C
  C501     1.0000 0.55160  0.57600  0.64300  Biso   1.000  C
  C502     1.0000 0.55160  0.42400  0.35700  Biso   1.000  C
  C503     1.0000 0.44840  0.57600  0.35700  Biso   1.000  C
  C504     1.0000 0.44840  0.42400  0.64300  Biso   1.000  C
  C505     1.0000 0.35700  0.07600  0.05160  Biso   1.000  C
  C506     1.0000 0.64300  0.92400  0.05160  Biso   1.000  C
  C507     1.0000 0.64300  0.07600  0.94840  Biso   1.000  C
  C508     1.0000 0.35700  0.92400  0.94840  Biso   1.000  C
  C509     1.0000 0.55160  0.85700  0.07600  Biso   1.000  C
  C510     1.0000 0.55160  0.14300  0.92400  Biso   1.000  C
  C511     1.0000 0.44840  0.14300  0.07600  Biso   1.000  C
  C512     1.0000 0.44840  0.85700  0.92400  Biso   1.000  C
  C513     1.0000 0.57600  0.05160  0.85700  Biso   1.000  C
  C514     1.0000 0.42400  0.05160  0.14300  Biso   1.000  C
  C515     1.0000 0.57600  0.94840  0.14300  Biso   1.000  C
  C516     1.0000 0.42400  0.94840  0.85700  Biso   1.000  C
  C517     1.0000 0.57600  0.85700  0.94840  Biso   1.000  C
  C518     1.0000 0.42400  0.14300  0.94840  Biso   1.000  C
  C519     1.0000 0.57600  0.14300  0.05160  Biso   1.000  C
  C520     1.0000 0.42400  0.85700  0.05160  Biso   1.000  C
  C521     1.0000 0.35700  0.05160  0.92400  Biso   1.000  C
  C522     1.0000 0.64300  0.05160  0.07600  Biso   1.000  C
  C523     1.0000 0.64300  0.94840  0.92400  Biso   1.000  C
  C524     1.0000 0.35700  0.94840  0.07600  Biso   1.000  C
  C525     1.0000 0.55160  0.07600  0.14300  Biso   1.000  C
  C526     1.0000 0.55160  0.92400  0.85700  Biso   1.000  C
  C527     1.0000 0.44840  0.07600  0.85700  Biso   1.000  C
  C528     1.0000 0.44840  0.92400  0.14300  Biso   1.000  C
  C529     1.0000 0.85700  0.57600  0.05160  Biso   1.000  C
  C530     1.0000 0.14300  0.42400  0.05160  Biso   1.000  C
  C531     1.0000 0.14300  0.57600  0.94840  Biso   1.000  C
  C532     1.0000 0.85700  0.42400  0.94840  Biso   1.000  C
  C533     1.0000 0.05160  0.35700  0.07600  Biso   1.000  C
  C534     1.0000 0.05160  0.64300  0.92400  Biso   1.000  C
  C535     1.0000 0.94840  0.64300  0.07600  Biso   1.000  C
  C536     1.0000 0.94840  0.35700  0.92400  Biso   1.000  C
  C537     1.0000 0.07600  0.55160  0.85700  Biso   1.000  C
  C538     1.0000 0.92400  0.55160  0.14300  Biso   1.000  C
  C539     1.0000 0.07600  0.44840  0.14300  Biso   1.000  C
  C540     1.0000 0.92400  0.44840  0.85700  Biso   1.000  C
  C541     1.0000 0.07600  0.35700  0.94840  Biso   1.000  C
  C542     1.0000 0.92400  0.64300  0.94840  Biso   1.000  C
  C543     1.0000 0.07600  0.64300  0.05160  Biso   1.000  C
  C544     1.0000 0.92400  0.35700  0.05160  Biso   1.000  C
  C545     1.0000 0.85700  0.55160  0.92400  Biso   1.000  C
  C546     1.0000 0.14300  0.55160  0.07600  Biso   1.000  C
  C547     1.0000 0.14300  0.44840  0.92400  Biso   1.000  C
  C548     1.0000 0.85700  0.44840  0.07600  Biso   1.000  C
  C549     1.0000 0.05160  0.57600  0.14300  Biso   1.000  C
  C550     1.0000 0.05160  0.42400  0.85700  Biso   1.000  C
  C551     1.0000 0.94840  0.57600  0.85700  Biso   1.000  C
  C552     1.0000 0.94840  0.42400  0.14300  Biso   1.000  C
  C553     1.0000 0.85700  0.07600  0.55160  Biso   1.000  C
  C554     1.0000 0.14300  0.92400  0.55160  Biso   1.000  C
  C555     1.0000 0.14300  0.07600  0.44840  Biso   1.000  C
  C556     1.0000 0.85700  0.92400  0.44840  Biso   1.000  C
  C557     1.0000 0.05160  0.85700  0.57600  Biso   1.000  C
  C558     1.0000 0.05160  0.14300  0.42400  Biso   1.000  C
  C559     1.0000 0.94840  0.14300  0.57600  Biso   1.000  C
  C560     1.0000 0.94840  0.85700  0.42400  Biso   1.000  C
  C561     1.0000 0.07600  0.05160  0.35700  Biso   1.000  C
  C562     1.0000 0.92400  0.05160  0.64300  Biso   1.000  C
  C563     1.0000 0.07600  0.94840  0.64300  Biso   1.000  C
  C564     1.0000 0.92400  0.94840  0.35700  Biso   1.000  C
  C565     1.0000 0.07600  0.85700  0.44840  Biso   1.000  C
  C566     1.0000 0.92400  0.14300  0.44840  Biso   1.000  C
  C567     1.0000 0.07600  0.14300  0.55160  Biso   1.000  C
  C568     1.0000 0.92400  0.85700  0.55160  Biso   1.000  C
  C569     1.0000 0.85700  0.05160  0.42400  Biso   1.000  C
  C570     1.0000 0.14300  0.05160  0.57600  Biso   1.000  C
  C571     1.0000 0.14300  0.94840  0.42400  Biso   1.000  C
  C572     1.0000 0.85700  0.94840  0.57600  Biso   1.000  C
  C573     1.0000 0.05160  0.07600  0.64300  Biso   1.000  C
  C574     1.0000 0.05160  0.92400  0.35700  Biso   1.000  C
  C575     1.0000 0.94840  0.07600  0.35700  Biso   1.000  C
  C576     1.0000 0.94840  0.92400  0.64300  Biso   1.000  C
  C577     1.0000 0.64300  0.42400  0.44840  Biso   1.000  C
  C578     1.0000 0.35700  0.57600  0.44840  Biso   1.000  C
  C579     1.0000 0.35700  0.42400  0.55160  Biso   1.000  C
  C580     1.0000 0.64300  0.57600  0.55160  Biso   1.000  C
  C581     1.0000 0.44840  0.64300  0.42400  Biso   1.000  C
  C582     1.0000 0.44840  0.35700  0.57600  Biso   1.000  C
  C583     1.0000 0.55160  0.35700  0.42400  Biso   1.000  C
  C584     1.0000 0.55160  0.64300  0.57600  Biso   1.000  C
  C585     1.0000 0.42400  0.44840  0.64300  Biso   1.000  C
  C586     1.0000 0.57600  0.44840  0.35700  Biso   1.000  C
  C587     1.0000 0.42400  0.55160  0.35700  Biso   1.000  C
  C588     1.0000 0.57600  0.55160  0.64300  Biso   1.000  C
  C589     1.0000 0.42400  0.64300  0.55160  Biso   1.000  C
  C590     1.0000 0.57600  0.35700  0.55160  Biso   1.000  C
  C591     1.0000 0.42400  0.35700  0.44840  Biso   1.000  C
  C592     1.0000 0.57600  0.64300  0.44840  Biso   1.000  C
  C593     1.0000 0.64300  0.44840  0.57600  Biso   1.000  C
  C594     1.0000 0.35700  0.44840  0.42400  Biso   1.000  C
  C595     1.0000 0.35700  0.55160  0.57600  Biso   1.000  C
  C596     1.0000 0.64300  0.55160  0.42400  Biso   1.000  C
  C597     1.0000 0.44840  0.42400  0.35700  Biso   1.000  C
  C598     1.0000 0.44840  0.57600  0.64300  Biso   1.000  C
  C599     1.0000 0.55160  0.42400  0.64300  Biso   1.000  C
  C600     1.0000 0.55160  0.57600  0.35700  Biso   1.000  C
  C601     1.0000 0.64300  0.92400  0.94840  Biso   1.000  C
  C602     1.0000 0.35700  0.07600  0.94840  Biso   1.000  C
  C603     1.0000 0.35700  0.92400  0.05160  Biso   1.000  C
  C604     1.0000 0.64300  0.07600  0.05160  Biso   1.000  C
  C605     1.0000 0.44840  0.14300  0.92400  Biso   1.000  C
  C606     1.0000 0.44840  0.85700  0.07600  Biso   1.000  C
  C607     1.0000 0.55160  0.85700  0.92400  Biso   1.000  C
  C608     1.0000 0.55160  0.14300  0.07600  Biso   1.000  C
  C609     1.0000 0.42400  0.94840  0.14300  Biso   1.000  C
  C610     1.0000 0.57600  0.94840  0.85700  Biso   1.000  C
  C611     1.0000 0.42400  0.05160  0.85700  Biso   1.000  C
  C612     1.0000 0.57600  0.05160  0.14300  Biso   1.000  C
  C613     1.0000 0.42400  0.14300  0.05160  Biso   1.000  C
  C614     1.0000 0.57600  0.85700  0.05160  Biso   1.000  C
  C615     1.0000 0.42400  0.85700  0.94840  Biso   1.000  C
  C616     1.0000 0.57600  0.14300  0.94840  Biso   1.000  C
  C617     1.0000 0.64300  0.94840  0.07600  Biso   1.000  C
  C618     1.0000 0.35700  0.94840  0.92400  Biso   1.000  C
  C619     1.0000 0.35700  0.05160  0.07600  Biso   1.000  C
  C620     1.0000 0.64300  0.05160  0.92400  Biso   1.000  C
  C621     1.0000 0.44840  0.92400  0.85700  Biso   1.000  C
  C622     1.0000 0.44840  0.07600  0.14300  Biso   1.000  C
  C623     1.0000 0.55160  0.92400  0.14300  Biso   1.000  C
  C624     1.0000 0.55160  0.07600  0.85700  Biso   1.000  C
  C625     1.0000 0.14300  0.42400  0.94840  Biso   1.000  C
  C626     1.0000 0.85700  0.57600  0.94840  Biso   1.000  C
  C627     1.0000 0.85700  0.42400  0.05160  Biso   1.000  C
  C628     1.0000 0.14300  0.57600  0.05160  Biso   1.000  C
  C629     1.0000 0.94840  0.64300  0.92400  Biso   1.000  C
  C630     1.0000 0.94840  0.35700  0.07600  Biso   1.000  C
  C631     1.0000 0.05160  0.35700  0.92400  Biso   1.000  C
  C632     1.0000 0.05160  0.64300  0.07600  Biso   1.000  C
  C633     1.0000 0.92400  0.44840  0.14300  Biso   1.000  C
  C634     1.0000 0.07600  0.44840  0.85700  Biso   1.000  C
  C635     1.0000 0.92400  0.55160  0.85700  Biso   1.000  C
  C636     1.0000 0.07600  0.55160  0.14300  Biso   1.000  C
  C637     1.0000 0.92400  0.64300  0.05160  Biso   1.000  C
  C638     1.0000 0.07600  0.35700  0.05160  Biso   1.000  C
  C639     1.0000 0.92400  0.35700  0.94840  Biso   1.000  C
  C640     1.0000 0.07600  0.64300  0.94840  Biso   1.000  C
  C641     1.0000 0.14300  0.44840  0.07600  Biso   1.000  C
  C642     1.0000 0.85700  0.44840  0.92400  Biso   1.000  C
  C643     1.0000 0.85700  0.55160  0.07600  Biso   1.000  C
  C644     1.0000 0.14300  0.55160  0.92400  Biso   1.000  C
  C645     1.0000 0.94840  0.42400  0.85700  Biso   1.000  C
  C646     1.0000 0.94840  0.57600  0.14300  Biso   1.000  C
  C647     1.0000 0.05160  0.42400  0.14300  Biso   1.000  C
  C648     1.0000 0.05160  0.57600  0.85700  Biso   1.000  C
  C649     1.0000 0.14300  0.92400  0.44840  Biso   1.000  C
  C650     1.0000 0.85700  0.07600  0.44840  Biso   1.000  C
  C651     1.0000 0.85700  0.92400  0.55160  Biso   1.000  C
  C652     1.0000 0.14300  0.07600  0.55160  Biso   1.000  C
  C653     1.0000 0.94840  0.14300  0.42400  Biso   1.000  C
  C654     1.0000 0.94840  0.85700  0.57600  Biso   1.000  C
  C655     1.0000 0.05160  0.85700  0.42400  Biso   1.000  C
  C656     1.0000 0.05160  0.14300  0.57600  Biso   1.000  C
  C657     1.0000 0.92400  0.94840  0.64300  Biso   1.000  C
  C658     1.0000 0.07600  0.94840  0.35700  Biso   1.000  C
  C659     1.0000 0.92400  0.05160  0.35700  Biso   1.000  C
  C660     1.0000 0.07600  0.05160  0.64300  Biso   1.000  C
  C661     1.0000 0.92400  0.14300  0.55160  Biso   1.000  C
  C662     1.0000 0.07600  0.85700  0.55160  Biso   1.000  C
  C663     1.0000 0.92400  0.85700  0.44840  Biso   1.000  C
  C664     1.0000 0.07600  0.14300  0.44840  Biso   1.000  C
  C665     1.0000 0.14300  0.94840  0.57600  Biso   1.000  C
  C666     1.0000 0.85700  0.94840  0.42400  Biso   1.000  C
  C667     1.0000 0.85700  0.05160  0.57600  Biso   1.000  C
  C668     1.0000 0.14300  0.05160  0.42400  Biso   1.000  C
  C669     1.0000 0.94840  0.92400  0.35700  Biso   1.000  C
  C670     1.0000 0.94840  0.07600  0.64300  Biso   1.000  C
  C671     1.0000 0.05160  0.92400  0.64300  Biso   1.000  C
  C672     1.0000 0.05160  0.07600  0.35700  Biso   1.000  C
  H97      1.0000 0.35220  0.58860  0.54590  Biso   1.000  H
  H98      1.0000 0.64780  0.41140  0.54590  Biso   1.000  H
  H99      1.0000 0.64780  0.58860  0.45410  Biso   1.000  H
  H100     1.0000 0.35220  0.41140  0.45410  Biso   1.000  H
  H101     1.0000 0.54590  0.35220  0.58860  Biso   1.000  H
  H102     1.0000 0.54590  0.64780  0.41140  Biso   1.000  H
  H103     1.0000 0.45410  0.64780  0.58860  Biso   1.000  H
  H104     1.0000 0.45410  0.35220  0.41140  Biso   1.000  H
  H105     1.0000 0.58860  0.54590  0.35220  Biso   1.000  H
  H106     1.0000 0.41140  0.54590  0.64780  Biso   1.000  H
  H107     1.0000 0.58860  0.45410  0.64780  Biso   1.000  H
  H108     1.0000 0.41140  0.45410  0.35220  Biso   1.000  H
  H109     1.0000 0.58860  0.35220  0.45410  Biso   1.000  H
  H110     1.0000 0.41140  0.64780  0.45410  Biso   1.000  H
  H111     1.0000 0.58860  0.64780  0.54590  Biso   1.000  H
  H112     1.0000 0.41140  0.35220  0.54590  Biso   1.000  H
  H113     1.0000 0.35220  0.54590  0.41140  Biso   1.000  H
  H114     1.0000 0.64780  0.54590  0.58860  Biso   1.000  H
  H115     1.0000 0.64780  0.45410  0.41140  Biso   1.000  H
  H116     1.0000 0.35220  0.45410  0.58860  Biso   1.000  H
  H117     1.0000 0.54590  0.58860  0.64780  Biso   1.000  H
  H118     1.0000 0.54590  0.41140  0.35220  Biso   1.000  H
  H119     1.0000 0.45410  0.58860  0.35220  Biso   1.000  H
  H120     1.0000 0.45410  0.41140  0.64780  Biso   1.000  H
  H121     1.0000 0.35220  0.08860  0.04590  Biso   1.000  H
  H122     1.0000 0.64780  0.91140  0.04590  Biso   1.000  H
  H123     1.0000 0.64780  0.08860  0.95410  Biso   1.000  H
  H124     1.0000 0.35220  0.91140  0.95410  Biso   1.000  H
  H125     1.0000 0.54590  0.85220  0.08860  Biso   1.000  H
  H126     1.0000 0.54590  0.14780  0.91140  Biso   1.000  H
  H127     1.0000 0.45410  0.14780  0.08860  Biso   1.000  H
  H128     1.0000 0.45410  0.85220  0.91140  Biso   1.000  H
  H129     1.0000 0.58860  0.04590  0.85220  Biso   1.000  H
  H130     1.0000 0.41140  0.04590  0.14780  Biso   1.000  H
  H131     1.0000 0.58860  0.95410  0.14780  Biso   1.000  H
  H132     1.0000 0.41140  0.95410  0.85220  Biso   1.000  H
  H133     1.0000 0.58860  0.85220  0.95410  Biso   1.000  H
  H134     1.0000 0.41140  0.14780  0.95410  Biso   1.000  H
  H135     1.0000 0.58860  0.14780  0.04590  Biso   1.000  H
  H136     1.0000 0.41140  0.85220  0.04590  Biso   1.000  H
  H137     1.0000 0.35220  0.04590  0.91140  Biso   1.000  H
  H138     1.0000 0.64780  0.04590  0.08860  Biso   1.000  H
  H139     1.0000 0.64780  0.95410  0.91140  Biso   1.000  H
  H140     1.0000 0.35220  0.95410  0.08860  Biso   1.000  H
  H141     1.0000 0.54590  0.08860  0.14780  Biso   1.000  H
  H142     1.0000 0.54590  0.91140  0.85220  Biso   1.000  H
  H143     1.0000 0.45410  0.08860  0.85220  Biso   1.000  H
  H144     1.0000 0.45410  0.91140  0.14780  Biso   1.000  H
  H145     1.0000 0.85220  0.58860  0.04590  Biso   1.000  H
  H146     1.0000 0.14780  0.41140  0.04590  Biso   1.000  H
  H147     1.0000 0.14780  0.58860  0.95410  Biso   1.000  H
  H148     1.0000 0.85220  0.41140  0.95410  Biso   1.000  H
  H149     1.0000 0.04590  0.35220  0.08860  Biso   1.000  H
  H150     1.0000 0.04590  0.64780  0.91140  Biso   1.000  H
  H151     1.0000 0.95410  0.64780  0.08860  Biso   1.000  H
  H152     1.0000 0.95410  0.35220  0.91140  Biso   1.000  H
  H153     1.0000 0.08860  0.54590  0.85220  Biso   1.000  H
  H154     1.0000 0.91140  0.54590  0.14780  Biso   1.000  H
  H155     1.0000 0.08860  0.45410  0.14780  Biso   1.000  H
  H156     1.0000 0.91140  0.45410  0.85220  Biso   1.000  H
  H157     1.0000 0.08860  0.35220  0.95410  Biso   1.000  H
  H158     1.0000 0.91140  0.64780  0.95410  Biso   1.000  H
  H159     1.0000 0.08860  0.64780  0.04590  Biso   1.000  H
  H160     1.0000 0.91140  0.35220  0.04590  Biso   1.000  H
  H161     1.0000 0.85220  0.54590  0.91140  Biso   1.000  H
  H162     1.0000 0.14780  0.54590  0.08860  Biso   1.000  H
  H163     1.0000 0.14780  0.45410  0.91140  Biso   1.000  H
  H164     1.0000 0.85220  0.45410  0.08860  Biso   1.000  H
  H165     1.0000 0.04590  0.58860  0.14780  Biso   1.000  H
  H166     1.0000 0.04590  0.41140  0.85220  Biso   1.000  H
  H167     1.0000 0.95410  0.58860  0.85220  Biso   1.000  H
  H168     1.0000 0.95410  0.41140  0.14780  Biso   1.000  H
  H169     1.0000 0.85220  0.08860  0.54590  Biso   1.000  H
  H170     1.0000 0.14780  0.91140  0.54590  Biso   1.000  H
  H171     1.0000 0.14780  0.08860  0.45410  Biso   1.000  H
  H172     1.0000 0.85220  0.91140  0.45410  Biso   1.000  H
  H173     1.0000 0.04590  0.85220  0.58860  Biso   1.000  H
  H174     1.0000 0.04590  0.14780  0.41140  Biso   1.000  H
  H175     1.0000 0.95410  0.14780  0.58860  Biso   1.000  H
  H176     1.0000 0.95410  0.85220  0.41140  Biso   1.000  H
  H177     1.0000 0.08860  0.04590  0.35220  Biso   1.000  H
  H178     1.0000 0.91140  0.04590  0.64780  Biso   1.000  H
  H179     1.0000 0.08860  0.95410  0.64780  Biso   1.000  H
  H180     1.0000 0.91140  0.95410  0.35220  Biso   1.000  H
  H181     1.0000 0.08860  0.85220  0.45410  Biso   1.000  H
  H182     1.0000 0.91140  0.14780  0.45410  Biso   1.000  H
  H183     1.0000 0.08860  0.14780  0.54590  Biso   1.000  H
  H184     1.0000 0.91140  0.85220  0.54590  Biso   1.000  H
  H185     1.0000 0.85220  0.04590  0.41140  Biso   1.000  H
  H186     1.0000 0.14780  0.04590  0.58860  Biso   1.000  H
  H187     1.0000 0.14780  0.95410  0.41140  Biso   1.000  H
  H188     1.0000 0.85220  0.95410  0.58860  Biso   1.000  H
  H189     1.0000 0.04590  0.08860  0.64780  Biso   1.000  H
  H190     1.0000 0.04590  0.91140  0.35220  Biso   1.000  H
  H191     1.0000 0.95410  0.08860  0.35220  Biso   1.000  H
  H192     1.0000 0.95410  0.91140  0.64780  Biso   1.000  H
  H193     1.0000 0.64780  0.41140  0.45410  Biso   1.000  H
  H194     1.0000 0.35220  0.58860  0.45410  Biso   1.000  H
  H195     1.0000 0.35220  0.41140  0.54590  Biso   1.000  H
  H196     1.0000 0.64780  0.58860  0.54590  Biso   1.000  H
  H197     1.0000 0.45410  0.64780  0.41140  Biso   1.000  H
  H198     1.0000 0.45410  0.35220  0.58860  Biso   1.000  H
  H199     1.0000 0.54590  0.35220  0.41140  Biso   1.000  H
  H200     1.0000 0.54590  0.64780  0.58860  Biso   1.000  H
  H201     1.0000 0.41140  0.45410  0.64780  Biso   1.000  H
  H202     1.0000 0.58860  0.45410  0.35220  Biso   1.000  H
  H203     1.0000 0.41140  0.54590  0.35220  Biso   1.000  H
  H204     1.0000 0.58860  0.54590  0.64780  Biso   1.000  H
  H205     1.0000 0.41140  0.64780  0.54590  Biso   1.000  H
  H206     1.0000 0.58860  0.35220  0.54590  Biso   1.000  H
  H207     1.0000 0.41140  0.35220  0.45410  Biso   1.000  H
  H208     1.0000 0.58860  0.64780  0.45410  Biso   1.000  H
  H209     1.0000 0.64780  0.45410  0.58860  Biso   1.000  H
  H210     1.0000 0.35220  0.45410  0.41140  Biso   1.000  H
  H211     1.0000 0.35220  0.54590  0.58860  Biso   1.000  H
  H212     1.0000 0.64780  0.54590  0.41140  Biso   1.000  H
  H213     1.0000 0.45410  0.41140  0.35220  Biso   1.000  H
  H214     1.0000 0.45410  0.58860  0.64780  Biso   1.000  H
  H215     1.0000 0.54590  0.41140  0.64780  Biso   1.000  H
  H216     1.0000 0.54590  0.58860  0.35220  Biso   1.000  H
  H217     1.0000 0.64780  0.91140  0.95410  Biso   1.000  H
  H218     1.0000 0.35220  0.08860  0.95410  Biso   1.000  H
  H219     1.0000 0.35220  0.91140  0.04590  Biso   1.000  H
  H220     1.0000 0.64780  0.08860  0.04590  Biso   1.000  H
  H221     1.0000 0.45410  0.14780  0.91140  Biso   1.000  H
  H222     1.0000 0.45410  0.85220  0.08860  Biso   1.000  H
  H223     1.0000 0.54590  0.85220  0.91140  Biso   1.000  H
  H224     1.0000 0.54590  0.14780  0.08860  Biso   1.000  H
  H225     1.0000 0.41140  0.95410  0.14780  Biso   1.000  H
  H226     1.0000 0.58860  0.95410  0.85220  Biso   1.000  H
  H227     1.0000 0.41140  0.04590  0.85220  Biso   1.000  H
  H228     1.0000 0.58860  0.04590  0.14780  Biso   1.000  H
  H229     1.0000 0.41140  0.14780  0.04590  Biso   1.000  H
  H230     1.0000 0.58860  0.85220  0.04590  Biso   1.000  H
  H231     1.0000 0.41140  0.85220  0.95410  Biso   1.000  H
  H232     1.0000 0.58860  0.14780  0.95410  Biso   1.000  H
  H233     1.0000 0.64780  0.95410  0.08860  Biso   1.000  H
  H234     1.0000 0.35220  0.95410  0.91140  Biso   1.000  H
  H235     1.0000 0.35220  0.04590  0.08860  Biso   1.000  H
  H236     1.0000 0.64780  0.04590  0.91140  Biso   1.000  H
  H237     1.0000 0.45410  0.91140  0.85220  Biso   1.000  H
  H238     1.0000 0.45410  0.08860  0.14780  Biso   1.000  H
  H239     1.0000 0.54590  0.91140  0.14780  Biso   1.000  H
  H240     1.0000 0.54590  0.08860  0.85220  Biso   1.000  H
  H241     1.0000 0.14780  0.41140  0.95410  Biso   1.000  H
  H242     1.0000 0.85220  0.58860  0.95410  Biso   1.000  H
  H243     1.0000 0.85220  0.41140  0.04590  Biso   1.000  H
  H244     1.0000 0.14780  0.58860  0.04590  Biso   1.000  H
  H245     1.0000 0.95410  0.64780  0.91140  Biso   1.000  H
  H246     1.0000 0.95410  0.35220  0.08860  Biso   1.000  H
  H247     1.0000 0.04590  0.35220  0.91140  Biso   1.000  H
  H248     1.0000 0.04590  0.64780  0.08860  Biso   1.000  H
  H249     1.0000 0.91140  0.45410  0.14780  Biso   1.000  H
  H250     1.0000 0.08860  0.45410  0.85220  Biso   1.000  H
  H251     1.0000 0.91140  0.54590  0.85220  Biso   1.000  H
  H252     1.0000 0.08860  0.54590  0.14780  Biso   1.000  H
  H253     1.0000 0.91140  0.64780  0.04590  Biso   1.000  H
  H254     1.0000 0.08860  0.35220  0.04590  Biso   1.000  H
  H255     1.0000 0.91140  0.35220  0.95410  Biso   1.000  H
  H256     1.0000 0.08860  0.64780  0.95410  Biso   1.000  H
  H257     1.0000 0.14780  0.45410  0.08860  Biso   1.000  H
  H258     1.0000 0.85220  0.45410  0.91140  Biso   1.000  H
  H259     1.0000 0.85220  0.54590  0.08860  Biso   1.000  H
  H260     1.0000 0.14780  0.54590  0.91140  Biso   1.000  H
  H261     1.0000 0.95410  0.41140  0.85220  Biso   1.000  H
  H262     1.0000 0.95410  0.58860  0.14780  Biso   1.000  H
  H263     1.0000 0.04590  0.41140  0.14780  Biso   1.000  H
  H264     1.0000 0.04590  0.58860  0.85220  Biso   1.000  H
  H265     1.0000 0.14780  0.91140  0.45410  Biso   1.000  H
  H266     1.0000 0.85220  0.08860  0.45410  Biso   1.000  H
  H267     1.0000 0.85220  0.91140  0.54590  Biso   1.000  H
  H268     1.0000 0.14780  0.08860  0.54590  Biso   1.000  H
  H269     1.0000 0.95410  0.14780  0.41140  Biso   1.000  H
  H270     1.0000 0.95410  0.85220  0.58860  Biso   1.000  H
  H271     1.0000 0.04590  0.85220  0.41140  Biso   1.000  H
  H272     1.0000 0.04590  0.14780  0.58860  Biso   1.000  H
  H273     1.0000 0.91140  0.95410  0.64780  Biso   1.000  H
  H274     1.0000 0.08860  0.95410  0.35220  Biso   1.000  H
  H275     1.0000 0.91140  0.04590  0.35220  Biso   1.000  H
  H276     1.0000 0.08860  0.04590  0.64780  Biso   1.000  H
  H277     1.0000 0.91140  0.14780  0.54590  Biso   1.000  H
  H278     1.0000 0.08860  0.85220  0.54590  Biso   1.000  H
  H279     1.0000 0.91140  0.85220  0.45410  Biso   1.000  H
  H280     1.0000 0.08860  0.14780  0.45410  Biso   1.000  H
  H281     1.0000 0.14780  0.95410  0.58860  Biso   1.000  H
  H282     1.0000 0.85220  0.95410  0.41140  Biso   1.000  H
  H283     1.0000 0.85220  0.04590  0.58860  Biso   1.000  H
  H284     1.0000 0.14780  0.04590  0.41140  Biso   1.000  H
  H285     1.0000 0.95410  0.91140  0.35220  Biso   1.000  H
  H286     1.0000 0.95410  0.08860  0.64780  Biso   1.000  H
  H287     1.0000 0.04590  0.91140  0.64780  Biso   1.000  H
  H288     1.0000 0.04590  0.08860  0.35220  Biso   1.000  H
  C673     1.0000 0.34700  0.56700  0.56700  Biso   1.000  C
  C674     1.0000 0.65300  0.43300  0.56700  Biso   1.000  C
  C675     1.0000 0.65300  0.56700  0.43300  Biso   1.000  C
  C676     1.0000 0.34700  0.43300  0.43300  Biso   1.000  C
  C677     1.0000 0.56700  0.34700  0.56700  Biso   1.000  C
  C678     1.0000 0.56700  0.65300  0.43300  Biso   1.000  C
  C679     1.0000 0.43300  0.65300  0.56700  Biso   1.000  C
  C680     1.0000 0.43300  0.34700  0.43300  Biso   1.000  C
  C681     1.0000 0.56700  0.56700  0.34700  Biso   1.000  C
  C682     1.0000 0.43300  0.56700  0.65300  Biso   1.000  C
  C683     1.0000 0.56700  0.43300  0.65300  Biso   1.000  C
  C684     1.0000 0.43300  0.43300  0.34700  Biso   1.000  C
  C685     1.0000 0.56700  0.34700  0.43300  Biso   1.000  C
  C686     1.0000 0.43300  0.65300  0.43300  Biso   1.000  C
  C687     1.0000 0.56700  0.65300  0.56700  Biso   1.000  C
  C688     1.0000 0.43300  0.34700  0.56700  Biso   1.000  C
  C689     1.0000 0.34700  0.56700  0.43300  Biso   1.000  C
  C690     1.0000 0.65300  0.56700  0.56700  Biso   1.000  C
  C691     1.0000 0.65300  0.43300  0.43300  Biso   1.000  C
  C692     1.0000 0.34700  0.43300  0.56700  Biso   1.000  C
  C693     1.0000 0.56700  0.56700  0.65300  Biso   1.000  C
  C694     1.0000 0.56700  0.43300  0.34700  Biso   1.000  C
  C695     1.0000 0.43300  0.56700  0.34700  Biso   1.000  C
  C696     1.0000 0.43300  0.43300  0.65300  Biso   1.000  C
  C697     1.0000 0.34700  0.06700  0.06700  Biso   1.000  C
  C698     1.0000 0.65300  0.93300  0.06700  Biso   1.000  C
  C699     1.0000 0.65300  0.06700  0.93300  Biso   1.000  C
  C700     1.0000 0.34700  0.93300  0.93300  Biso   1.000  C
  C701     1.0000 0.56700  0.84700  0.06700  Biso   1.000  C
  C702     1.0000 0.56700  0.15300  0.93300  Biso   1.000  C
  C703     1.0000 0.43300  0.15300  0.06700  Biso   1.000  C
  C704     1.0000 0.43300  0.84700  0.93300  Biso   1.000  C
  C705     1.0000 0.56700  0.06700  0.84700  Biso   1.000  C
  C706     1.0000 0.43300  0.06700  0.15300  Biso   1.000  C
  C707     1.0000 0.56700  0.93300  0.15300  Biso   1.000  C
  C708     1.0000 0.43300  0.93300  0.84700  Biso   1.000  C
  C709     1.0000 0.56700  0.84700  0.93300  Biso   1.000  C
  C710     1.0000 0.43300  0.15300  0.93300  Biso   1.000  C
  C711     1.0000 0.56700  0.15300  0.06700  Biso   1.000  C
  C712     1.0000 0.43300  0.84700  0.06700  Biso   1.000  C
  C713     1.0000 0.34700  0.06700  0.93300  Biso   1.000  C
  C714     1.0000 0.65300  0.06700  0.06700  Biso   1.000  C
  C715     1.0000 0.65300  0.93300  0.93300  Biso   1.000  C
  C716     1.0000 0.34700  0.93300  0.06700  Biso   1.000  C
  C717     1.0000 0.56700  0.06700  0.15300  Biso   1.000  C
  C718     1.0000 0.56700  0.93300  0.84700  Biso   1.000  C
  C719     1.0000 0.43300  0.06700  0.84700  Biso   1.000  C
  C720     1.0000 0.43300  0.93300  0.15300  Biso   1.000  C
  C721     1.0000 0.84700  0.56700  0.06700  Biso   1.000  C
  C722     1.0000 0.15300  0.43300  0.06700  Biso   1.000  C
  C723     1.0000 0.15300  0.56700  0.93300  Biso   1.000  C
  C724     1.0000 0.84700  0.43300  0.93300  Biso   1.000  C
  C725     1.0000 0.06700  0.34700  0.06700  Biso   1.000  C
  C726     1.0000 0.06700  0.65300  0.93300  Biso   1.000  C
  C727     1.0000 0.93300  0.65300  0.06700  Biso   1.000  C
  C728     1.0000 0.93300  0.34700  0.93300  Biso   1.000  C
  C729     1.0000 0.06700  0.56700  0.84700  Biso   1.000  C
  C730     1.0000 0.93300  0.56700  0.15300  Biso   1.000  C
  C731     1.0000 0.06700  0.43300  0.15300  Biso   1.000  C
  C732     1.0000 0.93300  0.43300  0.84700  Biso   1.000  C
  C733     1.0000 0.06700  0.34700  0.93300  Biso   1.000  C
  C734     1.0000 0.93300  0.65300  0.93300  Biso   1.000  C
  C735     1.0000 0.06700  0.65300  0.06700  Biso   1.000  C
  C736     1.0000 0.93300  0.34700  0.06700  Biso   1.000  C
  C737     1.0000 0.84700  0.56700  0.93300  Biso   1.000  C
  C738     1.0000 0.15300  0.56700  0.06700  Biso   1.000  C
  C739     1.0000 0.15300  0.43300  0.93300  Biso   1.000  C
  C740     1.0000 0.84700  0.43300  0.06700  Biso   1.000  C
  C741     1.0000 0.06700  0.56700  0.15300  Biso   1.000  C
  C742     1.0000 0.06700  0.43300  0.84700  Biso   1.000  C
  C743     1.0000 0.93300  0.56700  0.84700  Biso   1.000  C
  C744     1.0000 0.93300  0.43300  0.15300  Biso   1.000  C
  C745     1.0000 0.84700  0.06700  0.56700  Biso   1.000  C
  C746     1.0000 0.15300  0.93300  0.56700  Biso   1.000  C
  C747     1.0000 0.15300  0.06700  0.43300  Biso   1.000  C
  C748     1.0000 0.84700  0.93300  0.43300  Biso   1.000  C
  C749     1.0000 0.06700  0.84700  0.56700  Biso   1.000  C
  C750     1.0000 0.06700  0.15300  0.43300  Biso   1.000  C
  C751     1.0000 0.93300  0.15300  0.56700  Biso   1.000  C
  C752     1.0000 0.93300  0.84700  0.43300  Biso   1.000  C
  C753     1.0000 0.06700  0.06700  0.34700  Biso   1.000  C
  C754     1.0000 0.93300  0.06700  0.65300  Biso   1.000  C
  C755     1.0000 0.06700  0.93300  0.65300  Biso   1.000  C
  C756     1.0000 0.93300  0.93300  0.34700  Biso   1.000  C
  C757     1.0000 0.06700  0.84700  0.43300  Biso   1.000  C
  C758     1.0000 0.93300  0.15300  0.43300  Biso   1.000  C
  C759     1.0000 0.06700  0.15300  0.56700  Biso   1.000  C
  C760     1.0000 0.93300  0.84700  0.56700  Biso   1.000  C
  C761     1.0000 0.84700  0.06700  0.43300  Biso   1.000  C
  C762     1.0000 0.15300  0.06700  0.56700  Biso   1.000  C
  C763     1.0000 0.15300  0.93300  0.43300  Biso   1.000  C
  C764     1.0000 0.84700  0.93300  0.56700  Biso   1.000  C
  C765     1.0000 0.06700  0.06700  0.65300  Biso   1.000  C
  C766     1.0000 0.06700  0.93300  0.34700  Biso   1.000  C
  C767     1.0000 0.93300  0.06700  0.34700  Biso   1.000  C
  C768     1.0000 0.93300  0.93300  0.65300  Biso   1.000  C
  C769     1.0000 0.32800  0.57500  0.57500  Biso   1.000  C
  C770     1.0000 0.67200  0.42500  0.57500  Biso   1.000  C
  C771     1.0000 0.67200  0.57500  0.42500  Biso   1.000  C
  C772     1.0000 0.32800  0.42500  0.42500  Biso   1.000  C
  C773     1.0000 0.57500  0.32800  0.57500  Biso   1.000  C
  C774     1.0000 0.57500  0.67200  0.42500  Biso   1.000  C
  C775     1.0000 0.42500  0.67200  0.57500  Biso   1.000  C
  C776     1.0000 0.42500  0.32800  0.42500  Biso   1.000  C
  C777     1.0000 0.57500  0.57500  0.32800  Biso   1.000  C
  C778     1.0000 0.42500  0.57500  0.67200  Biso   1.000  C
  C779     1.0000 0.57500  0.42500  0.67200  Biso   1.000  C
  C780     1.0000 0.42500  0.42500  0.32800  Biso   1.000  C
  C781     1.0000 0.57500  0.32800  0.42500  Biso   1.000  C
  C782     1.0000 0.42500  0.67200  0.42500  Biso   1.000  C
  C783     1.0000 0.57500  0.67200  0.57500  Biso   1.000  C
  C784     1.0000 0.42500  0.32800  0.57500  Biso   1.000  C
  C785     1.0000 0.32800  0.57500  0.42500  Biso   1.000  C
  C786     1.0000 0.67200  0.57500  0.57500  Biso   1.000  C
  C787     1.0000 0.67200  0.42500  0.42500  Biso   1.000  C
  C788     1.0000 0.32800  0.42500  0.57500  Biso   1.000  C
  C789     1.0000 0.57500  0.57500  0.67200  Biso   1.000  C
  C790     1.0000 0.57500  0.42500  0.32800  Biso   1.000  C
  C791     1.0000 0.42500  0.57500  0.32800  Biso   1.000  C
  C792     1.0000 0.42500  0.42500  0.67200  Biso   1.000  C
  C793     1.0000 0.32800  0.07500  0.07500  Biso   1.000  C
  C794     1.0000 0.67200  0.92500  0.07500  Biso   1.000  C
  C795     1.0000 0.67200  0.07500  0.92500  Biso   1.000  C
  C796     1.0000 0.32800  0.92500  0.92500  Biso   1.000  C
  C797     1.0000 0.57500  0.82800  0.07500  Biso   1.000  C
  C798     1.0000 0.57500  0.17200  0.92500  Biso   1.000  C
  C799     1.0000 0.42500  0.17200  0.07500  Biso   1.000  C
  C800     1.0000 0.42500  0.82800  0.92500  Biso   1.000  C
  C801     1.0000 0.57500  0.07500  0.82800  Biso   1.000  C
  C802     1.0000 0.42500  0.07500  0.17200  Biso   1.000  C
  C803     1.0000 0.57500  0.92500  0.17200  Biso   1.000  C
  C804     1.0000 0.42500  0.92500  0.82800  Biso   1.000  C
  C805     1.0000 0.57500  0.82800  0.92500  Biso   1.000  C
  C806     1.0000 0.42500  0.17200  0.92500  Biso   1.000  C
  C807     1.0000 0.57500  0.17200  0.07500  Biso   1.000  C
  C808     1.0000 0.42500  0.82800  0.07500  Biso   1.000  C
  C809     1.0000 0.32800  0.07500  0.92500  Biso   1.000  C
  C810     1.0000 0.67200  0.07500  0.07500  Biso   1.000  C
  C811     1.0000 0.67200  0.92500  0.92500  Biso   1.000  C
  C812     1.0000 0.32800  0.92500  0.07500  Biso   1.000  C
  C813     1.0000 0.57500  0.07500  0.17200  Biso   1.000  C
  C814     1.0000 0.57500  0.92500  0.82800  Biso   1.000  C
  C815     1.0000 0.42500  0.07500  0.82800  Biso   1.000  C
  C816     1.0000 0.42500  0.92500  0.17200  Biso   1.000  C
  C817     1.0000 0.82800  0.57500  0.07500  Biso   1.000  C
  C818     1.0000 0.17200  0.42500  0.07500  Biso   1.000  C
  C819     1.0000 0.17200  0.57500  0.92500  Biso   1.000  C
  C820     1.0000 0.82800  0.42500  0.92500  Biso   1.000  C
  C821     1.0000 0.07500  0.32800  0.07500  Biso   1.000  C
  C822     1.0000 0.07500  0.67200  0.92500  Biso   1.000  C
  C823     1.0000 0.92500  0.67200  0.07500  Biso   1.000  C
  C824     1.0000 0.92500  0.32800  0.92500  Biso   1.000  C
  C825     1.0000 0.07500  0.57500  0.82800  Biso   1.000  C
  C826     1.0000 0.92500  0.57500  0.17200  Biso   1.000  C
  C827     1.0000 0.07500  0.42500  0.17200  Biso   1.000  C
  C828     1.0000 0.92500  0.42500  0.82800  Biso   1.000  C
  C829     1.0000 0.07500  0.32800  0.92500  Biso   1.000  C
  C830     1.0000 0.92500  0.67200  0.92500  Biso   1.000  C
  C831     1.0000 0.07500  0.67200  0.07500  Biso   1.000  C
  C832     1.0000 0.92500  0.32800  0.07500  Biso   1.000  C
  C833     1.0000 0.82800  0.57500  0.92500  Biso   1.000  C
  C834     1.0000 0.17200  0.57500  0.07500  Biso   1.000  C
  C835     1.0000 0.17200  0.42500  0.92500  Biso   1.000  C
  C836     1.0000 0.82800  0.42500  0.07500  Biso   1.000  C
  C837     1.0000 0.07500  0.57500  0.17200  Biso   1.000  C
  C838     1.0000 0.07500  0.42500  0.82800  Biso   1.000  C
  C839     1.0000 0.92500  0.57500  0.82800  Biso   1.000  C
  C840     1.0000 0.92500  0.42500  0.17200  Biso   1.000  C
  C841     1.0000 0.82800  0.07500  0.57500  Biso   1.000  C
  C842     1.0000 0.17200  0.92500  0.57500  Biso   1.000  C
  C843     1.0000 0.17200  0.07500  0.42500  Biso   1.000  C
  C844     1.0000 0.82800  0.92500  0.42500  Biso   1.000  C
  C845     1.0000 0.07500  0.82800  0.57500  Biso   1.000  C
  C846     1.0000 0.07500  0.17200  0.42500  Biso   1.000  C
  C847     1.0000 0.92500  0.17200  0.57500  Biso   1.000  C
  C848     1.0000 0.92500  0.82800  0.42500  Biso   1.000  C
  C849     1.0000 0.07500  0.07500  0.32800  Biso   1.000  C
  C850     1.0000 0.92500  0.07500  0.67200  Biso   1.000  C
  C851     1.0000 0.07500  0.92500  0.67200  Biso   1.000  C
  C852     1.0000 0.92500  0.92500  0.32800  Biso   1.000  C
  C853     1.0000 0.07500  0.82800  0.42500  Biso   1.000  C
  C854     1.0000 0.92500  0.17200  0.42500  Biso   1.000  C
  C855     1.0000 0.07500  0.17200  0.57500  Biso   1.000  C
  C856     1.0000 0.92500  0.82800  0.57500  Biso   1.000  C
  C857     1.0000 0.82800  0.07500  0.42500  Biso   1.000  C
  C858     1.0000 0.17200  0.07500  0.57500  Biso   1.000  C
  C859     1.0000 0.17200  0.92500  0.42500  Biso   1.000  C
  C860     1.0000 0.82800  0.92500  0.57500  Biso   1.000  C
  C861     1.0000 0.07500  0.07500  0.67200  Biso   1.000  C
  C862     1.0000 0.07500  0.92500  0.32800  Biso   1.000  C
  C863     1.0000 0.92500  0.07500  0.32800  Biso   1.000  C
  C864     1.0000 0.92500  0.92500  0.67200  Biso   1.000  C
  C865     1.0000 0.31300  0.58200  0.58200  Biso   1.000  C
  C866     1.0000 0.68700  0.41800  0.58200  Biso   1.000  C
  C867     1.0000 0.68700  0.58200  0.41800  Biso   1.000  C
  C868     1.0000 0.31300  0.41800  0.41800  Biso   1.000  C
  C869     1.0000 0.58200  0.31300  0.58200  Biso   1.000  C
  C870     1.0000 0.58200  0.68700  0.41800  Biso   1.000  C
  C871     1.0000 0.41800  0.68700  0.58200  Biso   1.000  C
  C872     1.0000 0.41800  0.31300  0.41800  Biso   1.000  C
  C873     1.0000 0.58200  0.58200  0.31300  Biso   1.000  C
  C874     1.0000 0.41800  0.58200  0.68700  Biso   1.000  C
  C875     1.0000 0.58200  0.41800  0.68700  Biso   1.000  C
  C876     1.0000 0.41800  0.41800  0.31300  Biso   1.000  C
  C877     1.0000 0.58200  0.31300  0.41800  Biso   1.000  C
  C878     1.0000 0.41800  0.68700  0.41800  Biso   1.000  C
  C879     1.0000 0.58200  0.68700  0.58200  Biso   1.000  C
  C880     1.0000 0.41800  0.31300  0.58200  Biso   1.000  C
  C881     1.0000 0.31300  0.58200  0.41800  Biso   1.000  C
  C882     1.0000 0.68700  0.58200  0.58200  Biso   1.000  C
  C883     1.0000 0.68700  0.41800  0.41800  Biso   1.000  C
  C884     1.0000 0.31300  0.41800  0.58200  Biso   1.000  C
  C885     1.0000 0.58200  0.58200  0.68700  Biso   1.000  C
  C886     1.0000 0.58200  0.41800  0.31300  Biso   1.000  C
  C887     1.0000 0.41800  0.58200  0.31300  Biso   1.000  C
  C888     1.0000 0.41800  0.41800  0.68700  Biso   1.000  C
  C889     1.0000 0.31300  0.08200  0.08200  Biso   1.000  C
  C890     1.0000 0.68700  0.91800  0.08200  Biso   1.000  C
  C891     1.0000 0.68700  0.08200  0.91800  Biso   1.000  C
  C892     1.0000 0.31300  0.91800  0.91800  Biso   1.000  C
  C893     1.0000 0.58200  0.81300  0.08200  Biso   1.000  C
  C894     1.0000 0.58200  0.18700  0.91800  Biso   1.000  C
  C895     1.0000 0.41800  0.18700  0.08200  Biso   1.000  C
  C896     1.0000 0.41800  0.81300  0.91800  Biso   1.000  C
  C897     1.0000 0.58200  0.08200  0.81300  Biso   1.000  C
  C898     1.0000 0.41800  0.08200  0.18700  Biso   1.000  C
  C899     1.0000 0.58200  0.91800  0.18700  Biso   1.000  C
  C900     1.0000 0.41800  0.91800  0.81300  Biso   1.000  C
  C901     1.0000 0.58200  0.81300  0.91800  Biso   1.000  C
  C902     1.0000 0.41800  0.18700  0.91800  Biso   1.000  C
  C903     1.0000 0.58200  0.18700  0.08200  Biso   1.000  C
  C904     1.0000 0.41800  0.81300  0.08200  Biso   1.000  C
  C905     1.0000 0.31300  0.08200  0.91800  Biso   1.000  C
  C906     1.0000 0.68700  0.08200  0.08200  Biso   1.000  C
  C907     1.0000 0.68700  0.91800  0.91800  Biso   1.000  C
  C908     1.0000 0.31300  0.91800  0.08200  Biso   1.000  C
  C909     1.0000 0.58200  0.08200  0.18700  Biso   1.000  C
  C910     1.0000 0.58200  0.91800  0.81300  Biso   1.000  C
  C911     1.0000 0.41800  0.08200  0.81300  Biso   1.000  C
  C912     1.0000 0.41800  0.91800  0.18700  Biso   1.000  C
  C913     1.0000 0.81300  0.58200  0.08200  Biso   1.000  C
  C914     1.0000 0.18700  0.41800  0.08200  Biso   1.000  C
  C915     1.0000 0.18700  0.58200  0.91800  Biso   1.000  C
  C916     1.0000 0.81300  0.41800  0.91800  Biso   1.000  C
  C917     1.0000 0.08200  0.31300  0.08200  Biso   1.000  C
  C918     1.0000 0.08200  0.68700  0.91800  Biso   1.000  C
  C919     1.0000 0.91800  0.68700  0.08200  Biso   1.000  C
  C920     1.0000 0.91800  0.31300  0.91800  Biso   1.000  C
  C921     1.0000 0.08200  0.58200  0.81300  Biso   1.000  C
  C922     1.0000 0.91800  0.58200  0.18700  Biso   1.000  C
  C923     1.0000 0.08200  0.41800  0.18700  Biso   1.000  C
  C924     1.0000 0.91800  0.41800  0.81300  Biso   1.000  C
  C925     1.0000 0.08200  0.31300  0.91800  Biso   1.000  C
  C926     1.0000 0.91800  0.68700  0.91800  Biso   1.000  C
  C927     1.0000 0.08200  0.68700  0.08200  Biso   1.000  C
  C928     1.0000 0.91800  0.31300  0.08200  Biso   1.000  C
  C929     1.0000 0.81300  0.58200  0.91800  Biso   1.000  C
  C930     1.0000 0.18700  0.58200  0.08200  Biso   1.000  C
  C931     1.0000 0.18700  0.41800  0.91800  Biso   1.000  C
  C932     1.0000 0.81300  0.41800  0.08200  Biso   1.000  C
  C933     1.0000 0.08200  0.58200  0.18700  Biso   1.000  C
  C934     1.0000 0.08200  0.41800  0.81300  Biso   1.000  C
  C935     1.0000 0.91800  0.58200  0.81300  Biso   1.000  C
  C936     1.0000 0.91800  0.41800  0.18700  Biso   1.000  C
  C937     1.0000 0.81300  0.08200  0.58200  Biso   1.000  C
  C938     1.0000 0.18700  0.91800  0.58200  Biso   1.000  C
  C939     1.0000 0.18700  0.08200  0.41800  Biso   1.000  C
  C940     1.0000 0.81300  0.91800  0.41800  Biso   1.000  C
  C941     1.0000 0.08200  0.81300  0.58200  Biso   1.000  C
  C942     1.0000 0.08200  0.18700  0.41800  Biso   1.000  C
  C943     1.0000 0.91800  0.18700  0.58200  Biso   1.000  C
  C944     1.0000 0.91800  0.81300  0.41800  Biso   1.000  C
  C945     1.0000 0.08200  0.08200  0.31300  Biso   1.000  C
  C946     1.0000 0.91800  0.08200  0.68700  Biso   1.000  C
  C947     1.0000 0.08200  0.91800  0.68700  Biso   1.000  C
  C948     1.0000 0.91800  0.91800  0.31300  Biso   1.000  C
  C949     1.0000 0.08200  0.81300  0.41800  Biso   1.000  C
  C950     1.0000 0.91800  0.18700  0.41800  Biso   1.000  C
  C951     1.0000 0.08200  0.18700  0.58200  Biso   1.000  C
  C952     1.0000 0.91800  0.81300  0.58200  Biso   1.000  C
  C953     1.0000 0.81300  0.08200  0.41800  Biso   1.000  C
  C954     1.0000 0.18700  0.08200  0.58200  Biso   1.000  C
  C955     1.0000 0.18700  0.91800  0.41800  Biso   1.000  C
  C956     1.0000 0.81300  0.91800  0.58200  Biso   1.000  C
  C957     1.0000 0.08200  0.08200  0.68700  Biso   1.000  C
  C958     1.0000 0.08200  0.91800  0.31300  Biso   1.000  C
  C959     1.0000 0.91800  0.08200  0.31300  Biso   1.000  C
  C960     1.0000 0.91800  0.91800  0.68700  Biso   1.000  C
  C961     1.0000 0.29500  0.59000  0.59000  Biso   1.000  C
  C962     1.0000 0.70500  0.41000  0.59000  Biso   1.000  C
  C963     1.0000 0.70500  0.59000  0.41000  Biso   1.000  C
  C964     1.0000 0.29500  0.41000  0.41000  Biso   1.000  C
  C965     1.0000 0.59000  0.29500  0.59000  Biso   1.000  C
  C966     1.0000 0.59000  0.70500  0.41000  Biso   1.000  C
  C967     1.0000 0.41000  0.70500  0.59000  Biso   1.000  C
  C968     1.0000 0.41000  0.29500  0.41000  Biso   1.000  C
  C969     1.0000 0.59000  0.59000  0.29500  Biso   1.000  C
  C970     1.0000 0.41000  0.59000  0.70500  Biso   1.000  C
  C971     1.0000 0.59000  0.41000  0.70500  Biso   1.000  C
  C972     1.0000 0.41000  0.41000  0.29500  Biso   1.000  C
  C973     1.0000 0.59000  0.29500  0.41000  Biso   1.000  C
  C974     1.0000 0.41000  0.70500  0.41000  Biso   1.000  C
  C975     1.0000 0.59000  0.70500  0.59000  Biso   1.000  C
  C976     1.0000 0.41000  0.29500  0.59000  Biso   1.000  C
  C977     1.0000 0.29500  0.59000  0.41000  Biso   1.000  C
  C978     1.0000 0.70500  0.59000  0.59000  Biso   1.000  C
  C979     1.0000 0.70500  0.41000  0.41000  Biso   1.000  C
  C980     1.0000 0.29500  0.41000  0.59000  Biso   1.000  C
  C981     1.0000 0.59000  0.59000  0.70500  Biso   1.000  C
  C982     1.0000 0.59000  0.41000  0.29500  Biso   1.000  C
  C983     1.0000 0.41000  0.59000  0.29500  Biso   1.000  C
  C984     1.0000 0.41000  0.41000  0.70500  Biso   1.000  C
  C985     1.0000 0.29500  0.09000  0.09000  Biso   1.000  C
  C986     1.0000 0.70500  0.91000  0.09000  Biso   1.000  C
  C987     1.0000 0.70500  0.09000  0.91000  Biso   1.000  C
  C988     1.0000 0.29500  0.91000  0.91000  Biso   1.000  C
  C989     1.0000 0.59000  0.79500  0.09000  Biso   1.000  C
  C990     1.0000 0.59000  0.20500  0.91000  Biso   1.000  C
  C991     1.0000 0.41000  0.20500  0.09000  Biso   1.000  C
  C992     1.0000 0.41000  0.79500  0.91000  Biso   1.000  C
  C993     1.0000 0.59000  0.09000  0.79500  Biso   1.000  C
  C994     1.0000 0.41000  0.09000  0.20500  Biso   1.000  C
  C995     1.0000 0.59000  0.91000  0.20500  Biso   1.000  C
  C996     1.0000 0.41000  0.91000  0.79500  Biso   1.000  C
  C997     1.0000 0.59000  0.79500  0.91000  Biso   1.000  C
  C998     1.0000 0.41000  0.20500  0.91000  Biso   1.000  C
  C999     1.0000 0.59000  0.20500  0.09000  Biso   1.000  C
  C1000    1.0000 0.41000  0.79500  0.09000  Biso   1.000  C
  C1001    1.0000 0.29500  0.09000  0.91000  Biso   1.000  C
  C1002    1.0000 0.70500  0.09000  0.09000  Biso   1.000  C
  C1003    1.0000 0.70500  0.91000  0.91000  Biso   1.000  C
  C1004    1.0000 0.29500  0.91000  0.09000  Biso   1.000  C
  C1005    1.0000 0.59000  0.09000  0.20500  Biso   1.000  C
  C1006    1.0000 0.59000  0.91000  0.79500  Biso   1.000  C
  C1007    1.0000 0.41000  0.09000  0.79500  Biso   1.000  C
  C1008    1.0000 0.41000  0.91000  0.20500  Biso   1.000  C
  C1009    1.0000 0.79500  0.59000  0.09000  Biso   1.000  C
  C1010    1.0000 0.20500  0.41000  0.09000  Biso   1.000  C
  C1011    1.0000 0.20500  0.59000  0.91000  Biso   1.000  C
  C1012    1.0000 0.79500  0.41000  0.91000  Biso   1.000  C
  C1013    1.0000 0.09000  0.29500  0.09000  Biso   1.000  C
  C1014    1.0000 0.09000  0.70500  0.91000  Biso   1.000  C
  C1015    1.0000 0.91000  0.70500  0.09000  Biso   1.000  C
  C1016    1.0000 0.91000  0.29500  0.91000  Biso   1.000  C
  C1017    1.0000 0.09000  0.59000  0.79500  Biso   1.000  C
  C1018    1.0000 0.91000  0.59000  0.20500  Biso   1.000  C
  C1019    1.0000 0.09000  0.41000  0.20500  Biso   1.000  C
  C1020    1.0000 0.91000  0.41000  0.79500  Biso   1.000  C
  C1021    1.0000 0.09000  0.29500  0.91000  Biso   1.000  C
  C1022    1.0000 0.91000  0.70500  0.91000  Biso   1.000  C
  C1023    1.0000 0.09000  0.70500  0.09000  Biso   1.000  C
  C1024    1.0000 0.91000  0.29500  0.09000  Biso   1.000  C
  C1025    1.0000 0.79500  0.59000  0.91000  Biso   1.000  C
  C1026    1.0000 0.20500  0.59000  0.09000  Biso   1.000  C
  C1027    1.0000 0.20500  0.41000  0.91000  Biso   1.000  C
  C1028    1.0000 0.79500  0.41000  0.09000  Biso   1.000  C
  C1029    1.0000 0.09000  0.59000  0.20500  Biso   1.000  C
  C1030    1.0000 0.09000  0.41000  0.79500  Biso   1.000  C
  C1031    1.0000 0.91000  0.59000  0.79500  Biso   1.000  C
  C1032    1.0000 0.91000  0.41000  0.20500  Biso   1.000  C
  C1033    1.0000 0.79500  0.09000  0.59000  Biso   1.000  C
  C1034    1.0000 0.20500  0.91000  0.59000  Biso   1.000  C
  C1035    1.0000 0.20500  0.09000  0.41000  Biso   1.000  C
  C1036    1.0000 0.79500  0.91000  0.41000  Biso   1.000  C
  C1037    1.0000 0.09000  0.79500  0.59000  Biso   1.000  C
  C1038    1.0000 0.09000  0.20500  0.41000  Biso   1.000  C
  C1039    1.0000 0.91000  0.20500  0.59000  Biso   1.000  C
  C1040    1.0000 0.91000  0.79500  0.41000  Biso   1.000  C
  C1041    1.0000 0.09000  0.09000  0.29500  Biso   1.000  C
  C1042    1.0000 0.91000  0.09000  0.70500  Biso   1.000  C
  C1043    1.0000 0.09000  0.91000  0.70500  Biso   1.000  C
  C1044    1.0000 0.91000  0.91000  0.29500  Biso   1.000  C
  C1045    1.0000 0.09000  0.79500  0.41000  Biso   1.000  C
  C1046    1.0000 0.91000  0.20500  0.41000  Biso   1.000  C
  C1047    1.0000 0.09000  0.20500  0.59000  Biso   1.000  C
  C1048    1.0000 0.91000  0.79500  0.59000  Biso   1.000  C
  C1049    1.0000 0.79500  0.09000  0.41000  Biso   1.000  C
  C1050    1.0000 0.20500  0.09000  0.59000  Biso   1.000  C
  C1051    1.0000 0.20500  0.91000  0.41000  Biso   1.000  C
  C1052    1.0000 0.79500  0.91000  0.59000  Biso   1.000  C
  C1053    1.0000 0.09000  0.09000  0.70500  Biso   1.000  C
  C1054    1.0000 0.09000  0.91000  0.29500  Biso   1.000  C
  C1055    1.0000 0.91000  0.09000  0.29500  Biso   1.000  C
  C1056    1.0000 0.91000  0.91000  0.70500  Biso   1.000  C
  C1057    1.0000 0.27900  0.59600  0.59600  Biso   1.000  C
  C1058    1.0000 0.72100  0.40400  0.59600  Biso   1.000  C
  C1059    1.0000 0.72100  0.59600  0.40400  Biso   1.000  C
  C1060    1.0000 0.27900  0.40400  0.40400  Biso   1.000  C
  C1061    1.0000 0.59600  0.27900  0.59600  Biso   1.000  C
  C1062    1.0000 0.59600  0.72100  0.40400  Biso   1.000  C
  C1063    1.0000 0.40400  0.72100  0.59600  Biso   1.000  C
  C1064    1.0000 0.40400  0.27900  0.40400  Biso   1.000  C
  C1065    1.0000 0.59600  0.59600  0.27900  Biso   1.000  C
  C1066    1.0000 0.40400  0.59600  0.72100  Biso   1.000  C
  C1067    1.0000 0.59600  0.40400  0.72100  Biso   1.000  C
  C1068    1.0000 0.40400  0.40400  0.27900  Biso   1.000  C
  C1069    1.0000 0.59600  0.27900  0.40400  Biso   1.000  C
  C1070    1.0000 0.40400  0.72100  0.40400  Biso   1.000  C
  C1071    1.0000 0.59600  0.72100  0.59600  Biso   1.000  C
  C1072    1.0000 0.40400  0.27900  0.59600  Biso   1.000  C
  C1073    1.0000 0.27900  0.59600  0.40400  Biso   1.000  C
  C1074    1.0000 0.72100  0.59600  0.59600  Biso   1.000  C
  C1075    1.0000 0.72100  0.40400  0.40400  Biso   1.000  C
  C1076    1.0000 0.27900  0.40400  0.59600  Biso   1.000  C
  C1077    1.0000 0.59600  0.59600  0.72100  Biso   1.000  C
  C1078    1.0000 0.59600  0.40400  0.27900  Biso   1.000  C
  C1079    1.0000 0.40400  0.59600  0.27900  Biso   1.000  C
  C1080    1.0000 0.40400  0.40400  0.72100  Biso   1.000  C
  C1081    1.0000 0.27900  0.09600  0.09600  Biso   1.000  C
  C1082    1.0000 0.72100  0.90400  0.09600  Biso   1.000  C
  C1083    1.0000 0.72100  0.09600  0.90400  Biso   1.000  C
  C1084    1.0000 0.27900  0.90400  0.90400  Biso   1.000  C
  C1085    1.0000 0.59600  0.77900  0.09600  Biso   1.000  C
  C1086    1.0000 0.59600  0.22100  0.90400  Biso   1.000  C
  C1087    1.0000 0.40400  0.22100  0.09600  Biso   1.000  C
  C1088    1.0000 0.40400  0.77900  0.90400  Biso   1.000  C
  C1089    1.0000 0.59600  0.09600  0.77900  Biso   1.000  C
  C1090    1.0000 0.40400  0.09600  0.22100  Biso   1.000  C
  C1091    1.0000 0.59600  0.90400  0.22100  Biso   1.000  C
  C1092    1.0000 0.40400  0.90400  0.77900  Biso   1.000  C
  C1093    1.0000 0.59600  0.77900  0.90400  Biso   1.000  C
  C1094    1.0000 0.40400  0.22100  0.90400  Biso   1.000  C
  C1095    1.0000 0.59600  0.22100  0.09600  Biso   1.000  C
  C1096    1.0000 0.40400  0.77900  0.09600  Biso   1.000  C
  C1097    1.0000 0.27900  0.09600  0.90400  Biso   1.000  C
  C1098    1.0000 0.72100  0.09600  0.09600  Biso   1.000  C
  C1099    1.0000 0.72100  0.90400  0.90400  Biso   1.000  C
  C1100    1.0000 0.27900  0.90400  0.09600  Biso   1.000  C
  C1101    1.0000 0.59600  0.09600  0.22100  Biso   1.000  C
  C1102    1.0000 0.59600  0.90400  0.77900  Biso   1.000  C
  C1103    1.0000 0.40400  0.09600  0.77900  Biso   1.000  C
  C1104    1.0000 0.40400  0.90400  0.22100  Biso   1.000  C
  C1105    1.0000 0.77900  0.59600  0.09600  Biso   1.000  C
  C1106    1.0000 0.22100  0.40400  0.09600  Biso   1.000  C
  C1107    1.0000 0.22100  0.59600  0.90400  Biso   1.000  C
  C1108    1.0000 0.77900  0.40400  0.90400  Biso   1.000  C
  C1109    1.0000 0.09600  0.27900  0.09600  Biso   1.000  C
  C1110    1.0000 0.09600  0.72100  0.90400  Biso   1.000  C
  C1111    1.0000 0.90400  0.72100  0.09600  Biso   1.000  C
  C1112    1.0000 0.90400  0.27900  0.90400  Biso   1.000  C
  C1113    1.0000 0.09600  0.59600  0.77900  Biso   1.000  C
  C1114    1.0000 0.90400  0.59600  0.22100  Biso   1.000  C
  C1115    1.0000 0.09600  0.40400  0.22100  Biso   1.000  C
  C1116    1.0000 0.90400  0.40400  0.77900  Biso   1.000  C
  C1117    1.0000 0.09600  0.27900  0.90400  Biso   1.000  C
  C1118    1.0000 0.90400  0.72100  0.90400  Biso   1.000  C
  C1119    1.0000 0.09600  0.72100  0.09600  Biso   1.000  C
  C1120    1.0000 0.90400  0.27900  0.09600  Biso   1.000  C
  C1121    1.0000 0.77900  0.59600  0.90400  Biso   1.000  C
  C1122    1.0000 0.22100  0.59600  0.09600  Biso   1.000  C
  C1123    1.0000 0.22100  0.40400  0.90400  Biso   1.000  C
  C1124    1.0000 0.77900  0.40400  0.09600  Biso   1.000  C
  C1125    1.0000 0.09600  0.59600  0.22100  Biso   1.000  C
  C1126    1.0000 0.09600  0.40400  0.77900  Biso   1.000  C
  C1127    1.0000 0.90400  0.59600  0.77900  Biso   1.000  C
  C1128    1.0000 0.90400  0.40400  0.22100  Biso   1.000  C
  C1129    1.0000 0.77900  0.09600  0.59600  Biso   1.000  C
  C1130    1.0000 0.22100  0.90400  0.59600  Biso   1.000  C
  C1131    1.0000 0.22100  0.09600  0.40400  Biso   1.000  C
  C1132    1.0000 0.77900  0.90400  0.40400  Biso   1.000  C
  C1133    1.0000 0.09600  0.77900  0.59600  Biso   1.000  C
  C1134    1.0000 0.09600  0.22100  0.40400  Biso   1.000  C
  C1135    1.0000 0.90400  0.22100  0.59600  Biso   1.000  C
  C1136    1.0000 0.90400  0.77900  0.40400  Biso   1.000  C
  C1137    1.0000 0.09600  0.09600  0.27900  Biso   1.000  C
  C1138    1.0000 0.90400  0.09600  0.72100  Biso   1.000  C
  C1139    1.0000 0.09600  0.90400  0.72100  Biso   1.000  C
  C1140    1.0000 0.90400  0.90400  0.27900  Biso   1.000  C
  C1141    1.0000 0.09600  0.77900  0.40400  Biso   1.000  C
  C1142    1.0000 0.90400  0.22100  0.40400  Biso   1.000  C
  C1143    1.0000 0.09600  0.22100  0.59600  Biso   1.000  C
  C1144    1.0000 0.90400  0.77900  0.59600  Biso   1.000  C
  C1145    1.0000 0.77900  0.09600  0.40400  Biso   1.000  C
  C1146    1.0000 0.22100  0.09600  0.59600  Biso   1.000  C
  C1147    1.0000 0.22100  0.90400  0.40400  Biso   1.000  C
  C1148    1.0000 0.77900  0.90400  0.59600  Biso   1.000  C
  C1149    1.0000 0.09600  0.09600  0.72100  Biso   1.000  C
  C1150    1.0000 0.09600  0.90400  0.27900  Biso   1.000  C
  C1151    1.0000 0.90400  0.09600  0.27900  Biso   1.000  C
  C1152    1.0000 0.90400  0.90400  0.72100  Biso   1.000  C
  C1153    1.0000 0.26100  0.60400  0.60400  Biso   1.000  C
  C1154    1.0000 0.73900  0.39600  0.60400  Biso   1.000  C
  C1155    1.0000 0.73900  0.60400  0.39600  Biso   1.000  C
  C1156    1.0000 0.26100  0.39600  0.39600  Biso   1.000  C
  C1157    1.0000 0.60400  0.26100  0.60400  Biso   1.000  C
  C1158    1.0000 0.60400  0.73900  0.39600  Biso   1.000  C
  C1159    1.0000 0.39600  0.73900  0.60400  Biso   1.000  C
  C1160    1.0000 0.39600  0.26100  0.39600  Biso   1.000  C
  C1161    1.0000 0.60400  0.60400  0.26100  Biso   1.000  C
  C1162    1.0000 0.39600  0.60400  0.73900  Biso   1.000  C
  C1163    1.0000 0.60400  0.39600  0.73900  Biso   1.000  C
  C1164    1.0000 0.39600  0.39600  0.26100  Biso   1.000  C
  C1165    1.0000 0.60400  0.26100  0.39600  Biso   1.000  C
  C1166    1.0000 0.39600  0.73900  0.39600  Biso   1.000  C
  C1167    1.0000 0.60400  0.73900  0.60400  Biso   1.000  C
  C1168    1.0000 0.39600  0.26100  0.60400  Biso   1.000  C
  C1169    1.0000 0.26100  0.60400  0.39600  Biso   1.000  C
  C1170    1.0000 0.73900  0.60400  0.60400  Biso   1.000  C
  C1171    1.0000 0.73900  0.39600  0.39600  Biso   1.000  C
  C1172    1.0000 0.26100  0.39600  0.60400  Biso   1.000  C
  C1173    1.0000 0.60400  0.60400  0.73900  Biso   1.000  C
  C1174    1.0000 0.60400  0.39600  0.26100  Biso   1.000  C
  C1175    1.0000 0.39600  0.60400  0.26100  Biso   1.000  C
  C1176    1.0000 0.39600  0.39600  0.73900  Biso   1.000  C
  C1177    1.0000 0.26100  0.10400  0.10400  Biso   1.000  C
  C1178    1.0000 0.73900  0.89600  0.10400  Biso   1.000  C
  C1179    1.0000 0.73900  0.10400  0.89600  Biso   1.000  C
  C1180    1.0000 0.26100  0.89600  0.89600  Biso   1.000  C
  C1181    1.0000 0.60400  0.76100  0.10400  Biso   1.000  C
  C1182    1.0000 0.60400  0.23900  0.89600  Biso   1.000  C
  C1183    1.0000 0.39600  0.23900  0.10400  Biso   1.000  C
  C1184    1.0000 0.39600  0.76100  0.89600  Biso   1.000  C
  C1185    1.0000 0.60400  0.10400  0.76100  Biso   1.000  C
  C1186    1.0000 0.39600  0.10400  0.23900  Biso   1.000  C
  C1187    1.0000 0.60400  0.89600  0.23900  Biso   1.000  C
  C1188    1.0000 0.39600  0.89600  0.76100  Biso   1.000  C
  C1189    1.0000 0.60400  0.76100  0.89600  Biso   1.000  C
  C1190    1.0000 0.39600  0.23900  0.89600  Biso   1.000  C
  C1191    1.0000 0.60400  0.23900  0.10400  Biso   1.000  C
  C1192    1.0000 0.39600  0.76100  0.10400  Biso   1.000  C
  C1193    1.0000 0.26100  0.10400  0.89600  Biso   1.000  C
  C1194    1.0000 0.73900  0.10400  0.10400  Biso   1.000  C
  C1195    1.0000 0.73900  0.89600  0.89600  Biso   1.000  C
  C1196    1.0000 0.26100  0.89600  0.10400  Biso   1.000  C
  C1197    1.0000 0.60400  0.10400  0.23900  Biso   1.000  C
  C1198    1.0000 0.60400  0.89600  0.76100  Biso   1.000  C
  C1199    1.0000 0.39600  0.10400  0.76100  Biso   1.000  C
  C1200    1.0000 0.39600  0.89600  0.23900  Biso   1.000  C
  C1201    1.0000 0.76100  0.60400  0.10400  Biso   1.000  C
  C1202    1.0000 0.23900  0.39600  0.10400  Biso   1.000  C
  C1203    1.0000 0.23900  0.60400  0.89600  Biso   1.000  C
  C1204    1.0000 0.76100  0.39600  0.89600  Biso   1.000  C
  C1205    1.0000 0.10400  0.26100  0.10400  Biso   1.000  C
  C1206    1.0000 0.10400  0.73900  0.89600  Biso   1.000  C
  C1207    1.0000 0.89600  0.73900  0.10400  Biso   1.000  C
  C1208    1.0000 0.89600  0.26100  0.89600  Biso   1.000  C
  C1209    1.0000 0.10400  0.60400  0.76100  Biso   1.000  C
  C1210    1.0000 0.89600  0.60400  0.23900  Biso   1.000  C
  C1211    1.0000 0.10400  0.39600  0.23900  Biso   1.000  C
  C1212    1.0000 0.89600  0.39600  0.76100  Biso   1.000  C
  C1213    1.0000 0.10400  0.26100  0.89600  Biso   1.000  C
  C1214    1.0000 0.89600  0.73900  0.89600  Biso   1.000  C
  C1215    1.0000 0.10400  0.73900  0.10400  Biso   1.000  C
  C1216    1.0000 0.89600  0.26100  0.10400  Biso   1.000  C
  C1217    1.0000 0.76100  0.60400  0.89600  Biso   1.000  C
  C1218    1.0000 0.23900  0.60400  0.10400  Biso   1.000  C
  C1219    1.0000 0.23900  0.39600  0.89600  Biso   1.000  C
  C1220    1.0000 0.76100  0.39600  0.10400  Biso   1.000  C
  C1221    1.0000 0.10400  0.60400  0.23900  Biso   1.000  C
  C1222    1.0000 0.10400  0.39600  0.76100  Biso   1.000  C
  C1223    1.0000 0.89600  0.60400  0.76100  Biso   1.000  C
  C1224    1.0000 0.89600  0.39600  0.23900  Biso   1.000  C
  C1225    1.0000 0.76100  0.10400  0.60400  Biso   1.000  C
  C1226    1.0000 0.23900  0.89600  0.60400  Biso   1.000  C
  C1227    1.0000 0.23900  0.10400  0.39600  Biso   1.000  C
  C1228    1.0000 0.76100  0.89600  0.39600  Biso   1.000  C
  C1229    1.0000 0.10400  0.76100  0.60400  Biso   1.000  C
  C1230    1.0000 0.10400  0.23900  0.39600  Biso   1.000  C
  C1231    1.0000 0.89600  0.23900  0.60400  Biso   1.000  C
  C1232    1.0000 0.89600  0.76100  0.39600  Biso   1.000  C
  C1233    1.0000 0.10400  0.10400  0.26100  Biso   1.000  C
  C1234    1.0000 0.89600  0.10400  0.73900  Biso   1.000  C
  C1235    1.0000 0.10400  0.89600  0.73900  Biso   1.000  C
  C1236    1.0000 0.89600  0.89600  0.26100  Biso   1.000  C
  C1237    1.0000 0.10400  0.76100  0.39600  Biso   1.000  C
  C1238    1.0000 0.89600  0.23900  0.39600  Biso   1.000  C
  C1239    1.0000 0.10400  0.23900  0.60400  Biso   1.000  C
  C1240    1.0000 0.89600  0.76100  0.60400  Biso   1.000  C
  C1241    1.0000 0.76100  0.10400  0.39600  Biso   1.000  C
  C1242    1.0000 0.23900  0.10400  0.60400  Biso   1.000  C
  C1243    1.0000 0.23900  0.89600  0.39600  Biso   1.000  C
  C1244    1.0000 0.76100  0.89600  0.60400  Biso   1.000  C
  C1245    1.0000 0.10400  0.10400  0.73900  Biso   1.000  C
  C1246    1.0000 0.10400  0.89600  0.26100  Biso   1.000  C
  C1247    1.0000 0.89600  0.10400  0.26100  Biso   1.000  C
  C1248    1.0000 0.89600  0.89600  0.73900  Biso   1.000  C
  C1249    1.0000 0.25200  0.62200  0.59800  Biso   1.000  C
  C1250    1.0000 0.74800  0.37800  0.59800  Biso   1.000  C
  C1251    1.0000 0.74800  0.62200  0.40200  Biso   1.000  C
  C1252    1.0000 0.25200  0.37800  0.40200  Biso   1.000  C
  C1253    1.0000 0.59800  0.25200  0.62200  Biso   1.000  C
  C1254    1.0000 0.59800  0.74800  0.37800  Biso   1.000  C
  C1255    1.0000 0.40200  0.74800  0.62200  Biso   1.000  C
  C1256    1.0000 0.40200  0.25200  0.37800  Biso   1.000  C
  C1257    1.0000 0.62200  0.59800  0.25200  Biso   1.000  C
  C1258    1.0000 0.37800  0.59800  0.74800  Biso   1.000  C
  C1259    1.0000 0.62200  0.40200  0.74800  Biso   1.000  C
  C1260    1.0000 0.37800  0.40200  0.25200  Biso   1.000  C
  C1261    1.0000 0.62200  0.25200  0.40200  Biso   1.000  C
  C1262    1.0000 0.37800  0.74800  0.40200  Biso   1.000  C
  C1263    1.0000 0.62200  0.74800  0.59800  Biso   1.000  C
  C1264    1.0000 0.37800  0.25200  0.59800  Biso   1.000  C
  C1265    1.0000 0.25200  0.59800  0.37800  Biso   1.000  C
  C1266    1.0000 0.74800  0.59800  0.62200  Biso   1.000  C
  C1267    1.0000 0.74800  0.40200  0.37800  Biso   1.000  C
  C1268    1.0000 0.25200  0.40200  0.62200  Biso   1.000  C
  C1269    1.0000 0.59800  0.62200  0.74800  Biso   1.000  C
  C1270    1.0000 0.59800  0.37800  0.25200  Biso   1.000  C
  C1271    1.0000 0.40200  0.62200  0.25200  Biso   1.000  C
  C1272    1.0000 0.40200  0.37800  0.74800  Biso   1.000  C
  C1273    1.0000 0.25200  0.12200  0.09800  Biso   1.000  C
  C1274    1.0000 0.74800  0.87800  0.09800  Biso   1.000  C
  C1275    1.0000 0.74800  0.12200  0.90200  Biso   1.000  C
  C1276    1.0000 0.25200  0.87800  0.90200  Biso   1.000  C
  C1277    1.0000 0.59800  0.75200  0.12200  Biso   1.000  C
  C1278    1.0000 0.59800  0.24800  0.87800  Biso   1.000  C
  C1279    1.0000 0.40200  0.24800  0.12200  Biso   1.000  C
  C1280    1.0000 0.40200  0.75200  0.87800  Biso   1.000  C
  C1281    1.0000 0.62200  0.09800  0.75200  Biso   1.000  C
  C1282    1.0000 0.37800  0.09800  0.24800  Biso   1.000  C
  C1283    1.0000 0.62200  0.90200  0.24800  Biso   1.000  C
  C1284    1.0000 0.37800  0.90200  0.75200  Biso   1.000  C
  C1285    1.0000 0.62200  0.75200  0.90200  Biso   1.000  C
  C1286    1.0000 0.37800  0.24800  0.90200  Biso   1.000  C
  C1287    1.0000 0.62200  0.24800  0.09800  Biso   1.000  C
  C1288    1.0000 0.37800  0.75200  0.09800  Biso   1.000  C
  C1289    1.0000 0.25200  0.09800  0.87800  Biso   1.000  C
  C1290    1.0000 0.74800  0.09800  0.12200  Biso   1.000  C
  C1291    1.0000 0.74800  0.90200  0.87800  Biso   1.000  C
  C1292    1.0000 0.25200  0.90200  0.12200  Biso   1.000  C
  C1293    1.0000 0.59800  0.12200  0.24800  Biso   1.000  C
  C1294    1.0000 0.59800  0.87800  0.75200  Biso   1.000  C
  C1295    1.0000 0.40200  0.12200  0.75200  Biso   1.000  C
  C1296    1.0000 0.40200  0.87800  0.24800  Biso   1.000  C
  C1297    1.0000 0.75200  0.62200  0.09800  Biso   1.000  C
  C1298    1.0000 0.24800  0.37800  0.09800  Biso   1.000  C
  C1299    1.0000 0.24800  0.62200  0.90200  Biso   1.000  C
  C1300    1.0000 0.75200  0.37800  0.90200  Biso   1.000  C
  C1301    1.0000 0.09800  0.25200  0.12200  Biso   1.000  C
  C1302    1.0000 0.09800  0.74800  0.87800  Biso   1.000  C
  C1303    1.0000 0.90200  0.74800  0.12200  Biso   1.000  C
  C1304    1.0000 0.90200  0.25200  0.87800  Biso   1.000  C
  C1305    1.0000 0.12200  0.59800  0.75200  Biso   1.000  C
  C1306    1.0000 0.87800  0.59800  0.24800  Biso   1.000  C
  C1307    1.0000 0.12200  0.40200  0.24800  Biso   1.000  C
  C1308    1.0000 0.87800  0.40200  0.75200  Biso   1.000  C
  C1309    1.0000 0.12200  0.25200  0.90200  Biso   1.000  C
  C1310    1.0000 0.87800  0.74800  0.90200  Biso   1.000  C
  C1311    1.0000 0.12200  0.74800  0.09800  Biso   1.000  C
  C1312    1.0000 0.87800  0.25200  0.09800  Biso   1.000  C
  C1313    1.0000 0.75200  0.59800  0.87800  Biso   1.000  C
  C1314    1.0000 0.24800  0.59800  0.12200  Biso   1.000  C
  C1315    1.0000 0.24800  0.40200  0.87800  Biso   1.000  C
  C1316    1.0000 0.75200  0.40200  0.12200  Biso   1.000  C
  C1317    1.0000 0.09800  0.62200  0.24800  Biso   1.000  C
  C1318    1.0000 0.09800  0.37800  0.75200  Biso   1.000  C
  C1319    1.0000 0.90200  0.62200  0.75200  Biso   1.000  C
  C1320    1.0000 0.90200  0.37800  0.24800  Biso   1.000  C
  C1321    1.0000 0.75200  0.12200  0.59800  Biso   1.000  C
  C1322    1.0000 0.24800  0.87800  0.59800  Biso   1.000  C
  C1323    1.0000 0.24800  0.12200  0.40200  Biso   1.000  C
  C1324    1.0000 0.75200  0.87800  0.40200  Biso   1.000  C
  C1325    1.0000 0.09800  0.75200  0.62200  Biso   1.000  C
  C1326    1.0000 0.09800  0.24800  0.37800  Biso   1.000  C
  C1327    1.0000 0.90200  0.24800  0.62200  Biso   1.000  C
  C1328    1.0000 0.90200  0.75200  0.37800  Biso   1.000  C
  C1329    1.0000 0.12200  0.09800  0.25200  Biso   1.000  C
  C1330    1.0000 0.87800  0.09800  0.74800  Biso   1.000  C
  C1331    1.0000 0.12200  0.90200  0.74800  Biso   1.000  C
  C1332    1.0000 0.87800  0.90200  0.25200  Biso   1.000  C
  C1333    1.0000 0.12200  0.75200  0.40200  Biso   1.000  C
  C1334    1.0000 0.87800  0.24800  0.40200  Biso   1.000  C
  C1335    1.0000 0.12200  0.24800  0.59800  Biso   1.000  C
  C1336    1.0000 0.87800  0.75200  0.59800  Biso   1.000  C
  C1337    1.0000 0.75200  0.09800  0.37800  Biso   1.000  C
  C1338    1.0000 0.24800  0.09800  0.62200  Biso   1.000  C
  C1339    1.0000 0.24800  0.90200  0.37800  Biso   1.000  C
  C1340    1.0000 0.75200  0.90200  0.62200  Biso   1.000  C
  C1341    1.0000 0.09800  0.12200  0.74800  Biso   1.000  C
  C1342    1.0000 0.09800  0.87800  0.25200  Biso   1.000  C
  C1343    1.0000 0.90200  0.12200  0.25200  Biso   1.000  C
  C1344    1.0000 0.90200  0.87800  0.74800  Biso   1.000  C
  C1345    1.0000 0.74800  0.37800  0.40200  Biso   1.000  C
  C1346    1.0000 0.25200  0.62200  0.40200  Biso   1.000  C
  C1347    1.0000 0.25200  0.37800  0.59800  Biso   1.000  C
  C1348    1.0000 0.74800  0.62200  0.59800  Biso   1.000  C
  C1349    1.0000 0.40200  0.74800  0.37800  Biso   1.000  C
  C1350    1.0000 0.40200  0.25200  0.62200  Biso   1.000  C
  C1351    1.0000 0.59800  0.25200  0.37800  Biso   1.000  C
  C1352    1.0000 0.59800  0.74800  0.62200  Biso   1.000  C
  C1353    1.0000 0.37800  0.40200  0.74800  Biso   1.000  C
  C1354    1.0000 0.62200  0.40200  0.25200  Biso   1.000  C
  C1355    1.0000 0.37800  0.59800  0.25200  Biso   1.000  C
  C1356    1.0000 0.62200  0.59800  0.74800  Biso   1.000  C
  C1357    1.0000 0.37800  0.74800  0.59800  Biso   1.000  C
  C1358    1.0000 0.62200  0.25200  0.59800  Biso   1.000  C
  C1359    1.0000 0.37800  0.25200  0.40200  Biso   1.000  C
  C1360    1.0000 0.62200  0.74800  0.40200  Biso   1.000  C
  C1361    1.0000 0.74800  0.40200  0.62200  Biso   1.000  C
  C1362    1.0000 0.25200  0.40200  0.37800  Biso   1.000  C
  C1363    1.0000 0.25200  0.59800  0.62200  Biso   1.000  C
  C1364    1.0000 0.74800  0.59800  0.37800  Biso   1.000  C
  C1365    1.0000 0.40200  0.37800  0.25200  Biso   1.000  C
  C1366    1.0000 0.40200  0.62200  0.74800  Biso   1.000  C
  C1367    1.0000 0.59800  0.37800  0.74800  Biso   1.000  C
  C1368    1.0000 0.59800  0.62200  0.25200  Biso   1.000  C
  C1369    1.0000 0.74800  0.87800  0.90200  Biso   1.000  C
  C1370    1.0000 0.25200  0.12200  0.90200  Biso   1.000  C
  C1371    1.0000 0.25200  0.87800  0.09800  Biso   1.000  C
  C1372    1.0000 0.74800  0.12200  0.09800  Biso   1.000  C
  C1373    1.0000 0.40200  0.24800  0.87800  Biso   1.000  C
  C1374    1.0000 0.40200  0.75200  0.12200  Biso   1.000  C
  C1375    1.0000 0.59800  0.75200  0.87800  Biso   1.000  C
  C1376    1.0000 0.59800  0.24800  0.12200  Biso   1.000  C
  C1377    1.0000 0.37800  0.90200  0.24800  Biso   1.000  C
  C1378    1.0000 0.62200  0.90200  0.75200  Biso   1.000  C
  C1379    1.0000 0.37800  0.09800  0.75200  Biso   1.000  C
  C1380    1.0000 0.62200  0.09800  0.24800  Biso   1.000  C
  C1381    1.0000 0.37800  0.24800  0.09800  Biso   1.000  C
  C1382    1.0000 0.62200  0.75200  0.09800  Biso   1.000  C
  C1383    1.0000 0.37800  0.75200  0.90200  Biso   1.000  C
  C1384    1.0000 0.62200  0.24800  0.90200  Biso   1.000  C
  C1385    1.0000 0.74800  0.90200  0.12200  Biso   1.000  C
  C1386    1.0000 0.25200  0.90200  0.87800  Biso   1.000  C
  C1387    1.0000 0.25200  0.09800  0.12200  Biso   1.000  C
  C1388    1.0000 0.74800  0.09800  0.87800  Biso   1.000  C
  C1389    1.0000 0.40200  0.87800  0.75200  Biso   1.000  C
  C1390    1.0000 0.40200  0.12200  0.24800  Biso   1.000  C
  C1391    1.0000 0.59800  0.87800  0.24800  Biso   1.000  C
  C1392    1.0000 0.59800  0.12200  0.75200  Biso   1.000  C
  C1393    1.0000 0.24800  0.37800  0.90200  Biso   1.000  C
  C1394    1.0000 0.75200  0.62200  0.90200  Biso   1.000  C
  C1395    1.0000 0.75200  0.37800  0.09800  Biso   1.000  C
  C1396    1.0000 0.24800  0.62200  0.09800  Biso   1.000  C
  C1397    1.0000 0.90200  0.74800  0.87800  Biso   1.000  C
  C1398    1.0000 0.90200  0.25200  0.12200  Biso   1.000  C
  C1399    1.0000 0.09800  0.25200  0.87800  Biso   1.000  C
  C1400    1.0000 0.09800  0.74800  0.12200  Biso   1.000  C
  C1401    1.0000 0.87800  0.40200  0.24800  Biso   1.000  C
  C1402    1.0000 0.12200  0.40200  0.75200  Biso   1.000  C
  C1403    1.0000 0.87800  0.59800  0.75200  Biso   1.000  C
  C1404    1.0000 0.12200  0.59800  0.24800  Biso   1.000  C
  C1405    1.0000 0.87800  0.74800  0.09800  Biso   1.000  C
  C1406    1.0000 0.12200  0.25200  0.09800  Biso   1.000  C
  C1407    1.0000 0.87800  0.25200  0.90200  Biso   1.000  C
  C1408    1.0000 0.12200  0.74800  0.90200  Biso   1.000  C
  C1409    1.0000 0.24800  0.40200  0.12200  Biso   1.000  C
  C1410    1.0000 0.75200  0.40200  0.87800  Biso   1.000  C
  C1411    1.0000 0.75200  0.59800  0.12200  Biso   1.000  C
  C1412    1.0000 0.24800  0.59800  0.87800  Biso   1.000  C
  C1413    1.0000 0.90200  0.37800  0.75200  Biso   1.000  C
  C1414    1.0000 0.90200  0.62200  0.24800  Biso   1.000  C
  C1415    1.0000 0.09800  0.37800  0.24800  Biso   1.000  C
  C1416    1.0000 0.09800  0.62200  0.75200  Biso   1.000  C
  C1417    1.0000 0.24800  0.87800  0.40200  Biso   1.000  C
  C1418    1.0000 0.75200  0.12200  0.40200  Biso   1.000  C
  C1419    1.0000 0.75200  0.87800  0.59800  Biso   1.000  C
  C1420    1.0000 0.24800  0.12200  0.59800  Biso   1.000  C
  C1421    1.0000 0.90200  0.24800  0.37800  Biso   1.000  C
  C1422    1.0000 0.90200  0.75200  0.62200  Biso   1.000  C
  C1423    1.0000 0.09800  0.75200  0.37800  Biso   1.000  C
  C1424    1.0000 0.09800  0.24800  0.62200  Biso   1.000  C
  C1425    1.0000 0.87800  0.90200  0.74800  Biso   1.000  C
  C1426    1.0000 0.12200  0.90200  0.25200  Biso   1.000  C
  C1427    1.0000 0.87800  0.09800  0.25200  Biso   1.000  C
  C1428    1.0000 0.12200  0.09800  0.74800  Biso   1.000  C
  C1429    1.0000 0.87800  0.24800  0.59800  Biso   1.000  C
  C1430    1.0000 0.12200  0.75200  0.59800  Biso   1.000  C
  C1431    1.0000 0.87800  0.75200  0.40200  Biso   1.000  C
  C1432    1.0000 0.12200  0.24800  0.40200  Biso   1.000  C
  C1433    1.0000 0.24800  0.90200  0.62200  Biso   1.000  C
  C1434    1.0000 0.75200  0.90200  0.37800  Biso   1.000  C
  C1435    1.0000 0.75200  0.09800  0.62200  Biso   1.000  C
  C1436    1.0000 0.24800  0.09800  0.37800  Biso   1.000  C
  C1437    1.0000 0.90200  0.87800  0.25200  Biso   1.000  C
  C1438    1.0000 0.90200  0.12200  0.74800  Biso   1.000  C
  C1439    1.0000 0.09800  0.87800  0.74800  Biso   1.000  C
  C1440    1.0000 0.09800  0.12200  0.25200  Biso   1.000  C
  H289     1.0000 0.25830  0.62940  0.58710  Biso   1.000  H
  H290     1.0000 0.74170  0.37060  0.58710  Biso   1.000  H
  H291     1.0000 0.74170  0.62940  0.41290  Biso   1.000  H
  H292     1.0000 0.25830  0.37060  0.41290  Biso   1.000  H
  H293     1.0000 0.58710  0.25830  0.62940  Biso   1.000  H
  H294     1.0000 0.58710  0.74170  0.37060  Biso   1.000  H
  H295     1.0000 0.41290  0.74170  0.62940  Biso   1.000  H
  H296     1.0000 0.41290  0.25830  0.37060  Biso   1.000  H
  H297     1.0000 0.62940  0.58710  0.25830  Biso   1.000  H
  H298     1.0000 0.37060  0.58710  0.74170  Biso   1.000  H
  H299     1.0000 0.62940  0.41290  0.74170  Biso   1.000  H
  H300     1.0000 0.37060  0.41290  0.25830  Biso   1.000  H
  H301     1.0000 0.62940  0.25830  0.41290  Biso   1.000  H
  H302     1.0000 0.37060  0.74170  0.41290  Biso   1.000  H
  H303     1.0000 0.62940  0.74170  0.58710  Biso   1.000  H
  H304     1.0000 0.37060  0.25830  0.58710  Biso   1.000  H
  H305     1.0000 0.25830  0.58710  0.37060  Biso   1.000  H
  H306     1.0000 0.74170  0.58710  0.62940  Biso   1.000  H
  H307     1.0000 0.74170  0.41290  0.37060  Biso   1.000  H
  H308     1.0000 0.25830  0.41290  0.62940  Biso   1.000  H
  H309     1.0000 0.58710  0.62940  0.74170  Biso   1.000  H
  H310     1.0000 0.58710  0.37060  0.25830  Biso   1.000  H
  H311     1.0000 0.41290  0.62940  0.25830  Biso   1.000  H
  H312     1.0000 0.41290  0.37060  0.74170  Biso   1.000  H
  H313     1.0000 0.25830  0.12940  0.08710  Biso   1.000  H
  H314     1.0000 0.74170  0.87060  0.08710  Biso   1.000  H
  H315     1.0000 0.74170  0.12940  0.91290  Biso   1.000  H
  H316     1.0000 0.25830  0.87060  0.91290  Biso   1.000  H
  H317     1.0000 0.58710  0.75830  0.12940  Biso   1.000  H
  H318     1.0000 0.58710  0.24170  0.87060  Biso   1.000  H
  H319     1.0000 0.41290  0.24170  0.12940  Biso   1.000  H
  H320     1.0000 0.41290  0.75830  0.87060  Biso   1.000  H
  H321     1.0000 0.62940  0.08710  0.75830  Biso   1.000  H
  H322     1.0000 0.37060  0.08710  0.24170  Biso   1.000  H
  H323     1.0000 0.62940  0.91290  0.24170  Biso   1.000  H
  H324     1.0000 0.37060  0.91290  0.75830  Biso   1.000  H
  H325     1.0000 0.62940  0.75830  0.91290  Biso   1.000  H
  H326     1.0000 0.37060  0.24170  0.91290  Biso   1.000  H
  H327     1.0000 0.62940  0.24170  0.08710  Biso   1.000  H
  H328     1.0000 0.37060  0.75830  0.08710  Biso   1.000  H
  H329     1.0000 0.25830  0.08710  0.87060  Biso   1.000  H
  H330     1.0000 0.74170  0.08710  0.12940  Biso   1.000  H
  H331     1.0000 0.74170  0.91290  0.87060  Biso   1.000  H
  H332     1.0000 0.25830  0.91290  0.12940  Biso   1.000  H
  H333     1.0000 0.58710  0.12940  0.24170  Biso   1.000  H
  H334     1.0000 0.58710  0.87060  0.75830  Biso   1.000  H
  H335     1.0000 0.41290  0.12940  0.75830  Biso   1.000  H
  H336     1.0000 0.41290  0.87060  0.24170  Biso   1.000  H
  H337     1.0000 0.75830  0.62940  0.08710  Biso   1.000  H
  H338     1.0000 0.24170  0.37060  0.08710  Biso   1.000  H
  H339     1.0000 0.24170  0.62940  0.91290  Biso   1.000  H
  H340     1.0000 0.75830  0.37060  0.91290  Biso   1.000  H
  H341     1.0000 0.08710  0.25830  0.12940  Biso   1.000  H
  H342     1.0000 0.08710  0.74170  0.87060  Biso   1.000  H
  H343     1.0000 0.91290  0.74170  0.12940  Biso   1.000  H
  H344     1.0000 0.91290  0.25830  0.87060  Biso   1.000  H
  H345     1.0000 0.12940  0.58710  0.75830  Biso   1.000  H
  H346     1.0000 0.87060  0.58710  0.24170  Biso   1.000  H
  H347     1.0000 0.12940  0.41290  0.24170  Biso   1.000  H
  H348     1.0000 0.87060  0.41290  0.75830  Biso   1.000  H
  H349     1.0000 0.12940  0.25830  0.91290  Biso   1.000  H
  H350     1.0000 0.87060  0.74170  0.91290  Biso   1.000  H
  H351     1.0000 0.12940  0.74170  0.08710  Biso   1.000  H
  H352     1.0000 0.87060  0.25830  0.08710  Biso   1.000  H
  H353     1.0000 0.75830  0.58710  0.87060  Biso   1.000  H
  H354     1.0000 0.24170  0.58710  0.12940  Biso   1.000  H
  H355     1.0000 0.24170  0.41290  0.87060  Biso   1.000  H
  H356     1.0000 0.75830  0.41290  0.12940  Biso   1.000  H
  H357     1.0000 0.08710  0.62940  0.24170  Biso   1.000  H
  H358     1.0000 0.08710  0.37060  0.75830  Biso   1.000  H
  H359     1.0000 0.91290  0.62940  0.75830  Biso   1.000  H
  H360     1.0000 0.91290  0.37060  0.24170  Biso   1.000  H
  H361     1.0000 0.75830  0.12940  0.58710  Biso   1.000  H
  H362     1.0000 0.24170  0.87060  0.58710  Biso   1.000  H
  H363     1.0000 0.24170  0.12940  0.41290  Biso   1.000  H
  H364     1.0000 0.75830  0.87060  0.41290  Biso   1.000  H
  H365     1.0000 0.08710  0.75830  0.62940  Biso   1.000  H
  H366     1.0000 0.08710  0.24170  0.37060  Biso   1.000  H
  H367     1.0000 0.91290  0.24170  0.62940  Biso   1.000  H
  H368     1.0000 0.91290  0.75830  0.37060  Biso   1.000  H
  H369     1.0000 0.12940  0.08710  0.25830  Biso   1.000  H
  H370     1.0000 0.87060  0.08710  0.74170  Biso   1.000  H
  H371     1.0000 0.12940  0.91290  0.74170  Biso   1.000  H
  H372     1.0000 0.87060  0.91290  0.25830  Biso   1.000  H
  H373     1.0000 0.12940  0.75830  0.41290  Biso   1.000  H
  H374     1.0000 0.87060  0.24170  0.41290  Biso   1.000  H
  H375     1.0000 0.12940  0.24170  0.58710  Biso   1.000  H
  H376     1.0000 0.87060  0.75830  0.58710  Biso   1.000  H
  H377     1.0000 0.75830  0.08710  0.37060  Biso   1.000  H
  H378     1.0000 0.24170  0.08710  0.62940  Biso   1.000  H
  H379     1.0000 0.24170  0.91290  0.37060  Biso   1.000  H
  H380     1.0000 0.75830  0.91290  0.62940  Biso   1.000  H
  H381     1.0000 0.08710  0.12940  0.74170  Biso   1.000  H
  H382     1.0000 0.08710  0.87060  0.25830  Biso   1.000  H
  H383     1.0000 0.91290  0.12940  0.25830  Biso   1.000  H
  H384     1.0000 0.91290  0.87060  0.74170  Biso   1.000  H
  H385     1.0000 0.74170  0.37060  0.41290  Biso   1.000  H
  H386     1.0000 0.25830  0.62940  0.41290  Biso   1.000  H
  H387     1.0000 0.25830  0.37060  0.58710  Biso   1.000  H
  H388     1.0000 0.74170  0.62940  0.58710  Biso   1.000  H
  H389     1.0000 0.41290  0.74170  0.37060  Biso   1.000  H
  H390     1.0000 0.41290  0.25830  0.62940  Biso   1.000  H
  H391     1.0000 0.58710  0.25830  0.37060  Biso   1.000  H
  H392     1.0000 0.58710  0.74170  0.62940  Biso   1.000  H
  H393     1.0000 0.37060  0.41290  0.74170  Biso   1.000  H
  H394     1.0000 0.62940  0.41290  0.25830  Biso   1.000  H
  H395     1.0000 0.37060  0.58710  0.25830  Biso   1.000  H
  H396     1.0000 0.62940  0.58710  0.74170  Biso   1.000  H
  H397     1.0000 0.37060  0.74170  0.58710  Biso   1.000  H
  H398     1.0000 0.62940  0.25830  0.58710  Biso   1.000  H
  H399     1.0000 0.37060  0.25830  0.41290  Biso   1.000  H
  H400     1.0000 0.62940  0.74170  0.41290  Biso   1.000  H
  H401     1.0000 0.74170  0.41290  0.62940  Biso   1.000  H
  H402     1.0000 0.25830  0.41290  0.37060  Biso   1.000  H
  H403     1.0000 0.25830  0.58710  0.62940  Biso   1.000  H
  H404     1.0000 0.74170  0.58710  0.37060  Biso   1.000  H
  H405     1.0000 0.41290  0.37060  0.25830  Biso   1.000  H
  H406     1.0000 0.41290  0.62940  0.74170  Biso   1.000  H
  H407     1.0000 0.58710  0.37060  0.74170  Biso   1.000  H
  H408     1.0000 0.58710  0.62940  0.25830  Biso   1.000  H
  H409     1.0000 0.74170  0.87060  0.91290  Biso   1.000  H
  H410     1.0000 0.25830  0.12940  0.91290  Biso   1.000  H
  H411     1.0000 0.25830  0.87060  0.08710  Biso   1.000  H
  H412     1.0000 0.74170  0.12940  0.08710  Biso   1.000  H
  H413     1.0000 0.41290  0.24170  0.87060  Biso   1.000  H
  H414     1.0000 0.41290  0.75830  0.12940  Biso   1.000  H
  H415     1.0000 0.58710  0.75830  0.87060  Biso   1.000  H
  H416     1.0000 0.58710  0.24170  0.12940  Biso   1.000  H
  H417     1.0000 0.37060  0.91290  0.24170  Biso   1.000  H
  H418     1.0000 0.62940  0.91290  0.75830  Biso   1.000  H
  H419     1.0000 0.37060  0.08710  0.75830  Biso   1.000  H
  H420     1.0000 0.62940  0.08710  0.24170  Biso   1.000  H
  H421     1.0000 0.37060  0.24170  0.08710  Biso   1.000  H
  H422     1.0000 0.62940  0.75830  0.08710  Biso   1.000  H
  H423     1.0000 0.37060  0.75830  0.91290  Biso   1.000  H
  H424     1.0000 0.62940  0.24170  0.91290  Biso   1.000  H
  H425     1.0000 0.74170  0.91290  0.12940  Biso   1.000  H
  H426     1.0000 0.25830  0.91290  0.87060  Biso   1.000  H
  H427     1.0000 0.25830  0.08710  0.12940  Biso   1.000  H
  H428     1.0000 0.74170  0.08710  0.87060  Biso   1.000  H
  H429     1.0000 0.41290  0.87060  0.75830  Biso   1.000  H
  H430     1.0000 0.41290  0.12940  0.24170  Biso   1.000  H
  H431     1.0000 0.58710  0.87060  0.24170  Biso   1.000  H
  H432     1.0000 0.58710  0.12940  0.75830  Biso   1.000  H
  H433     1.0000 0.24170  0.37060  0.91290  Biso   1.000  H
  H434     1.0000 0.75830  0.62940  0.91290  Biso   1.000  H
  H435     1.0000 0.75830  0.37060  0.08710  Biso   1.000  H
  H436     1.0000 0.24170  0.62940  0.08710  Biso   1.000  H
  H437     1.0000 0.91290  0.74170  0.87060  Biso   1.000  H
  H438     1.0000 0.91290  0.25830  0.12940  Biso   1.000  H
  H439     1.0000 0.08710  0.25830  0.87060  Biso   1.000  H
  H440     1.0000 0.08710  0.74170  0.12940  Biso   1.000  H
  H441     1.0000 0.87060  0.41290  0.24170  Biso   1.000  H
  H442     1.0000 0.12940  0.41290  0.75830  Biso   1.000  H
  H443     1.0000 0.87060  0.58710  0.75830  Biso   1.000  H
  H444     1.0000 0.12940  0.58710  0.24170  Biso   1.000  H
  H445     1.0000 0.87060  0.74170  0.08710  Biso   1.000  H
  H446     1.0000 0.12940  0.25830  0.08710  Biso   1.000  H
  H447     1.0000 0.87060  0.25830  0.91290  Biso   1.000  H
  H448     1.0000 0.12940  0.74170  0.91290  Biso   1.000  H
  H449     1.0000 0.24170  0.41290  0.12940  Biso   1.000  H
  H450     1.0000 0.75830  0.41290  0.87060  Biso   1.000  H
  H451     1.0000 0.75830  0.58710  0.12940  Biso   1.000  H
  H452     1.0000 0.24170  0.58710  0.87060  Biso   1.000  H
  H453     1.0000 0.91290  0.37060  0.75830  Biso   1.000  H
  H454     1.0000 0.91290  0.62940  0.24170  Biso   1.000  H
  H455     1.0000 0.08710  0.37060  0.24170  Biso   1.000  H
  H456     1.0000 0.08710  0.62940  0.75830  Biso   1.000  H
  H457     1.0000 0.24170  0.87060  0.41290  Biso   1.000  H
  H458     1.0000 0.75830  0.12940  0.41290  Biso   1.000  H
  H459     1.0000 0.75830  0.87060  0.58710  Biso   1.000  H
  H460     1.0000 0.24170  0.12940  0.58710  Biso   1.000  H
  H461     1.0000 0.91290  0.24170  0.37060  Biso   1.000  H
  H462     1.0000 0.91290  0.75830  0.62940  Biso   1.000  H
  H463     1.0000 0.08710  0.75830  0.37060  Biso   1.000  H
  H464     1.0000 0.08710  0.24170  0.62940  Biso   1.000  H
  H465     1.0000 0.87060  0.91290  0.74170  Biso   1.000  H
  H466     1.0000 0.12940  0.91290  0.25830  Biso   1.000  H
  H467     1.0000 0.87060  0.08710  0.25830  Biso   1.000  H
  H468     1.0000 0.12940  0.08710  0.74170  Biso   1.000  H
  H469     1.0000 0.87060  0.24170  0.58710  Biso   1.000  H
  H470     1.0000 0.12940  0.75830  0.58710  Biso   1.000  H
  H471     1.0000 0.87060  0.75830  0.41290  Biso   1.000  H
  H472     1.0000 0.12940  0.24170  0.41290  Biso   1.000  H
  H473     1.0000 0.24170  0.91290  0.62940  Biso   1.000  H
  H474     1.0000 0.75830  0.91290  0.37060  Biso   1.000  H
  H475     1.0000 0.75830  0.08710  0.62940  Biso   1.000  H
  H476     1.0000 0.24170  0.08710  0.37060  Biso   1.000  H
  H477     1.0000 0.91290  0.87060  0.25830  Biso   1.000  H
  H478     1.0000 0.91290  0.12940  0.74170  Biso   1.000  H
  H479     1.0000 0.08710  0.87060  0.74170  Biso   1.000  H
  H480     1.0000 0.08710  0.12940  0.25830  Biso   1.000  H
  C1441    1.0000 0.23400  0.63000  0.60600  Biso   1.000  C
  C1442    1.0000 0.76600  0.37000  0.60600  Biso   1.000  C
  C1443    1.0000 0.76600  0.63000  0.39400  Biso   1.000  C
  C1444    1.0000 0.23400  0.37000  0.39400  Biso   1.000  C
  C1445    1.0000 0.60600  0.23400  0.63000  Biso   1.000  C
  C1446    1.0000 0.60600  0.76600  0.37000  Biso   1.000  C
  C1447    1.0000 0.39400  0.76600  0.63000  Biso   1.000  C
  C1448    1.0000 0.39400  0.23400  0.37000  Biso   1.000  C
  C1449    1.0000 0.63000  0.60600  0.23400  Biso   1.000  C
  C1450    1.0000 0.37000  0.60600  0.76600  Biso   1.000  C
  C1451    1.0000 0.63000  0.39400  0.76600  Biso   1.000  C
  C1452    1.0000 0.37000  0.39400  0.23400  Biso   1.000  C
  C1453    1.0000 0.63000  0.23400  0.39400  Biso   1.000  C
  C1454    1.0000 0.37000  0.76600  0.39400  Biso   1.000  C
  C1455    1.0000 0.63000  0.76600  0.60600  Biso   1.000  C
  C1456    1.0000 0.37000  0.23400  0.60600  Biso   1.000  C
  C1457    1.0000 0.23400  0.60600  0.37000  Biso   1.000  C
  C1458    1.0000 0.76600  0.60600  0.63000  Biso   1.000  C
  C1459    1.0000 0.76600  0.39400  0.37000  Biso   1.000  C
  C1460    1.0000 0.23400  0.39400  0.63000  Biso   1.000  C
  C1461    1.0000 0.60600  0.63000  0.76600  Biso   1.000  C
  C1462    1.0000 0.60600  0.37000  0.23400  Biso   1.000  C
  C1463    1.0000 0.39400  0.63000  0.23400  Biso   1.000  C
  C1464    1.0000 0.39400  0.37000  0.76600  Biso   1.000  C
  C1465    1.0000 0.23400  0.13000  0.10600  Biso   1.000  C
  C1466    1.0000 0.76600  0.87000  0.10600  Biso   1.000  C
  C1467    1.0000 0.76600  0.13000  0.89400  Biso   1.000  C
  C1468    1.0000 0.23400  0.87000  0.89400  Biso   1.000  C
  C1469    1.0000 0.60600  0.73400  0.13000  Biso   1.000  C
  C1470    1.0000 0.60600  0.26600  0.87000  Biso   1.000  C
  C1471    1.0000 0.39400  0.26600  0.13000  Biso   1.000  C
  C1472    1.0000 0.39400  0.73400  0.87000  Biso   1.000  C
  C1473    1.0000 0.63000  0.10600  0.73400  Biso   1.000  C
  C1474    1.0000 0.37000  0.10600  0.26600  Biso   1.000  C
  C1475    1.0000 0.63000  0.89400  0.26600  Biso   1.000  C
  C1476    1.0000 0.37000  0.89400  0.73400  Biso   1.000  C
  C1477    1.0000 0.63000  0.73400  0.89400  Biso   1.000  C
  C1478    1.0000 0.37000  0.26600  0.89400  Biso   1.000  C
  C1479    1.0000 0.63000  0.26600  0.10600  Biso   1.000  C
  C1480    1.0000 0.37000  0.73400  0.10600  Biso   1.000  C
  C1481    1.0000 0.23400  0.10600  0.87000  Biso   1.000  C
  C1482    1.0000 0.76600  0.10600  0.13000  Biso   1.000  C
  C1483    1.0000 0.76600  0.89400  0.87000  Biso   1.000  C
  C1484    1.0000 0.23400  0.89400  0.13000  Biso   1.000  C
  C1485    1.0000 0.60600  0.13000  0.26600  Biso   1.000  C
  C1486    1.0000 0.60600  0.87000  0.73400  Biso   1.000  C
  C1487    1.0000 0.39400  0.13000  0.73400  Biso   1.000  C
  C1488    1.0000 0.39400  0.87000  0.26600  Biso   1.000  C
  C1489    1.0000 0.73400  0.63000  0.10600  Biso   1.000  C
  C1490    1.0000 0.26600  0.37000  0.10600  Biso   1.000  C
  C1491    1.0000 0.26600  0.63000  0.89400  Biso   1.000  C
  C1492    1.0000 0.73400  0.37000  0.89400  Biso   1.000  C
  C1493    1.0000 0.10600  0.23400  0.13000  Biso   1.000  C
  C1494    1.0000 0.10600  0.76600  0.87000  Biso   1.000  C
  C1495    1.0000 0.89400  0.76600  0.13000  Biso   1.000  C
  C1496    1.0000 0.89400  0.23400  0.87000  Biso   1.000  C
  C1497    1.0000 0.13000  0.60600  0.73400  Biso   1.000  C
  C1498    1.0000 0.87000  0.60600  0.26600  Biso   1.000  C
  C1499    1.0000 0.13000  0.39400  0.26600  Biso   1.000  C
  C1500    1.0000 0.87000  0.39400  0.73400  Biso   1.000  C
  C1501    1.0000 0.13000  0.23400  0.89400  Biso   1.000  C
  C1502    1.0000 0.87000  0.76600  0.89400  Biso   1.000  C
  C1503    1.0000 0.13000  0.76600  0.10600  Biso   1.000  C
  C1504    1.0000 0.87000  0.23400  0.10600  Biso   1.000  C
  C1505    1.0000 0.73400  0.60600  0.87000  Biso   1.000  C
  C1506    1.0000 0.26600  0.60600  0.13000  Biso   1.000  C
  C1507    1.0000 0.26600  0.39400  0.87000  Biso   1.000  C
  C1508    1.0000 0.73400  0.39400  0.13000  Biso   1.000  C
  C1509    1.0000 0.10600  0.63000  0.26600  Biso   1.000  C
  C1510    1.0000 0.10600  0.37000  0.73400  Biso   1.000  C
  C1511    1.0000 0.89400  0.63000  0.73400  Biso   1.000  C
  C1512    1.0000 0.89400  0.37000  0.26600  Biso   1.000  C
  C1513    1.0000 0.73400  0.13000  0.60600  Biso   1.000  C
  C1514    1.0000 0.26600  0.87000  0.60600  Biso   1.000  C
  C1515    1.0000 0.26600  0.13000  0.39400  Biso   1.000  C
  C1516    1.0000 0.73400  0.87000  0.39400  Biso   1.000  C
  C1517    1.0000 0.10600  0.73400  0.63000  Biso   1.000  C
  C1518    1.0000 0.10600  0.26600  0.37000  Biso   1.000  C
  C1519    1.0000 0.89400  0.26600  0.63000  Biso   1.000  C
  C1520    1.0000 0.89400  0.73400  0.37000  Biso   1.000  C
  C1521    1.0000 0.13000  0.10600  0.23400  Biso   1.000  C
  C1522    1.0000 0.87000  0.10600  0.76600  Biso   1.000  C
  C1523    1.0000 0.13000  0.89400  0.76600  Biso   1.000  C
  C1524    1.0000 0.87000  0.89400  0.23400  Biso   1.000  C
  C1525    1.0000 0.13000  0.73400  0.39400  Biso   1.000  C
  C1526    1.0000 0.87000  0.26600  0.39400  Biso   1.000  C
  C1527    1.0000 0.13000  0.26600  0.60600  Biso   1.000  C
  C1528    1.0000 0.87000  0.73400  0.60600  Biso   1.000  C
  C1529    1.0000 0.73400  0.10600  0.37000  Biso   1.000  C
  C1530    1.0000 0.26600  0.10600  0.63000  Biso   1.000  C
  C1531    1.0000 0.26600  0.89400  0.37000  Biso   1.000  C
  C1532    1.0000 0.73400  0.89400  0.63000  Biso   1.000  C
  C1533    1.0000 0.10600  0.13000  0.76600  Biso   1.000  C
  C1534    1.0000 0.10600  0.87000  0.23400  Biso   1.000  C
  C1535    1.0000 0.89400  0.13000  0.23400  Biso   1.000  C
  C1536    1.0000 0.89400  0.87000  0.76600  Biso   1.000  C
  C1537    1.0000 0.76600  0.37000  0.39400  Biso   1.000  C
  C1538    1.0000 0.23400  0.63000  0.39400  Biso   1.000  C
  C1539    1.0000 0.23400  0.37000  0.60600  Biso   1.000  C
  C1540    1.0000 0.76600  0.63000  0.60600  Biso   1.000  C
  C1541    1.0000 0.39400  0.76600  0.37000  Biso   1.000  C
  C1542    1.0000 0.39400  0.23400  0.63000  Biso   1.000  C
  C1543    1.0000 0.60600  0.23400  0.37000  Biso   1.000  C
  C1544    1.0000 0.60600  0.76600  0.63000  Biso   1.000  C
  C1545    1.0000 0.37000  0.39400  0.76600  Biso   1.000  C
  C1546    1.0000 0.63000  0.39400  0.23400  Biso   1.000  C
  C1547    1.0000 0.37000  0.60600  0.23400  Biso   1.000  C
  C1548    1.0000 0.63000  0.60600  0.76600  Biso   1.000  C
  C1549    1.0000 0.37000  0.76600  0.60600  Biso   1.000  C
  C1550    1.0000 0.63000  0.23400  0.60600  Biso   1.000  C
  C1551    1.0000 0.37000  0.23400  0.39400  Biso   1.000  C
  C1552    1.0000 0.63000  0.76600  0.39400  Biso   1.000  C
  C1553    1.0000 0.76600  0.39400  0.63000  Biso   1.000  C
  C1554    1.0000 0.23400  0.39400  0.37000  Biso   1.000  C
  C1555    1.0000 0.23400  0.60600  0.63000  Biso   1.000  C
  C1556    1.0000 0.76600  0.60600  0.37000  Biso   1.000  C
  C1557    1.0000 0.39400  0.37000  0.23400  Biso   1.000  C
  C1558    1.0000 0.39400  0.63000  0.76600  Biso   1.000  C
  C1559    1.0000 0.60600  0.37000  0.76600  Biso   1.000  C
  C1560    1.0000 0.60600  0.63000  0.23400  Biso   1.000  C
  C1561    1.0000 0.76600  0.87000  0.89400  Biso   1.000  C
  C1562    1.0000 0.23400  0.13000  0.89400  Biso   1.000  C
  C1563    1.0000 0.23400  0.87000  0.10600  Biso   1.000  C
  C1564    1.0000 0.76600  0.13000  0.10600  Biso   1.000  C
  C1565    1.0000 0.39400  0.26600  0.87000  Biso   1.000  C
  C1566    1.0000 0.39400  0.73400  0.13000  Biso   1.000  C
  C1567    1.0000 0.60600  0.73400  0.87000  Biso   1.000  C
  C1568    1.0000 0.60600  0.26600  0.13000  Biso   1.000  C
  C1569    1.0000 0.37000  0.89400  0.26600  Biso   1.000  C
  C1570    1.0000 0.63000  0.89400  0.73400  Biso   1.000  C
  C1571    1.0000 0.37000  0.10600  0.73400  Biso   1.000  C
  C1572    1.0000 0.63000  0.10600  0.26600  Biso   1.000  C
  C1573    1.0000 0.37000  0.26600  0.10600  Biso   1.000  C
  C1574    1.0000 0.63000  0.73400  0.10600  Biso   1.000  C
  C1575    1.0000 0.37000  0.73400  0.89400  Biso   1.000  C
  C1576    1.0000 0.63000  0.26600  0.89400  Biso   1.000  C
  C1577    1.0000 0.76600  0.89400  0.13000  Biso   1.000  C
  C1578    1.0000 0.23400  0.89400  0.87000  Biso   1.000  C
  C1579    1.0000 0.23400  0.10600  0.13000  Biso   1.000  C
  C1580    1.0000 0.76600  0.10600  0.87000  Biso   1.000  C
  C1581    1.0000 0.39400  0.87000  0.73400  Biso   1.000  C
  C1582    1.0000 0.39400  0.13000  0.26600  Biso   1.000  C
  C1583    1.0000 0.60600  0.87000  0.26600  Biso   1.000  C
  C1584    1.0000 0.60600  0.13000  0.73400  Biso   1.000  C
  C1585    1.0000 0.26600  0.37000  0.89400  Biso   1.000  C
  C1586    1.0000 0.73400  0.63000  0.89400  Biso   1.000  C
  C1587    1.0000 0.73400  0.37000  0.10600  Biso   1.000  C
  C1588    1.0000 0.26600  0.63000  0.10600  Biso   1.000  C
  C1589    1.0000 0.89400  0.76600  0.87000  Biso   1.000  C
  C1590    1.0000 0.89400  0.23400  0.13000  Biso   1.000  C
  C1591    1.0000 0.10600  0.23400  0.87000  Biso   1.000  C
  C1592    1.0000 0.10600  0.76600  0.13000  Biso   1.000  C
  C1593    1.0000 0.87000  0.39400  0.26600  Biso   1.000  C
  C1594    1.0000 0.13000  0.39400  0.73400  Biso   1.000  C
  C1595    1.0000 0.87000  0.60600  0.73400  Biso   1.000  C
  C1596    1.0000 0.13000  0.60600  0.26600  Biso   1.000  C
  C1597    1.0000 0.87000  0.76600  0.10600  Biso   1.000  C
  C1598    1.0000 0.13000  0.23400  0.10600  Biso   1.000  C
  C1599    1.0000 0.87000  0.23400  0.89400  Biso   1.000  C
  C1600    1.0000 0.13000  0.76600  0.89400  Biso   1.000  C
  C1601    1.0000 0.26600  0.39400  0.13000  Biso   1.000  C
  C1602    1.0000 0.73400  0.39400  0.87000  Biso   1.000  C
  C1603    1.0000 0.73400  0.60600  0.13000  Biso   1.000  C
  C1604    1.0000 0.26600  0.60600  0.87000  Biso   1.000  C
  C1605    1.0000 0.89400  0.37000  0.73400  Biso   1.000  C
  C1606    1.0000 0.89400  0.63000  0.26600  Biso   1.000  C
  C1607    1.0000 0.10600  0.37000  0.26600  Biso   1.000  C
  C1608    1.0000 0.10600  0.63000  0.73400  Biso   1.000  C
  C1609    1.0000 0.26600  0.87000  0.39400  Biso   1.000  C
  C1610    1.0000 0.73400  0.13000  0.39400  Biso   1.000  C
  C1611    1.0000 0.73400  0.87000  0.60600  Biso   1.000  C
  C1612    1.0000 0.26600  0.13000  0.60600  Biso   1.000  C
  C1613    1.0000 0.89400  0.26600  0.37000  Biso   1.000  C
  C1614    1.0000 0.89400  0.73400  0.63000  Biso   1.000  C
  C1615    1.0000 0.10600  0.73400  0.37000  Biso   1.000  C
  C1616    1.0000 0.10600  0.26600  0.63000  Biso   1.000  C
  C1617    1.0000 0.87000  0.89400  0.76600  Biso   1.000  C
  C1618    1.0000 0.13000  0.89400  0.23400  Biso   1.000  C
  C1619    1.0000 0.87000  0.10600  0.23400  Biso   1.000  C
  C1620    1.0000 0.13000  0.10600  0.76600  Biso   1.000  C
  C1621    1.0000 0.87000  0.26600  0.60600  Biso   1.000  C
  C1622    1.0000 0.13000  0.73400  0.60600  Biso   1.000  C
  C1623    1.0000 0.87000  0.73400  0.39400  Biso   1.000  C
  C1624    1.0000 0.13000  0.26600  0.39400  Biso   1.000  C
  C1625    1.0000 0.26600  0.89400  0.63000  Biso   1.000  C
  C1626    1.0000 0.73400  0.89400  0.37000  Biso   1.000  C
  C1627    1.0000 0.73400  0.10600  0.63000  Biso   1.000  C
  C1628    1.0000 0.26600  0.10600  0.37000  Biso   1.000  C
  C1629    1.0000 0.89400  0.87000  0.23400  Biso   1.000  C
  C1630    1.0000 0.89400  0.13000  0.76600  Biso   1.000  C
  C1631    1.0000 0.10600  0.87000  0.76600  Biso   1.000  C
  C1632    1.0000 0.10600  0.13000  0.23400  Biso   1.000  C
  H481     1.0000 0.22880  0.64230  0.59990  Biso   1.000  H
  H482     1.0000 0.77120  0.35770  0.59990  Biso   1.000  H
  H483     1.0000 0.77120  0.64230  0.40010  Biso   1.000  H
  H484     1.0000 0.22880  0.35770  0.40010  Biso   1.000  H
  H485     1.0000 0.59990  0.22880  0.64230  Biso   1.000  H
  H486     1.0000 0.59990  0.77120  0.35770  Biso   1.000  H
  H487     1.0000 0.40010  0.77120  0.64230  Biso   1.000  H
  H488     1.0000 0.40010  0.22880  0.35770  Biso   1.000  H
  H489     1.0000 0.64230  0.59990  0.22880  Biso   1.000  H
  H490     1.0000 0.35770  0.59990  0.77120  Biso   1.000  H
  H491     1.0000 0.64230  0.40010  0.77120  Biso   1.000  H
  H492     1.0000 0.35770  0.40010  0.22880  Biso   1.000  H
  H493     1.0000 0.64230  0.22880  0.40010  Biso   1.000  H
  H494     1.0000 0.35770  0.77120  0.40010  Biso   1.000  H
  H495     1.0000 0.64230  0.77120  0.59990  Biso   1.000  H
  H496     1.0000 0.35770  0.22880  0.59990  Biso   1.000  H
  H497     1.0000 0.22880  0.59990  0.35770  Biso   1.000  H
  H498     1.0000 0.77120  0.59990  0.64230  Biso   1.000  H
  H499     1.0000 0.77120  0.40010  0.35770  Biso   1.000  H
  H500     1.0000 0.22880  0.40010  0.64230  Biso   1.000  H
  H501     1.0000 0.59990  0.64230  0.77120  Biso   1.000  H
  H502     1.0000 0.59990  0.35770  0.22880  Biso   1.000  H
  H503     1.0000 0.40010  0.64230  0.22880  Biso   1.000  H
  H504     1.0000 0.40010  0.35770  0.77120  Biso   1.000  H
  H505     1.0000 0.22880  0.14230  0.09990  Biso   1.000  H
  H506     1.0000 0.77120  0.85770  0.09990  Biso   1.000  H
  H507     1.0000 0.77120  0.14230  0.90010  Biso   1.000  H
  H508     1.0000 0.22880  0.85770  0.90010  Biso   1.000  H
  H509     1.0000 0.59990  0.72880  0.14230  Biso   1.000  H
  H510     1.0000 0.59990  0.27120  0.85770  Biso   1.000  H
  H511     1.0000 0.40010  0.27120  0.14230  Biso   1.000  H
  H512     1.0000 0.40010  0.72880  0.85770  Biso   1.000  H
  H513     1.0000 0.64230  0.09990  0.72880  Biso   1.000  H
  H514     1.0000 0.35770  0.09990  0.27120  Biso   1.000  H
  H515     1.0000 0.64230  0.90010  0.27120  Biso   1.000  H
  H516     1.0000 0.35770  0.90010  0.72880  Biso   1.000  H
  H517     1.0000 0.64230  0.72880  0.90010  Biso   1.000  H
  H518     1.0000 0.35770  0.27120  0.90010  Biso   1.000  H
  H519     1.0000 0.64230  0.27120  0.09990  Biso   1.000  H
  H520     1.0000 0.35770  0.72880  0.09990  Biso   1.000  H
  H521     1.0000 0.22880  0.09990  0.85770  Biso   1.000  H
  H522     1.0000 0.77120  0.09990  0.14230  Biso   1.000  H
  H523     1.0000 0.77120  0.90010  0.85770  Biso   1.000  H
  H524     1.0000 0.22880  0.90010  0.14230  Biso   1.000  H
  H525     1.0000 0.59990  0.14230  0.27120  Biso   1.000  H
  H526     1.0000 0.59990  0.85770  0.72880  Biso   1.000  H
  H527     1.0000 0.40010  0.14230  0.72880  Biso   1.000  H
  H528     1.0000 0.40010  0.85770  0.27120  Biso   1.000  H
  H529     1.0000 0.72880  0.64230  0.09990  Biso   1.000  H
  H530     1.0000 0.27120  0.35770  0.09990  Biso   1.000  H
  H531     1.0000 0.27120  0.64230  0.90010  Biso   1.000  H
  H532     1.0000 0.72880  0.35770  0.90010  Biso   1.000  H
  H533     1.0000 0.09990  0.22880  0.14230  Biso   1.000  H
  H534     1.0000 0.09990  0.77120  0.85770  Biso   1.000  H
  H535     1.0000 0.90010  0.77120  0.14230  Biso   1.000  H
  H536     1.0000 0.90010  0.22880  0.85770  Biso   1.000  H
  H537     1.0000 0.14230  0.59990  0.72880  Biso   1.000  H
  H538     1.0000 0.85770  0.59990  0.27120  Biso   1.000  H
  H539     1.0000 0.14230  0.40010  0.27120  Biso   1.000  H
  H540     1.0000 0.85770  0.40010  0.72880  Biso   1.000  H
  H541     1.0000 0.14230  0.22880  0.90010  Biso   1.000  H
  H542     1.0000 0.85770  0.77120  0.90010  Biso   1.000  H
  H543     1.0000 0.14230  0.77120  0.09990  Biso   1.000  H
  H544     1.0000 0.85770  0.22880  0.09990  Biso   1.000  H
  H545     1.0000 0.72880  0.59990  0.85770  Biso   1.000  H
  H546     1.0000 0.27120  0.59990  0.14230  Biso   1.000  H
  H547     1.0000 0.27120  0.40010  0.85770  Biso   1.000  H
  H548     1.0000 0.72880  0.40010  0.14230  Biso   1.000  H
  H549     1.0000 0.09990  0.64230  0.27120  Biso   1.000  H
  H550     1.0000 0.09990  0.35770  0.72880  Biso   1.000  H
  H551     1.0000 0.90010  0.64230  0.72880  Biso   1.000  H
  H552     1.0000 0.90010  0.35770  0.27120  Biso   1.000  H
  H553     1.0000 0.72880  0.14230  0.59990  Biso   1.000  H
  H554     1.0000 0.27120  0.85770  0.59990  Biso   1.000  H
  H555     1.0000 0.27120  0.14230  0.40010  Biso   1.000  H
  H556     1.0000 0.72880  0.85770  0.40010  Biso   1.000  H
  H557     1.0000 0.09990  0.72880  0.64230  Biso   1.000  H
  H558     1.0000 0.09990  0.27120  0.35770  Biso   1.000  H
  H559     1.0000 0.90010  0.27120  0.64230  Biso   1.000  H
  H560     1.0000 0.90010  0.72880  0.35770  Biso   1.000  H
  H561     1.0000 0.14230  0.09990  0.22880  Biso   1.000  H
  H562     1.0000 0.85770  0.09990  0.77120  Biso   1.000  H
  H563     1.0000 0.14230  0.90010  0.77120  Biso   1.000  H
  H564     1.0000 0.85770  0.90010  0.22880  Biso   1.000  H
  H565     1.0000 0.14230  0.72880  0.40010  Biso   1.000  H
  H566     1.0000 0.85770  0.27120  0.40010  Biso   1.000  H
  H567     1.0000 0.14230  0.27120  0.59990  Biso   1.000  H
  H568     1.0000 0.85770  0.72880  0.59990  Biso   1.000  H
  H569     1.0000 0.72880  0.09990  0.35770  Biso   1.000  H
  H570     1.0000 0.27120  0.09990  0.64230  Biso   1.000  H
  H571     1.0000 0.27120  0.90010  0.35770  Biso   1.000  H
  H572     1.0000 0.72880  0.90010  0.64230  Biso   1.000  H
  H573     1.0000 0.09990  0.14230  0.77120  Biso   1.000  H
  H574     1.0000 0.09990  0.85770  0.22880  Biso   1.000  H
  H575     1.0000 0.90010  0.14230  0.22880  Biso   1.000  H
  H576     1.0000 0.90010  0.85770  0.77120  Biso   1.000  H
  H577     1.0000 0.77120  0.35770  0.40010  Biso   1.000  H
  H578     1.0000 0.22880  0.64230  0.40010  Biso   1.000  H
  H579     1.0000 0.22880  0.35770  0.59990  Biso   1.000  H
  H580     1.0000 0.77120  0.64230  0.59990  Biso   1.000  H
  H581     1.0000 0.40010  0.77120  0.35770  Biso   1.000  H
  H582     1.0000 0.40010  0.22880  0.64230  Biso   1.000  H
  H583     1.0000 0.59990  0.22880  0.35770  Biso   1.000  H
  H584     1.0000 0.59990  0.77120  0.64230  Biso   1.000  H
  H585     1.0000 0.35770  0.40010  0.77120  Biso   1.000  H
  H586     1.0000 0.64230  0.40010  0.22880  Biso   1.000  H
  H587     1.0000 0.35770  0.59990  0.22880  Biso   1.000  H
  H588     1.0000 0.64230  0.59990  0.77120  Biso   1.000  H
  H589     1.0000 0.35770  0.77120  0.59990  Biso   1.000  H
  H590     1.0000 0.64230  0.22880  0.59990  Biso   1.000  H
  H591     1.0000 0.35770  0.22880  0.40010  Biso   1.000  H
  H592     1.0000 0.64230  0.77120  0.40010  Biso   1.000  H
  H593     1.0000 0.77120  0.40010  0.64230  Biso   1.000  H
  H594     1.0000 0.22880  0.40010  0.35770  Biso   1.000  H
  H595     1.0000 0.22880  0.59990  0.64230  Biso   1.000  H
  H596     1.0000 0.77120  0.59990  0.35770  Biso   1.000  H
  H597     1.0000 0.40010  0.35770  0.22880  Biso   1.000  H
  H598     1.0000 0.40010  0.64230  0.77120  Biso   1.000  H
  H599     1.0000 0.59990  0.35770  0.77120  Biso   1.000  H
  H600     1.0000 0.59990  0.64230  0.22880  Biso   1.000  H
  H601     1.0000 0.77120  0.85770  0.90010  Biso   1.000  H
  H602     1.0000 0.22880  0.14230  0.90010  Biso   1.000  H
  H603     1.0000 0.22880  0.85770  0.09990  Biso   1.000  H
  H604     1.0000 0.77120  0.14230  0.09990  Biso   1.000  H
  H605     1.0000 0.40010  0.27120  0.85770  Biso   1.000  H
  H606     1.0000 0.40010  0.72880  0.14230  Biso   1.000  H
  H607     1.0000 0.59990  0.72880  0.85770  Biso   1.000  H
  H608     1.0000 0.59990  0.27120  0.14230  Biso   1.000  H
  H609     1.0000 0.35770  0.90010  0.27120  Biso   1.000  H
  H610     1.0000 0.64230  0.90010  0.72880  Biso   1.000  H
  H611     1.0000 0.35770  0.09990  0.72880  Biso   1.000  H
  H612     1.0000 0.64230  0.09990  0.27120  Biso   1.000  H
  H613     1.0000 0.35770  0.27120  0.09990  Biso   1.000  H
  H614     1.0000 0.64230  0.72880  0.09990  Biso   1.000  H
  H615     1.0000 0.35770  0.72880  0.90010  Biso   1.000  H
  H616     1.0000 0.64230  0.27120  0.90010  Biso   1.000  H
  H617     1.0000 0.77120  0.90010  0.14230  Biso   1.000  H
  H618     1.0000 0.22880  0.90010  0.85770  Biso   1.000  H
  H619     1.0000 0.22880  0.09990  0.14230  Biso   1.000  H
  H620     1.0000 0.77120  0.09990  0.85770  Biso   1.000  H
  H621     1.0000 0.40010  0.85770  0.72880  Biso   1.000  H
  H622     1.0000 0.40010  0.14230  0.27120  Biso   1.000  H
  H623     1.0000 0.59990  0.85770  0.27120  Biso   1.000  H
  H624     1.0000 0.59990  0.14230  0.72880  Biso   1.000  H
  H625     1.0000 0.27120  0.35770  0.90010  Biso   1.000  H
  H626     1.0000 0.72880  0.64230  0.90010  Biso   1.000  H
  H627     1.0000 0.72880  0.35770  0.09990  Biso   1.000  H
  H628     1.0000 0.27120  0.64230  0.09990  Biso   1.000  H
  H629     1.0000 0.90010  0.77120  0.85770  Biso   1.000  H
  H630     1.0000 0.90010  0.22880  0.14230  Biso   1.000  H
  H631     1.0000 0.09990  0.22880  0.85770  Biso   1.000  H
  H632     1.0000 0.09990  0.77120  0.14230  Biso   1.000  H
  H633     1.0000 0.85770  0.40010  0.27120  Biso   1.000  H
  H634     1.0000 0.14230  0.40010  0.72880  Biso   1.000  H
  H635     1.0000 0.85770  0.59990  0.72880  Biso   1.000  H
  H636     1.0000 0.14230  0.59990  0.27120  Biso   1.000  H
  H637     1.0000 0.85770  0.77120  0.09990  Biso   1.000  H
  H638     1.0000 0.14230  0.22880  0.09990  Biso   1.000  H
  H639     1.0000 0.85770  0.22880  0.90010  Biso   1.000  H
  H640     1.0000 0.14230  0.77120  0.90010  Biso   1.000  H
  H641     1.0000 0.27120  0.40010  0.14230  Biso   1.000  H
  H642     1.0000 0.72880  0.40010  0.85770  Biso   1.000  H
  H643     1.0000 0.72880  0.59990  0.14230  Biso   1.000  H
  H644     1.0000 0.27120  0.59990  0.85770  Biso   1.000  H
  H645     1.0000 0.90010  0.35770  0.72880  Biso   1.000  H
  H646     1.0000 0.90010  0.64230  0.27120  Biso   1.000  H
  H647     1.0000 0.09990  0.35770  0.27120  Biso   1.000  H
  H648     1.0000 0.09990  0.64230  0.72880  Biso   1.000  H
  H649     1.0000 0.27120  0.85770  0.40010  Biso   1.000  H
  H650     1.0000 0.72880  0.14230  0.40010  Biso   1.000  H
  H651     1.0000 0.72880  0.85770  0.59990  Biso   1.000  H
  H652     1.0000 0.27120  0.14230  0.59990  Biso   1.000  H
  H653     1.0000 0.90010  0.27120  0.35770  Biso   1.000  H
  H654     1.0000 0.90010  0.72880  0.64230  Biso   1.000  H
  H655     1.0000 0.09990  0.72880  0.35770  Biso   1.000  H
  H656     1.0000 0.09990  0.27120  0.64230  Biso   1.000  H
  H657     1.0000 0.85770  0.90010  0.77120  Biso   1.000  H
  H658     1.0000 0.14230  0.90010  0.22880  Biso   1.000  H
  H659     1.0000 0.85770  0.09990  0.22880  Biso   1.000  H
  H660     1.0000 0.14230  0.09990  0.77120  Biso   1.000  H
  H661     1.0000 0.85770  0.27120  0.59990  Biso   1.000  H
  H662     1.0000 0.14230  0.72880  0.59990  Biso   1.000  H
  H663     1.0000 0.85770  0.72880  0.40010  Biso   1.000  H
  H664     1.0000 0.14230  0.27120  0.40010  Biso   1.000  H
  H665     1.0000 0.27120  0.90010  0.64230  Biso   1.000  H
  H666     1.0000 0.72880  0.90010  0.35770  Biso   1.000  H
  H667     1.0000 0.72880  0.09990  0.64230  Biso   1.000  H
  H668     1.0000 0.27120  0.09990  0.35770  Biso   1.000  H
  H669     1.0000 0.90010  0.85770  0.22880  Biso   1.000  H
  H670     1.0000 0.90010  0.14230  0.77120  Biso   1.000  H
  H671     1.0000 0.09990  0.85770  0.77120  Biso   1.000  H
  H672     1.0000 0.09990  0.14230  0.22880  Biso   1.000  H
  C1633    1.0000 0.22300  0.62100  0.62100  Biso   1.000  C
  C1634    1.0000 0.77700  0.37900  0.62100  Biso   1.000  C
  C1635    1.0000 0.77700  0.62100  0.37900  Biso   1.000  C
  C1636    1.0000 0.22300  0.37900  0.37900  Biso   1.000  C
  C1637    1.0000 0.62100  0.22300  0.62100  Biso   1.000  C
  C1638    1.0000 0.62100  0.77700  0.37900  Biso   1.000  C
  C1639    1.0000 0.37900  0.77700  0.62100  Biso   1.000  C
  C1640    1.0000 0.37900  0.22300  0.37900  Biso   1.000  C
  C1641    1.0000 0.62100  0.62100  0.22300  Biso   1.000  C
  C1642    1.0000 0.37900  0.62100  0.77700  Biso   1.000  C
  C1643    1.0000 0.62100  0.37900  0.77700  Biso   1.000  C
  C1644    1.0000 0.37900  0.37900  0.22300  Biso   1.000  C
  C1645    1.0000 0.62100  0.22300  0.37900  Biso   1.000  C
  C1646    1.0000 0.37900  0.77700  0.37900  Biso   1.000  C
  C1647    1.0000 0.62100  0.77700  0.62100  Biso   1.000  C
  C1648    1.0000 0.37900  0.22300  0.62100  Biso   1.000  C
  C1649    1.0000 0.22300  0.62100  0.37900  Biso   1.000  C
  C1650    1.0000 0.77700  0.62100  0.62100  Biso   1.000  C
  C1651    1.0000 0.77700  0.37900  0.37900  Biso   1.000  C
  C1652    1.0000 0.22300  0.37900  0.62100  Biso   1.000  C
  C1653    1.0000 0.62100  0.62100  0.77700  Biso   1.000  C
  C1654    1.0000 0.62100  0.37900  0.22300  Biso   1.000  C
  C1655    1.0000 0.37900  0.62100  0.22300  Biso   1.000  C
  C1656    1.0000 0.37900  0.37900  0.77700  Biso   1.000  C
  C1657    1.0000 0.22300  0.12100  0.12100  Biso   1.000  C
  C1658    1.0000 0.77700  0.87900  0.12100  Biso   1.000  C
  C1659    1.0000 0.77700  0.12100  0.87900  Biso   1.000  C
  C1660    1.0000 0.22300  0.87900  0.87900  Biso   1.000  C
  C1661    1.0000 0.62100  0.72300  0.12100  Biso   1.000  C
  C1662    1.0000 0.62100  0.27700  0.87900  Biso   1.000  C
  C1663    1.0000 0.37900  0.27700  0.12100  Biso   1.000  C
  C1664    1.0000 0.37900  0.72300  0.87900  Biso   1.000  C
  C1665    1.0000 0.62100  0.12100  0.72300  Biso   1.000  C
  C1666    1.0000 0.37900  0.12100  0.27700  Biso   1.000  C
  C1667    1.0000 0.62100  0.87900  0.27700  Biso   1.000  C
  C1668    1.0000 0.37900  0.87900  0.72300  Biso   1.000  C
  C1669    1.0000 0.62100  0.72300  0.87900  Biso   1.000  C
  C1670    1.0000 0.37900  0.27700  0.87900  Biso   1.000  C
  C1671    1.0000 0.62100  0.27700  0.12100  Biso   1.000  C
  C1672    1.0000 0.37900  0.72300  0.12100  Biso   1.000  C
  C1673    1.0000 0.22300  0.12100  0.87900  Biso   1.000  C
  C1674    1.0000 0.77700  0.12100  0.12100  Biso   1.000  C
  C1675    1.0000 0.77700  0.87900  0.87900  Biso   1.000  C
  C1676    1.0000 0.22300  0.87900  0.12100  Biso   1.000  C
  C1677    1.0000 0.62100  0.12100  0.27700  Biso   1.000  C
  C1678    1.0000 0.62100  0.87900  0.72300  Biso   1.000  C
  C1679    1.0000 0.37900  0.12100  0.72300  Biso   1.000  C
  C1680    1.0000 0.37900  0.87900  0.27700  Biso   1.000  C
  C1681    1.0000 0.72300  0.62100  0.12100  Biso   1.000  C
  C1682    1.0000 0.27700  0.37900  0.12100  Biso   1.000  C
  C1683    1.0000 0.27700  0.62100  0.87900  Biso   1.000  C
  C1684    1.0000 0.72300  0.37900  0.87900  Biso   1.000  C
  C1685    1.0000 0.12100  0.22300  0.12100  Biso   1.000  C
  C1686    1.0000 0.12100  0.77700  0.87900  Biso   1.000  C
  C1687    1.0000 0.87900  0.77700  0.12100  Biso   1.000  C
  C1688    1.0000 0.87900  0.22300  0.87900  Biso   1.000  C
  C1689    1.0000 0.12100  0.62100  0.72300  Biso   1.000  C
  C1690    1.0000 0.87900  0.62100  0.27700  Biso   1.000  C
  C1691    1.0000 0.12100  0.37900  0.27700  Biso   1.000  C
  C1692    1.0000 0.87900  0.37900  0.72300  Biso   1.000  C
  C1693    1.0000 0.12100  0.22300  0.87900  Biso   1.000  C
  C1694    1.0000 0.87900  0.77700  0.87900  Biso   1.000  C
  C1695    1.0000 0.12100  0.77700  0.12100  Biso   1.000  C
  C1696    1.0000 0.87900  0.22300  0.12100  Biso   1.000  C
  C1697    1.0000 0.72300  0.62100  0.87900  Biso   1.000  C
  C1698    1.0000 0.27700  0.62100  0.12100  Biso   1.000  C
  C1699    1.0000 0.27700  0.37900  0.87900  Biso   1.000  C
  C1700    1.0000 0.72300  0.37900  0.12100  Biso   1.000  C
  C1701    1.0000 0.12100  0.62100  0.27700  Biso   1.000  C
  C1702    1.0000 0.12100  0.37900  0.72300  Biso   1.000  C
  C1703    1.0000 0.87900  0.62100  0.72300  Biso   1.000  C
  C1704    1.0000 0.87900  0.37900  0.27700  Biso   1.000  C
  C1705    1.0000 0.72300  0.12100  0.62100  Biso   1.000  C
  C1706    1.0000 0.27700  0.87900  0.62100  Biso   1.000  C
  C1707    1.0000 0.27700  0.12100  0.37900  Biso   1.000  C
  C1708    1.0000 0.72300  0.87900  0.37900  Biso   1.000  C
  C1709    1.0000 0.12100  0.72300  0.62100  Biso   1.000  C
  C1710    1.0000 0.12100  0.27700  0.37900  Biso   1.000  C
  C1711    1.0000 0.87900  0.27700  0.62100  Biso   1.000  C
  C1712    1.0000 0.87900  0.72300  0.37900  Biso   1.000  C
  C1713    1.0000 0.12100  0.12100  0.22300  Biso   1.000  C
  C1714    1.0000 0.87900  0.12100  0.77700  Biso   1.000  C
  C1715    1.0000 0.12100  0.87900  0.77700  Biso   1.000  C
  C1716    1.0000 0.87900  0.87900  0.22300  Biso   1.000  C
  C1717    1.0000 0.12100  0.72300  0.37900  Biso   1.000  C
  C1718    1.0000 0.87900  0.27700  0.37900  Biso   1.000  C
  C1719    1.0000 0.12100  0.27700  0.62100  Biso   1.000  C
  C1720    1.0000 0.87900  0.72300  0.62100  Biso   1.000  C
  C1721    1.0000 0.72300  0.12100  0.37900  Biso   1.000  C
  C1722    1.0000 0.27700  0.12100  0.62100  Biso   1.000  C
  C1723    1.0000 0.27700  0.87900  0.37900  Biso   1.000  C
  C1724    1.0000 0.72300  0.87900  0.62100  Biso   1.000  C
  C1725    1.0000 0.12100  0.12100  0.77700  Biso   1.000  C
  C1726    1.0000 0.12100  0.87900  0.22300  Biso   1.000  C
  C1727    1.0000 0.87900  0.12100  0.22300  Biso   1.000  C
  C1728    1.0000 0.87900  0.87900  0.77700  Biso   1.000  C
  C1729    1.0000 0.20400  0.62900  0.62900  Biso   1.000  C
  C1730    1.0000 0.79600  0.37100  0.62900  Biso   1.000  C
  C1731    1.0000 0.79600  0.62900  0.37100  Biso   1.000  C
  C1732    1.0000 0.20400  0.37100  0.37100  Biso   1.000  C
  C1733    1.0000 0.62900  0.20400  0.62900  Biso   1.000  C
  C1734    1.0000 0.62900  0.79600  0.37100  Biso   1.000  C
  C1735    1.0000 0.37100  0.79600  0.62900  Biso   1.000  C
  C1736    1.0000 0.37100  0.20400  0.37100  Biso   1.000  C
  C1737    1.0000 0.62900  0.62900  0.20400  Biso   1.000  C
  C1738    1.0000 0.37100  0.62900  0.79600  Biso   1.000  C
  C1739    1.0000 0.62900  0.37100  0.79600  Biso   1.000  C
  C1740    1.0000 0.37100  0.37100  0.20400  Biso   1.000  C
  C1741    1.0000 0.62900  0.20400  0.37100  Biso   1.000  C
  C1742    1.0000 0.37100  0.79600  0.37100  Biso   1.000  C
  C1743    1.0000 0.62900  0.79600  0.62900  Biso   1.000  C
  C1744    1.0000 0.37100  0.20400  0.62900  Biso   1.000  C
  C1745    1.0000 0.20400  0.62900  0.37100  Biso   1.000  C
  C1746    1.0000 0.79600  0.62900  0.62900  Biso   1.000  C
  C1747    1.0000 0.79600  0.37100  0.37100  Biso   1.000  C
  C1748    1.0000 0.20400  0.37100  0.62900  Biso   1.000  C
  C1749    1.0000 0.62900  0.62900  0.79600  Biso   1.000  C
  C1750    1.0000 0.62900  0.37100  0.20400  Biso   1.000  C
  C1751    1.0000 0.37100  0.62900  0.20400  Biso   1.000  C
  C1752    1.0000 0.37100  0.37100  0.79600  Biso   1.000  C
  C1753    1.0000 0.20400  0.12900  0.12900  Biso   1.000  C
  C1754    1.0000 0.79600  0.87100  0.12900  Biso   1.000  C
  C1755    1.0000 0.79600  0.12900  0.87100  Biso   1.000  C
  C1756    1.0000 0.20400  0.87100  0.87100  Biso   1.000  C
  C1757    1.0000 0.62900  0.70400  0.12900  Biso   1.000  C
  C1758    1.0000 0.62900  0.29600  0.87100  Biso   1.000  C
  C1759    1.0000 0.37100  0.29600  0.12900  Biso   1.000  C
  C1760    1.0000 0.37100  0.70400  0.87100  Biso   1.000  C
  C1761    1.0000 0.62900  0.12900  0.70400  Biso   1.000  C
  C1762    1.0000 0.37100  0.12900  0.29600  Biso   1.000  C
  C1763    1.0000 0.62900  0.87100  0.29600  Biso   1.000  C
  C1764    1.0000 0.37100  0.87100  0.70400  Biso   1.000  C
  C1765    1.0000 0.62900  0.70400  0.87100  Biso   1.000  C
  C1766    1.0000 0.37100  0.29600  0.87100  Biso   1.000  C
  C1767    1.0000 0.62900  0.29600  0.12900  Biso   1.000  C
  C1768    1.0000 0.37100  0.70400  0.12900  Biso   1.000  C
  C1769    1.0000 0.20400  0.12900  0.87100  Biso   1.000  C
  C1770    1.0000 0.79600  0.12900  0.12900  Biso   1.000  C
  C1771    1.0000 0.79600  0.87100  0.87100  Biso   1.000  C
  C1772    1.0000 0.20400  0.87100  0.12900  Biso   1.000  C
  C1773    1.0000 0.62900  0.12900  0.29600  Biso   1.000  C
  C1774    1.0000 0.62900  0.87100  0.70400  Biso   1.000  C
  C1775    1.0000 0.37100  0.12900  0.70400  Biso   1.000  C
  C1776    1.0000 0.37100  0.87100  0.29600  Biso   1.000  C
  C1777    1.0000 0.70400  0.62900  0.12900  Biso   1.000  C
  C1778    1.0000 0.29600  0.37100  0.12900  Biso   1.000  C
  C1779    1.0000 0.29600  0.62900  0.87100  Biso   1.000  C
  C1780    1.0000 0.70400  0.37100  0.87100  Biso   1.000  C
  C1781    1.0000 0.12900  0.20400  0.12900  Biso   1.000  C
  C1782    1.0000 0.12900  0.79600  0.87100  Biso   1.000  C
  C1783    1.0000 0.87100  0.79600  0.12900  Biso   1.000  C
  C1784    1.0000 0.87100  0.20400  0.87100  Biso   1.000  C
  C1785    1.0000 0.12900  0.62900  0.70400  Biso   1.000  C
  C1786    1.0000 0.87100  0.62900  0.29600  Biso   1.000  C
  C1787    1.0000 0.12900  0.37100  0.29600  Biso   1.000  C
  C1788    1.0000 0.87100  0.37100  0.70400  Biso   1.000  C
  C1789    1.0000 0.12900  0.20400  0.87100  Biso   1.000  C
  C1790    1.0000 0.87100  0.79600  0.87100  Biso   1.000  C
  C1791    1.0000 0.12900  0.79600  0.12900  Biso   1.000  C
  C1792    1.0000 0.87100  0.20400  0.12900  Biso   1.000  C
  C1793    1.0000 0.70400  0.62900  0.87100  Biso   1.000  C
  C1794    1.0000 0.29600  0.62900  0.12900  Biso   1.000  C
  C1795    1.0000 0.29600  0.37100  0.87100  Biso   1.000  C
  C1796    1.0000 0.70400  0.37100  0.12900  Biso   1.000  C
  C1797    1.0000 0.12900  0.62900  0.29600  Biso   1.000  C
  C1798    1.0000 0.12900  0.37100  0.70400  Biso   1.000  C
  C1799    1.0000 0.87100  0.62900  0.70400  Biso   1.000  C
  C1800    1.0000 0.87100  0.37100  0.29600  Biso   1.000  C
  C1801    1.0000 0.70400  0.12900  0.62900  Biso   1.000  C
  C1802    1.0000 0.29600  0.87100  0.62900  Biso   1.000  C
  C1803    1.0000 0.29600  0.12900  0.37100  Biso   1.000  C
  C1804    1.0000 0.70400  0.87100  0.37100  Biso   1.000  C
  C1805    1.0000 0.12900  0.70400  0.62900  Biso   1.000  C
  C1806    1.0000 0.12900  0.29600  0.37100  Biso   1.000  C
  C1807    1.0000 0.87100  0.29600  0.62900  Biso   1.000  C
  C1808    1.0000 0.87100  0.70400  0.37100  Biso   1.000  C
  C1809    1.0000 0.12900  0.12900  0.20400  Biso   1.000  C
  C1810    1.0000 0.87100  0.12900  0.79600  Biso   1.000  C
  C1811    1.0000 0.12900  0.87100  0.79600  Biso   1.000  C
  C1812    1.0000 0.87100  0.87100  0.20400  Biso   1.000  C
  C1813    1.0000 0.12900  0.70400  0.37100  Biso   1.000  C
  C1814    1.0000 0.87100  0.29600  0.37100  Biso   1.000  C
  C1815    1.0000 0.12900  0.29600  0.62900  Biso   1.000  C
  C1816    1.0000 0.87100  0.70400  0.62900  Biso   1.000  C
  C1817    1.0000 0.70400  0.12900  0.37100  Biso   1.000  C
  C1818    1.0000 0.29600  0.12900  0.62900  Biso   1.000  C
  C1819    1.0000 0.29600  0.87100  0.37100  Biso   1.000  C
  C1820    1.0000 0.70400  0.87100  0.62900  Biso   1.000  C
  C1821    1.0000 0.12900  0.12900  0.79600  Biso   1.000  C
  C1822    1.0000 0.12900  0.87100  0.20400  Biso   1.000  C
  C1823    1.0000 0.87100  0.12900  0.20400  Biso   1.000  C
  C1824    1.0000 0.87100  0.87100  0.79600  Biso   1.000  C
  C1825    1.0000 0.18900  0.63600  0.63600  Biso   1.000  C
  C1826    1.0000 0.81100  0.36400  0.63600  Biso   1.000  C
  C1827    1.0000 0.81100  0.63600  0.36400  Biso   1.000  C
  C1828    1.0000 0.18900  0.36400  0.36400  Biso   1.000  C
  C1829    1.0000 0.63600  0.18900  0.63600  Biso   1.000  C
  C1830    1.0000 0.63600  0.81100  0.36400  Biso   1.000  C
  C1831    1.0000 0.36400  0.81100  0.63600  Biso   1.000  C
  C1832    1.0000 0.36400  0.18900  0.36400  Biso   1.000  C
  C1833    1.0000 0.63600  0.63600  0.18900  Biso   1.000  C
  C1834    1.0000 0.36400  0.63600  0.81100  Biso   1.000  C
  C1835    1.0000 0.63600  0.36400  0.81100  Biso   1.000  C
  C1836    1.0000 0.36400  0.36400  0.18900  Biso   1.000  C
  C1837    1.0000 0.63600  0.18900  0.36400  Biso   1.000  C
  C1838    1.0000 0.36400  0.81100  0.36400  Biso   1.000  C
  C1839    1.0000 0.63600  0.81100  0.63600  Biso   1.000  C
  C1840    1.0000 0.36400  0.18900  0.63600  Biso   1.000  C
  C1841    1.0000 0.18900  0.63600  0.36400  Biso   1.000  C
  C1842    1.0000 0.81100  0.63600  0.63600  Biso   1.000  C
  C1843    1.0000 0.81100  0.36400  0.36400  Biso   1.000  C
  C1844    1.0000 0.18900  0.36400  0.63600  Biso   1.000  C
  C1845    1.0000 0.63600  0.63600  0.81100  Biso   1.000  C
  C1846    1.0000 0.63600  0.36400  0.18900  Biso   1.000  C
  C1847    1.0000 0.36400  0.63600  0.18900  Biso   1.000  C
  C1848    1.0000 0.36400  0.36400  0.81100  Biso   1.000  C
  C1849    1.0000 0.18900  0.13600  0.13600  Biso   1.000  C
  C1850    1.0000 0.81100  0.86400  0.13600  Biso   1.000  C
  C1851    1.0000 0.81100  0.13600  0.86400  Biso   1.000  C
  C1852    1.0000 0.18900  0.86400  0.86400  Biso   1.000  C
  C1853    1.0000 0.63600  0.68900  0.13600  Biso   1.000  C
  C1854    1.0000 0.63600  0.31100  0.86400  Biso   1.000  C
  C1855    1.0000 0.36400  0.31100  0.13600  Biso   1.000  C
  C1856    1.0000 0.36400  0.68900  0.86400  Biso   1.000  C
  C1857    1.0000 0.63600  0.13600  0.68900  Biso   1.000  C
  C1858    1.0000 0.36400  0.13600  0.31100  Biso   1.000  C
  C1859    1.0000 0.63600  0.86400  0.31100  Biso   1.000  C
  C1860    1.0000 0.36400  0.86400  0.68900  Biso   1.000  C
  C1861    1.0000 0.63600  0.68900  0.86400  Biso   1.000  C
  C1862    1.0000 0.36400  0.31100  0.86400  Biso   1.000  C
  C1863    1.0000 0.63600  0.31100  0.13600  Biso   1.000  C
  C1864    1.0000 0.36400  0.68900  0.13600  Biso   1.000  C
  C1865    1.0000 0.18900  0.13600  0.86400  Biso   1.000  C
  C1866    1.0000 0.81100  0.13600  0.13600  Biso   1.000  C
  C1867    1.0000 0.81100  0.86400  0.86400  Biso   1.000  C
  C1868    1.0000 0.18900  0.86400  0.13600  Biso   1.000  C
  C1869    1.0000 0.63600  0.13600  0.31100  Biso   1.000  C
  C1870    1.0000 0.63600  0.86400  0.68900  Biso   1.000  C
  C1871    1.0000 0.36400  0.13600  0.68900  Biso   1.000  C
  C1872    1.0000 0.36400  0.86400  0.31100  Biso   1.000  C
  C1873    1.0000 0.68900  0.63600  0.13600  Biso   1.000  C
  C1874    1.0000 0.31100  0.36400  0.13600  Biso   1.000  C
  C1875    1.0000 0.31100  0.63600  0.86400  Biso   1.000  C
  C1876    1.0000 0.68900  0.36400  0.86400  Biso   1.000  C
  C1877    1.0000 0.13600  0.18900  0.13600  Biso   1.000  C
  C1878    1.0000 0.13600  0.81100  0.86400  Biso   1.000  C
  C1879    1.0000 0.86400  0.81100  0.13600  Biso   1.000  C
  C1880    1.0000 0.86400  0.18900  0.86400  Biso   1.000  C
  C1881    1.0000 0.13600  0.63600  0.68900  Biso   1.000  C
  C1882    1.0000 0.86400  0.63600  0.31100  Biso   1.000  C
  C1883    1.0000 0.13600  0.36400  0.31100  Biso   1.000  C
  C1884    1.0000 0.86400  0.36400  0.68900  Biso   1.000  C
  C1885    1.0000 0.13600  0.18900  0.86400  Biso   1.000  C
  C1886    1.0000 0.86400  0.81100  0.86400  Biso   1.000  C
  C1887    1.0000 0.13600  0.81100  0.13600  Biso   1.000  C
  C1888    1.0000 0.86400  0.18900  0.13600  Biso   1.000  C
  C1889    1.0000 0.68900  0.63600  0.86400  Biso   1.000  C
  C1890    1.0000 0.31100  0.63600  0.13600  Biso   1.000  C
  C1891    1.0000 0.31100  0.36400  0.86400  Biso   1.000  C
  C1892    1.0000 0.68900  0.36400  0.13600  Biso   1.000  C
  C1893    1.0000 0.13600  0.63600  0.31100  Biso   1.000  C
  C1894    1.0000 0.13600  0.36400  0.68900  Biso   1.000  C
  C1895    1.0000 0.86400  0.63600  0.68900  Biso   1.000  C
  C1896    1.0000 0.86400  0.36400  0.31100  Biso   1.000  C
  C1897    1.0000 0.68900  0.13600  0.63600  Biso   1.000  C
  C1898    1.0000 0.31100  0.86400  0.63600  Biso   1.000  C
  C1899    1.0000 0.31100  0.13600  0.36400  Biso   1.000  C
  C1900    1.0000 0.68900  0.86400  0.36400  Biso   1.000  C
  C1901    1.0000 0.13600  0.68900  0.63600  Biso   1.000  C
  C1902    1.0000 0.13600  0.31100  0.36400  Biso   1.000  C
  C1903    1.0000 0.86400  0.31100  0.63600  Biso   1.000  C
  C1904    1.0000 0.86400  0.68900  0.36400  Biso   1.000  C
  C1905    1.0000 0.13600  0.13600  0.18900  Biso   1.000  C
  C1906    1.0000 0.86400  0.13600  0.81100  Biso   1.000  C
  C1907    1.0000 0.13600  0.86400  0.81100  Biso   1.000  C
  C1908    1.0000 0.86400  0.86400  0.18900  Biso   1.000  C
  C1909    1.0000 0.13600  0.68900  0.36400  Biso   1.000  C
  C1910    1.0000 0.86400  0.31100  0.36400  Biso   1.000  C
  C1911    1.0000 0.13600  0.31100  0.63600  Biso   1.000  C
  C1912    1.0000 0.86400  0.68900  0.63600  Biso   1.000  C
  C1913    1.0000 0.68900  0.13600  0.36400  Biso   1.000  C
  C1914    1.0000 0.31100  0.13600  0.63600  Biso   1.000  C
  C1915    1.0000 0.31100  0.86400  0.36400  Biso   1.000  C
  C1916    1.0000 0.68900  0.86400  0.63600  Biso   1.000  C
  C1917    1.0000 0.13600  0.13600  0.81100  Biso   1.000  C
  C1918    1.0000 0.13600  0.86400  0.18900  Biso   1.000  C
  C1919    1.0000 0.86400  0.13600  0.18900  Biso   1.000  C
  C1920    1.0000 0.86400  0.86400  0.81100  Biso   1.000  C
  C1921    1.0000 0.17000  0.64400  0.64400  Biso   1.000  C
  C1922    1.0000 0.83000  0.35600  0.64400  Biso   1.000  C
  C1923    1.0000 0.83000  0.64400  0.35600  Biso   1.000  C
  C1924    1.0000 0.17000  0.35600  0.35600  Biso   1.000  C
  C1925    1.0000 0.64400  0.17000  0.64400  Biso   1.000  C
  C1926    1.0000 0.64400  0.83000  0.35600  Biso   1.000  C
  C1927    1.0000 0.35600  0.83000  0.64400  Biso   1.000  C
  C1928    1.0000 0.35600  0.17000  0.35600  Biso   1.000  C
  C1929    1.0000 0.64400  0.64400  0.17000  Biso   1.000  C
  C1930    1.0000 0.35600  0.64400  0.83000  Biso   1.000  C
  C1931    1.0000 0.64400  0.35600  0.83000  Biso   1.000  C
  C1932    1.0000 0.35600  0.35600  0.17000  Biso   1.000  C
  C1933    1.0000 0.64400  0.17000  0.35600  Biso   1.000  C
  C1934    1.0000 0.35600  0.83000  0.35600  Biso   1.000  C
  C1935    1.0000 0.64400  0.83000  0.64400  Biso   1.000  C
  C1936    1.0000 0.35600  0.17000  0.64400  Biso   1.000  C
  C1937    1.0000 0.17000  0.64400  0.35600  Biso   1.000  C
  C1938    1.0000 0.83000  0.64400  0.64400  Biso   1.000  C
  C1939    1.0000 0.83000  0.35600  0.35600  Biso   1.000  C
  C1940    1.0000 0.17000  0.35600  0.64400  Biso   1.000  C
  C1941    1.0000 0.64400  0.64400  0.83000  Biso   1.000  C
  C1942    1.0000 0.64400  0.35600  0.17000  Biso   1.000  C
  C1943    1.0000 0.35600  0.64400  0.17000  Biso   1.000  C
  C1944    1.0000 0.35600  0.35600  0.83000  Biso   1.000  C
  C1945    1.0000 0.17000  0.14400  0.14400  Biso   1.000  C
  C1946    1.0000 0.83000  0.85600  0.14400  Biso   1.000  C
  C1947    1.0000 0.83000  0.14400  0.85600  Biso   1.000  C
  C1948    1.0000 0.17000  0.85600  0.85600  Biso   1.000  C
  C1949    1.0000 0.64400  0.67000  0.14400  Biso   1.000  C
  C1950    1.0000 0.64400  0.33000  0.85600  Biso   1.000  C
  C1951    1.0000 0.35600  0.33000  0.14400  Biso   1.000  C
  C1952    1.0000 0.35600  0.67000  0.85600  Biso   1.000  C
  C1953    1.0000 0.64400  0.14400  0.67000  Biso   1.000  C
  C1954    1.0000 0.35600  0.14400  0.33000  Biso   1.000  C
  C1955    1.0000 0.64400  0.85600  0.33000  Biso   1.000  C
  C1956    1.0000 0.35600  0.85600  0.67000  Biso   1.000  C
  C1957    1.0000 0.64400  0.67000  0.85600  Biso   1.000  C
  C1958    1.0000 0.35600  0.33000  0.85600  Biso   1.000  C
  C1959    1.0000 0.64400  0.33000  0.14400  Biso   1.000  C
  C1960    1.0000 0.35600  0.67000  0.14400  Biso   1.000  C
  C1961    1.0000 0.17000  0.14400  0.85600  Biso   1.000  C
  C1962    1.0000 0.83000  0.14400  0.14400  Biso   1.000  C
  C1963    1.0000 0.83000  0.85600  0.85600  Biso   1.000  C
  C1964    1.0000 0.17000  0.85600  0.14400  Biso   1.000  C
  C1965    1.0000 0.64400  0.14400  0.33000  Biso   1.000  C
  C1966    1.0000 0.64400  0.85600  0.67000  Biso   1.000  C
  C1967    1.0000 0.35600  0.14400  0.67000  Biso   1.000  C
  C1968    1.0000 0.35600  0.85600  0.33000  Biso   1.000  C
  C1969    1.0000 0.67000  0.64400  0.14400  Biso   1.000  C
  C1970    1.0000 0.33000  0.35600  0.14400  Biso   1.000  C
  C1971    1.0000 0.33000  0.64400  0.85600  Biso   1.000  C
  C1972    1.0000 0.67000  0.35600  0.85600  Biso   1.000  C
  C1973    1.0000 0.14400  0.17000  0.14400  Biso   1.000  C
  C1974    1.0000 0.14400  0.83000  0.85600  Biso   1.000  C
  C1975    1.0000 0.85600  0.83000  0.14400  Biso   1.000  C
  C1976    1.0000 0.85600  0.17000  0.85600  Biso   1.000  C
  C1977    1.0000 0.14400  0.64400  0.67000  Biso   1.000  C
  C1978    1.0000 0.85600  0.64400  0.33000  Biso   1.000  C
  C1979    1.0000 0.14400  0.35600  0.33000  Biso   1.000  C
  C1980    1.0000 0.85600  0.35600  0.67000  Biso   1.000  C
  C1981    1.0000 0.14400  0.17000  0.85600  Biso   1.000  C
  C1982    1.0000 0.85600  0.83000  0.85600  Biso   1.000  C
  C1983    1.0000 0.14400  0.83000  0.14400  Biso   1.000  C
  C1984    1.0000 0.85600  0.17000  0.14400  Biso   1.000  C
  C1985    1.0000 0.67000  0.64400  0.85600  Biso   1.000  C
  C1986    1.0000 0.33000  0.64400  0.14400  Biso   1.000  C
  C1987    1.0000 0.33000  0.35600  0.85600  Biso   1.000  C
  C1988    1.0000 0.67000  0.35600  0.14400  Biso   1.000  C
  C1989    1.0000 0.14400  0.64400  0.33000  Biso   1.000  C
  C1990    1.0000 0.14400  0.35600  0.67000  Biso   1.000  C
  C1991    1.0000 0.85600  0.64400  0.67000  Biso   1.000  C
  C1992    1.0000 0.85600  0.35600  0.33000  Biso   1.000  C
  C1993    1.0000 0.67000  0.14400  0.64400  Biso   1.000  C
  C1994    1.0000 0.33000  0.85600  0.64400  Biso   1.000  C
  C1995    1.0000 0.33000  0.14400  0.35600  Biso   1.000  C
  C1996    1.0000 0.67000  0.85600  0.35600  Biso   1.000  C
  C1997    1.0000 0.14400  0.67000  0.64400  Biso   1.000  C
  C1998    1.0000 0.14400  0.33000  0.35600  Biso   1.000  C
  C1999    1.0000 0.85600  0.33000  0.64400  Biso   1.000  C
  C2000    1.0000 0.85600  0.67000  0.35600  Biso   1.000  C
  C2001    1.0000 0.14400  0.14400  0.17000  Biso   1.000  C
  C2002    1.0000 0.85600  0.14400  0.83000  Biso   1.000  C
  C2003    1.0000 0.14400  0.85600  0.83000  Biso   1.000  C
  C2004    1.0000 0.85600  0.85600  0.17000  Biso   1.000  C
  C2005    1.0000 0.14400  0.67000  0.35600  Biso   1.000  C
  C2006    1.0000 0.85600  0.33000  0.35600  Biso   1.000  C
  C2007    1.0000 0.14400  0.33000  0.64400  Biso   1.000  C
  C2008    1.0000 0.85600  0.67000  0.64400  Biso   1.000  C
  C2009    1.0000 0.67000  0.14400  0.35600  Biso   1.000  C
  C2010    1.0000 0.33000  0.14400  0.64400  Biso   1.000  C
  C2011    1.0000 0.33000  0.85600  0.35600  Biso   1.000  C
  C2012    1.0000 0.67000  0.85600  0.64400  Biso   1.000  C
  C2013    1.0000 0.14400  0.14400  0.83000  Biso   1.000  C
  C2014    1.0000 0.14400  0.85600  0.17000  Biso   1.000  C
  C2015    1.0000 0.85600  0.14400  0.17000  Biso   1.000  C
  C2016    1.0000 0.85600  0.85600  0.83000  Biso   1.000  C
  C2017    1.0000 0.16200  0.66200  0.63700  Biso   1.000  C
  C2018    1.0000 0.83800  0.33800  0.63700  Biso   1.000  C
  C2019    1.0000 0.83800  0.66200  0.36300  Biso   1.000  C
  C2020    1.0000 0.16200  0.33800  0.36300  Biso   1.000  C
  C2021    1.0000 0.63700  0.16200  0.66200  Biso   1.000  C
  C2022    1.0000 0.63700  0.83800  0.33800  Biso   1.000  C
  C2023    1.0000 0.36300  0.83800  0.66200  Biso   1.000  C
  C2024    1.0000 0.36300  0.16200  0.33800  Biso   1.000  C
  C2025    1.0000 0.66200  0.63700  0.16200  Biso   1.000  C
  C2026    1.0000 0.33800  0.63700  0.83800  Biso   1.000  C
  C2027    1.0000 0.66200  0.36300  0.83800  Biso   1.000  C
  C2028    1.0000 0.33800  0.36300  0.16200  Biso   1.000  C
  C2029    1.0000 0.66200  0.16200  0.36300  Biso   1.000  C
  C2030    1.0000 0.33800  0.83800  0.36300  Biso   1.000  C
  C2031    1.0000 0.66200  0.83800  0.63700  Biso   1.000  C
  C2032    1.0000 0.33800  0.16200  0.63700  Biso   1.000  C
  C2033    1.0000 0.16200  0.63700  0.33800  Biso   1.000  C
  C2034    1.0000 0.83800  0.63700  0.66200  Biso   1.000  C
  C2035    1.0000 0.83800  0.36300  0.33800  Biso   1.000  C
  C2036    1.0000 0.16200  0.36300  0.66200  Biso   1.000  C
  C2037    1.0000 0.63700  0.66200  0.83800  Biso   1.000  C
  C2038    1.0000 0.63700  0.33800  0.16200  Biso   1.000  C
  C2039    1.0000 0.36300  0.66200  0.16200  Biso   1.000  C
  C2040    1.0000 0.36300  0.33800  0.83800  Biso   1.000  C
  C2041    1.0000 0.16200  0.16200  0.13700  Biso   1.000  C
  C2042    1.0000 0.83800  0.83800  0.13700  Biso   1.000  C
  C2043    1.0000 0.83800  0.16200  0.86300  Biso   1.000  C
  C2044    1.0000 0.16200  0.83800  0.86300  Biso   1.000  C
  C2045    1.0000 0.63700  0.66200  0.16200  Biso   1.000  C
  C2046    1.0000 0.63700  0.33800  0.83800  Biso   1.000  C
  C2047    1.0000 0.36300  0.33800  0.16200  Biso   1.000  C
  C2048    1.0000 0.36300  0.66200  0.83800  Biso   1.000  C
  C2049    1.0000 0.66200  0.13700  0.66200  Biso   1.000  C
  C2050    1.0000 0.33800  0.13700  0.33800  Biso   1.000  C
  C2051    1.0000 0.66200  0.86300  0.33800  Biso   1.000  C
  C2052    1.0000 0.33800  0.86300  0.66200  Biso   1.000  C
  C2053    1.0000 0.66200  0.66200  0.86300  Biso   1.000  C
  C2054    1.0000 0.33800  0.33800  0.86300  Biso   1.000  C
  C2055    1.0000 0.66200  0.33800  0.13700  Biso   1.000  C
  C2056    1.0000 0.33800  0.66200  0.13700  Biso   1.000  C
  C2057    1.0000 0.16200  0.13700  0.83800  Biso   1.000  C
  C2058    1.0000 0.83800  0.13700  0.16200  Biso   1.000  C
  C2059    1.0000 0.83800  0.86300  0.83800  Biso   1.000  C
  C2060    1.0000 0.16200  0.86300  0.16200  Biso   1.000  C
  C2061    1.0000 0.63700  0.16200  0.33800  Biso   1.000  C
  C2062    1.0000 0.63700  0.83800  0.66200  Biso   1.000  C
  C2063    1.0000 0.36300  0.16200  0.66200  Biso   1.000  C
  C2064    1.0000 0.36300  0.83800  0.33800  Biso   1.000  C
  C2065    1.0000 0.66200  0.66200  0.13700  Biso   1.000  C
  C2066    1.0000 0.33800  0.33800  0.13700  Biso   1.000  C
  C2067    1.0000 0.33800  0.66200  0.86300  Biso   1.000  C
  C2068    1.0000 0.66200  0.33800  0.86300  Biso   1.000  C
  C2069    1.0000 0.13700  0.16200  0.16200  Biso   1.000  C
  C2070    1.0000 0.13700  0.83800  0.83800  Biso   1.000  C
  C2071    1.0000 0.86300  0.83800  0.16200  Biso   1.000  C
  C2072    1.0000 0.86300  0.16200  0.83800  Biso   1.000  C
  C2073    1.0000 0.16200  0.63700  0.66200  Biso   1.000  C
  C2074    1.0000 0.83800  0.63700  0.33800  Biso   1.000  C
  C2075    1.0000 0.16200  0.36300  0.33800  Biso   1.000  C
  C2076    1.0000 0.83800  0.36300  0.66200  Biso   1.000  C
  C2077    1.0000 0.16200  0.16200  0.86300  Biso   1.000  C
  C2078    1.0000 0.83800  0.83800  0.86300  Biso   1.000  C
  C2079    1.0000 0.16200  0.83800  0.13700  Biso   1.000  C
  C2080    1.0000 0.83800  0.16200  0.13700  Biso   1.000  C
  C2081    1.0000 0.66200  0.63700  0.83800  Biso   1.000  C
  C2082    1.0000 0.33800  0.63700  0.16200  Biso   1.000  C
  C2083    1.0000 0.33800  0.36300  0.83800  Biso   1.000  C
  C2084    1.0000 0.66200  0.36300  0.16200  Biso   1.000  C
  C2085    1.0000 0.13700  0.66200  0.33800  Biso   1.000  C
  C2086    1.0000 0.13700  0.33800  0.66200  Biso   1.000  C
  C2087    1.0000 0.86300  0.66200  0.66200  Biso   1.000  C
  C2088    1.0000 0.86300  0.33800  0.33800  Biso   1.000  C
  C2089    1.0000 0.66200  0.16200  0.63700  Biso   1.000  C
  C2090    1.0000 0.33800  0.83800  0.63700  Biso   1.000  C
  C2091    1.0000 0.33800  0.16200  0.36300  Biso   1.000  C
  C2092    1.0000 0.66200  0.83800  0.36300  Biso   1.000  C
  C2093    1.0000 0.13700  0.66200  0.66200  Biso   1.000  C
  C2094    1.0000 0.13700  0.33800  0.33800  Biso   1.000  C
  C2095    1.0000 0.86300  0.33800  0.66200  Biso   1.000  C
  C2096    1.0000 0.86300  0.66200  0.33800  Biso   1.000  C
  C2097    1.0000 0.16200  0.13700  0.16200  Biso   1.000  C
  C2098    1.0000 0.83800  0.13700  0.83800  Biso   1.000  C
  C2099    1.0000 0.16200  0.86300  0.83800  Biso   1.000  C
  C2100    1.0000 0.83800  0.86300  0.16200  Biso   1.000  C
  C2101    1.0000 0.16200  0.66200  0.36300  Biso   1.000  C
  C2102    1.0000 0.83800  0.33800  0.36300  Biso   1.000  C
  C2103    1.0000 0.16200  0.33800  0.63700  Biso   1.000  C
  C2104    1.0000 0.83800  0.66200  0.63700  Biso   1.000  C
  C2105    1.0000 0.66200  0.13700  0.33800  Biso   1.000  C
  C2106    1.0000 0.33800  0.13700  0.66200  Biso   1.000  C
  C2107    1.0000 0.33800  0.86300  0.33800  Biso   1.000  C
  C2108    1.0000 0.66200  0.86300  0.66200  Biso   1.000  C
  C2109    1.0000 0.13700  0.16200  0.83800  Biso   1.000  C
  C2110    1.0000 0.13700  0.83800  0.16200  Biso   1.000  C
  C2111    1.0000 0.86300  0.16200  0.16200  Biso   1.000  C
  C2112    1.0000 0.86300  0.83800  0.83800  Biso   1.000  C
  H673     1.0000 0.16860  0.66860  0.62620  Biso   1.000  H
  H674     1.0000 0.83140  0.33140  0.62620  Biso   1.000  H
  H675     1.0000 0.83140  0.66860  0.37380  Biso   1.000  H
  H676     1.0000 0.16860  0.33140  0.37380  Biso   1.000  H
  H677     1.0000 0.62620  0.16860  0.66860  Biso   1.000  H
  H678     1.0000 0.62620  0.83140  0.33140  Biso   1.000  H
  H679     1.0000 0.37380  0.83140  0.66860  Biso   1.000  H
  H680     1.0000 0.37380  0.16860  0.33140  Biso   1.000  H
  H681     1.0000 0.66860  0.62620  0.16860  Biso   1.000  H
  H682     1.0000 0.33140  0.62620  0.83140  Biso   1.000  H
  H683     1.0000 0.66860  0.37380  0.83140  Biso   1.000  H
  H684     1.0000 0.33140  0.37380  0.16860  Biso   1.000  H
  H685     1.0000 0.66860  0.16860  0.37380  Biso   1.000  H
  H686     1.0000 0.33140  0.83140  0.37380  Biso   1.000  H
  H687     1.0000 0.66860  0.83140  0.62620  Biso   1.000  H
  H688     1.0000 0.33140  0.16860  0.62620  Biso   1.000  H
  H689     1.0000 0.16860  0.62620  0.33140  Biso   1.000  H
  H690     1.0000 0.83140  0.62620  0.66860  Biso   1.000  H
  H691     1.0000 0.83140  0.37380  0.33140  Biso   1.000  H
  H692     1.0000 0.16860  0.37380  0.66860  Biso   1.000  H
  H693     1.0000 0.62620  0.66860  0.83140  Biso   1.000  H
  H694     1.0000 0.62620  0.33140  0.16860  Biso   1.000  H
  H695     1.0000 0.37380  0.66860  0.16860  Biso   1.000  H
  H696     1.0000 0.37380  0.33140  0.83140  Biso   1.000  H
  H697     1.0000 0.16860  0.16860  0.12620  Biso   1.000  H
  H698     1.0000 0.83140  0.83140  0.12620  Biso   1.000  H
  H699     1.0000 0.83140  0.16860  0.87380  Biso   1.000  H
  H700     1.0000 0.16860  0.83140  0.87380  Biso   1.000  H
  H701     1.0000 0.62620  0.66860  0.16860  Biso   1.000  H
  H702     1.0000 0.62620  0.33140  0.83140  Biso   1.000  H
  H703     1.0000 0.37380  0.33140  0.16860  Biso   1.000  H
  H704     1.0000 0.37380  0.66860  0.83140  Biso   1.000  H
  H705     1.0000 0.66860  0.12620  0.66860  Biso   1.000  H
  H706     1.0000 0.33140  0.12620  0.33140  Biso   1.000  H
  H707     1.0000 0.66860  0.87380  0.33140  Biso   1.000  H
  H708     1.0000 0.33140  0.87380  0.66860  Biso   1.000  H
  H709     1.0000 0.66860  0.66860  0.87380  Biso   1.000  H
  H710     1.0000 0.33140  0.33140  0.87380  Biso   1.000  H
  H711     1.0000 0.66860  0.33140  0.12620  Biso   1.000  H
  H712     1.0000 0.33140  0.66860  0.12620  Biso   1.000  H
  H713     1.0000 0.16860  0.12620  0.83140  Biso   1.000  H
  H714     1.0000 0.83140  0.12620  0.16860  Biso   1.000  H
  H715     1.0000 0.83140  0.87380  0.83140  Biso   1.000  H
  H716     1.0000 0.16860  0.87380  0.16860  Biso   1.000  H
  H717     1.0000 0.62620  0.16860  0.33140  Biso   1.000  H
  H718     1.0000 0.62620  0.83140  0.66860  Biso   1.000  H
  H719     1.0000 0.37380  0.16860  0.66860  Biso   1.000  H
  H720     1.0000 0.37380  0.83140  0.33140  Biso   1.000  H
  H721     1.0000 0.66860  0.66860  0.12620  Biso   1.000  H
  H722     1.0000 0.33140  0.33140  0.12620  Biso   1.000  H
  H723     1.0000 0.33140  0.66860  0.87380  Biso   1.000  H
  H724     1.0000 0.66860  0.33140  0.87380  Biso   1.000  H
  H725     1.0000 0.12620  0.16860  0.16860  Biso   1.000  H
  H726     1.0000 0.12620  0.83140  0.83140  Biso   1.000  H
  H727     1.0000 0.87380  0.83140  0.16860  Biso   1.000  H
  H728     1.0000 0.87380  0.16860  0.83140  Biso   1.000  H
  H729     1.0000 0.16860  0.62620  0.66860  Biso   1.000  H
  H730     1.0000 0.83140  0.62620  0.33140  Biso   1.000  H
  H731     1.0000 0.16860  0.37380  0.33140  Biso   1.000  H
  H732     1.0000 0.83140  0.37380  0.66860  Biso   1.000  H
  H733     1.0000 0.16860  0.16860  0.87380  Biso   1.000  H
  H734     1.0000 0.83140  0.83140  0.87380  Biso   1.000  H
  H735     1.0000 0.16860  0.83140  0.12620  Biso   1.000  H
  H736     1.0000 0.83140  0.16860  0.12620  Biso   1.000  H
  H737     1.0000 0.66860  0.62620  0.83140  Biso   1.000  H
  H738     1.0000 0.33140  0.62620  0.16860  Biso   1.000  H
  H739     1.0000 0.33140  0.37380  0.83140  Biso   1.000  H
  H740     1.0000 0.66860  0.37380  0.16860  Biso   1.000  H
  H741     1.0000 0.12620  0.66860  0.33140  Biso   1.000  H
  H742     1.0000 0.12620  0.33140  0.66860  Biso   1.000  H
  H743     1.0000 0.87380  0.66860  0.66860  Biso   1.000  H
  H744     1.0000 0.87380  0.33140  0.33140  Biso   1.000  H
  H745     1.0000 0.66860  0.16860  0.62620  Biso   1.000  H
  H746     1.0000 0.33140  0.83140  0.62620  Biso   1.000  H
  H747     1.0000 0.33140  0.16860  0.37380  Biso   1.000  H
  H748     1.0000 0.66860  0.83140  0.37380  Biso   1.000  H
  H749     1.0000 0.12620  0.66860  0.66860  Biso   1.000  H
  H750     1.0000 0.12620  0.33140  0.33140  Biso   1.000  H
  H751     1.0000 0.87380  0.33140  0.66860  Biso   1.000  H
  H752     1.0000 0.87380  0.66860  0.33140  Biso   1.000  H
  H753     1.0000 0.16860  0.12620  0.16860  Biso   1.000  H
  H754     1.0000 0.83140  0.12620  0.83140  Biso   1.000  H
  H755     1.0000 0.16860  0.87380  0.83140  Biso   1.000  H
  H756     1.0000 0.83140  0.87380  0.16860  Biso   1.000  H
  H757     1.0000 0.16860  0.66860  0.37380  Biso   1.000  H
  H758     1.0000 0.83140  0.33140  0.37380  Biso   1.000  H
  H759     1.0000 0.16860  0.33140  0.62620  Biso   1.000  H
  H760     1.0000 0.83140  0.66860  0.62620  Biso   1.000  H
  H761     1.0000 0.66860  0.12620  0.33140  Biso   1.000  H
  H762     1.0000 0.33140  0.12620  0.66860  Biso   1.000  H
  H763     1.0000 0.33140  0.87380  0.33140  Biso   1.000  H
  H764     1.0000 0.66860  0.87380  0.66860  Biso   1.000  H
  H765     1.0000 0.12620  0.16860  0.83140  Biso   1.000  H
  H766     1.0000 0.12620  0.83140  0.16860  Biso   1.000  H
  H767     1.0000 0.87380  0.16860  0.16860  Biso   1.000  H
  H768     1.0000 0.87380  0.83140  0.83140  Biso   1.000  H
