data_image0
_cell_length_a       19.3406
_cell_length_b       19.3406
_cell_length_c       61.432
_cell_angle_alpha    90
_cell_angle_beta     90
_cell_angle_gamma    90

_symmetry_space_group_name_H-M    "P 1"
_symmetry_int_tables_number       1

loop_
  _symmetry_equiv_pos_as_xyz
  'x, y, z'

loop_
  _atom_site_label
  _atom_site_occupancy
  _atom_site_fract_x
  _atom_site_fract_y
  _atom_site_fract_z
  _atom_site_thermal_displace_type
  _atom_site_B_iso_or_equiv
  _atom_site_type_symbol
  Zn1      1.0000 0.82617  0.25000  0.75256  Biso   1.000  Zn
  Zn2      1.0000 0.17383  0.25000  0.75256  Biso   1.000  Zn
  Zn3      1.0000 0.82617  0.75000  0.24744  Biso   1.000  Zn
  Zn4      1.0000 0.17383  0.75000  0.24744  Biso   1.000  Zn
  Zn5      1.0000 0.00000  0.42383  0.99744  Biso   1.000  Zn
  Zn6      1.0000 0.50000  0.57617  0.49744  Biso   1.000  Zn
  Zn7      1.0000 0.50000  0.42383  0.50256  Biso   1.000  Zn
  Zn8      1.0000 0.00000  0.57617  0.00256  Biso   1.000  Zn
  Zn9      1.0000 0.32617  0.75000  0.25256  Biso   1.000  Zn
  Zn10     1.0000 0.67383  0.75000  0.25256  Biso   1.000  Zn
  Zn11     1.0000 0.32617  0.25000  0.74744  Biso   1.000  Zn
  Zn12     1.0000 0.67383  0.25000  0.74744  Biso   1.000  Zn
  Zn13     1.0000 0.50000  0.92383  0.49744  Biso   1.000  Zn
  Zn14     1.0000 0.00000  0.07617  0.99744  Biso   1.000  Zn
  Zn15     1.0000 0.00000  0.92383  0.00256  Biso   1.000  Zn
  Zn16     1.0000 0.50000  0.07617  0.50256  Biso   1.000  Zn
  Cu1      1.0000 0.00000  0.75000  0.64649  Biso   1.000  Cu
  Cu2      1.0000 0.00000  0.25000  0.35351  Biso   1.000  Cu
  Cu3      1.0000 0.50000  0.25000  0.10351  Biso   1.000  Cu
  Cu4      1.0000 0.00000  0.75000  0.60351  Biso   1.000  Cu
  Cu5      1.0000 0.00000  0.25000  0.39649  Biso   1.000  Cu
  Cu6      1.0000 0.50000  0.75000  0.89649  Biso   1.000  Cu
  Cu7      1.0000 0.50000  0.25000  0.14649  Biso   1.000  Cu
  Cu8      1.0000 0.50000  0.75000  0.85351  Biso   1.000  Cu
  O1       1.0000 0.80811  0.17766  0.72919  Biso   1.000  O
  O2       1.0000 0.19189  0.32234  0.72919  Biso   1.000  O
  O3       1.0000 0.80811  0.82234  0.27081  Biso   1.000  O
  O4       1.0000 0.19189  0.67766  0.27081  Biso   1.000  O
  O5       1.0000 0.07234  0.44189  0.02081  Biso   1.000  O
  O6       1.0000 0.42766  0.55811  0.52081  Biso   1.000  O
  O7       1.0000 0.42766  0.44189  0.47919  Biso   1.000  O
  O8       1.0000 0.07234  0.55811  0.97919  Biso   1.000  O
  O9       1.0000 0.30811  0.67766  0.22919  Biso   1.000  O
  O10      1.0000 0.69189  0.82234  0.22919  Biso   1.000  O
  O11      1.0000 0.30811  0.32234  0.77081  Biso   1.000  O
  O12      1.0000 0.69189  0.17766  0.77081  Biso   1.000  O
  O13      1.0000 0.57234  0.94189  0.52081  Biso   1.000  O
  O14      1.0000 0.92766  0.05811  0.02081  Biso   1.000  O
  O15      1.0000 0.92766  0.94189  0.97919  Biso   1.000  O
  O16      1.0000 0.57234  0.05811  0.47919  Biso   1.000  O
  O17      1.0000 0.19189  0.82234  0.27081  Biso   1.000  O
  O18      1.0000 0.80811  0.67766  0.27081  Biso   1.000  O
  O19      1.0000 0.19189  0.17766  0.72919  Biso   1.000  O
  O20      1.0000 0.80811  0.32234  0.72919  Biso   1.000  O
  O21      1.0000 0.42766  0.05811  0.47919  Biso   1.000  O
  O22      1.0000 0.07234  0.94189  0.97919  Biso   1.000  O
  O23      1.0000 0.07234  0.05811  0.02081  Biso   1.000  O
  O24      1.0000 0.42766  0.94189  0.52081  Biso   1.000  O
  O25      1.0000 0.69189  0.32234  0.77081  Biso   1.000  O
  O26      1.0000 0.30811  0.17766  0.77081  Biso   1.000  O
  O27      1.0000 0.69189  0.67766  0.22919  Biso   1.000  O
  O28      1.0000 0.30811  0.82234  0.22919  Biso   1.000  O
  O29      1.0000 0.92766  0.55811  0.97919  Biso   1.000  O
  O30      1.0000 0.57234  0.44189  0.47919  Biso   1.000  O
  O31      1.0000 0.57234  0.55811  0.52081  Biso   1.000  O
  O32      1.0000 0.92766  0.44189  0.02081  Biso   1.000  O
  O33      1.0000 0.69446  0.17809  0.72446  Biso   1.000  O
  O34      1.0000 0.30554  0.32191  0.72446  Biso   1.000  O
  O35      1.0000 0.69446  0.82191  0.27554  Biso   1.000  O
  O36      1.0000 0.30554  0.67809  0.27554  Biso   1.000  O
  O37      1.0000 0.07191  0.55554  0.02554  Biso   1.000  O
  O38      1.0000 0.42809  0.44446  0.52554  Biso   1.000  O
  O39      1.0000 0.42809  0.55554  0.47446  Biso   1.000  O
  O40      1.0000 0.07191  0.44446  0.97446  Biso   1.000  O
  O41      1.0000 0.19446  0.67809  0.22446  Biso   1.000  O
  O42      1.0000 0.80554  0.82191  0.22446  Biso   1.000  O
  O43      1.0000 0.19446  0.32191  0.77554  Biso   1.000  O
  O44      1.0000 0.80554  0.17809  0.77554  Biso   1.000  O
  O45      1.0000 0.57191  0.05554  0.52554  Biso   1.000  O
  O46      1.0000 0.92809  0.94446  0.02554  Biso   1.000  O
  O47      1.0000 0.92809  0.05554  0.97446  Biso   1.000  O
  O48      1.0000 0.57191  0.94446  0.47446  Biso   1.000  O
  O49      1.0000 0.30554  0.82191  0.27554  Biso   1.000  O
  O50      1.0000 0.69446  0.67809  0.27554  Biso   1.000  O
  O51      1.0000 0.30554  0.17809  0.72446  Biso   1.000  O
  O52      1.0000 0.69446  0.32191  0.72446  Biso   1.000  O
  O53      1.0000 0.42809  0.94446  0.47446  Biso   1.000  O
  O54      1.0000 0.07191  0.05554  0.97446  Biso   1.000  O
  O55      1.0000 0.07191  0.94446  0.02554  Biso   1.000  O
  O56      1.0000 0.42809  0.05554  0.52554  Biso   1.000  O
  O57      1.0000 0.80554  0.32191  0.77554  Biso   1.000  O
  O58      1.0000 0.19446  0.17809  0.77554  Biso   1.000  O
  O59      1.0000 0.80554  0.67809  0.22446  Biso   1.000  O
  O60      1.0000 0.19446  0.82191  0.22446  Biso   1.000  O
  O61      1.0000 0.92809  0.44446  0.97446  Biso   1.000  O
  O62      1.0000 0.57191  0.55554  0.47446  Biso   1.000  O
  O63      1.0000 0.57191  0.44446  0.52554  Biso   1.000  O
  O64      1.0000 0.92809  0.55554  0.02554  Biso   1.000  O
  O65      1.0000 0.92939  0.82137  0.64315  Biso   1.000  O
  O66      1.0000 0.07061  0.67863  0.64315  Biso   1.000  O
  O67      1.0000 0.92939  0.17863  0.35685  Biso   1.000  O
  O68      1.0000 0.07061  0.32137  0.35685  Biso   1.000  O
  O69      1.0000 0.42863  0.32061  0.10685  Biso   1.000  O
  O70      1.0000 0.07137  0.67939  0.60685  Biso   1.000  O
  O71      1.0000 0.07137  0.32061  0.39315  Biso   1.000  O
  O72      1.0000 0.42863  0.67939  0.89315  Biso   1.000  O
  O73      1.0000 0.42939  0.32137  0.14315  Biso   1.000  O
  O74      1.0000 0.57061  0.17863  0.14315  Biso   1.000  O
  O75      1.0000 0.42939  0.67863  0.85685  Biso   1.000  O
  O76      1.0000 0.57061  0.82137  0.85685  Biso   1.000  O
  O77      1.0000 0.92863  0.82061  0.60685  Biso   1.000  O
  O78      1.0000 0.57137  0.17939  0.10685  Biso   1.000  O
  O79      1.0000 0.57137  0.82061  0.89315  Biso   1.000  O
  O80      1.0000 0.92863  0.17939  0.39315  Biso   1.000  O
  O81      1.0000 0.07061  0.17863  0.35685  Biso   1.000  O
  O82      1.0000 0.92939  0.32137  0.35685  Biso   1.000  O
  O83      1.0000 0.07061  0.82137  0.64315  Biso   1.000  O
  O84      1.0000 0.92939  0.67863  0.64315  Biso   1.000  O
  O85      1.0000 0.07137  0.17939  0.39315  Biso   1.000  O
  O86      1.0000 0.42863  0.82061  0.89315  Biso   1.000  O
  O87      1.0000 0.42863  0.17939  0.10685  Biso   1.000  O
  O88      1.0000 0.07137  0.82061  0.60685  Biso   1.000  O
  O89      1.0000 0.57061  0.67863  0.85685  Biso   1.000  O
  O90      1.0000 0.42939  0.82137  0.85685  Biso   1.000  O
  O91      1.0000 0.57061  0.32137  0.14315  Biso   1.000  O
  O92      1.0000 0.42939  0.17863  0.14315  Biso   1.000  O
  O93      1.0000 0.57137  0.67939  0.89315  Biso   1.000  O
  O94      1.0000 0.92863  0.32061  0.39315  Biso   1.000  O
  O95      1.0000 0.92863  0.67939  0.60685  Biso   1.000  O
  O96      1.0000 0.57137  0.32061  0.10685  Biso   1.000  O
  O97      1.0000 0.00000  0.75000  0.68151  Biso   1.000  O
  O98      1.0000 0.00000  0.25000  0.31849  Biso   1.000  O
  O99      1.0000 0.50000  0.25000  0.06849  Biso   1.000  O
  O100     1.0000 0.00000  0.75000  0.56849  Biso   1.000  O
  O101     1.0000 0.00000  0.25000  0.43151  Biso   1.000  O
  O102     1.0000 0.50000  0.75000  0.93151  Biso   1.000  O
  O103     1.0000 0.50000  0.25000  0.18151  Biso   1.000  O
  O104     1.0000 0.50000  0.75000  0.81849  Biso   1.000  O
  C1       1.0000 0.75422  0.15966  0.71955  Biso   1.000  C
  C2       1.0000 0.24578  0.34034  0.71955  Biso   1.000  C
  C3       1.0000 0.75422  0.84034  0.28045  Biso   1.000  C
  C4       1.0000 0.24578  0.65966  0.28045  Biso   1.000  C
  C5       1.0000 0.09034  0.49578  0.03045  Biso   1.000  C
  C6       1.0000 0.40966  0.50422  0.53045  Biso   1.000  C
  C7       1.0000 0.40966  0.49578  0.46955  Biso   1.000  C
  C8       1.0000 0.09034  0.50422  0.96955  Biso   1.000  C
  C9       1.0000 0.25422  0.65966  0.21955  Biso   1.000  C
  C10      1.0000 0.74578  0.84034  0.21955  Biso   1.000  C
  C11      1.0000 0.25422  0.34034  0.78045  Biso   1.000  C
  C12      1.0000 0.74578  0.15966  0.78045  Biso   1.000  C
  C13      1.0000 0.59034  0.99578  0.53045  Biso   1.000  C
  C14      1.0000 0.90966  0.00422  0.03045  Biso   1.000  C
  C15      1.0000 0.90966  0.99578  0.96955  Biso   1.000  C
  C16      1.0000 0.59034  0.00422  0.46955  Biso   1.000  C
  C17      1.0000 0.24578  0.84034  0.28045  Biso   1.000  C
  C18      1.0000 0.75422  0.65966  0.28045  Biso   1.000  C
  C19      1.0000 0.24578  0.15966  0.71955  Biso   1.000  C
  C20      1.0000 0.75422  0.34034  0.71955  Biso   1.000  C
  C21      1.0000 0.40966  0.00422  0.46955  Biso   1.000  C
  C22      1.0000 0.09034  0.99578  0.96955  Biso   1.000  C
  C23      1.0000 0.09034  0.00422  0.03045  Biso   1.000  C
  C24      1.0000 0.40966  0.99578  0.53045  Biso   1.000  C
  C25      1.0000 0.74578  0.34034  0.78045  Biso   1.000  C
  C26      1.0000 0.25422  0.15966  0.78045  Biso   1.000  C
  C27      1.0000 0.74578  0.65966  0.21955  Biso   1.000  C
  C28      1.0000 0.25422  0.84034  0.21955  Biso   1.000  C
  C29      1.0000 0.90966  0.50422  0.96955  Biso   1.000  C
  C30      1.0000 0.59034  0.49578  0.46955  Biso   1.000  C
  C31      1.0000 0.59034  0.50422  0.53045  Biso   1.000  C
  C32      1.0000 0.90966  0.49578  0.03045  Biso   1.000  C
  C33      1.0000 0.76310  0.11297  0.70033  Biso   1.000  C
  C34      1.0000 0.23690  0.38703  0.70033  Biso   1.000  C
  C35      1.0000 0.76310  0.88703  0.29967  Biso   1.000  C
  C36      1.0000 0.23690  0.61297  0.29967  Biso   1.000  C
  C37      1.0000 0.13703  0.48690  0.04967  Biso   1.000  C
  C38      1.0000 0.36297  0.51310  0.54967  Biso   1.000  C
  C39      1.0000 0.36297  0.48690  0.45033  Biso   1.000  C
  C40      1.0000 0.13703  0.51310  0.95033  Biso   1.000  C
  C41      1.0000 0.26310  0.61297  0.20033  Biso   1.000  C
  C42      1.0000 0.73690  0.88703  0.20033  Biso   1.000  C
  C43      1.0000 0.26310  0.38703  0.79967  Biso   1.000  C
  C44      1.0000 0.73690  0.11297  0.79967  Biso   1.000  C
  C45      1.0000 0.63703  0.98690  0.54967  Biso   1.000  C
  C46      1.0000 0.86297  0.01310  0.04967  Biso   1.000  C
  C47      1.0000 0.86297  0.98690  0.95033  Biso   1.000  C
  C48      1.0000 0.63703  0.01310  0.45033  Biso   1.000  C
  C49      1.0000 0.23690  0.88703  0.29967  Biso   1.000  C
  C50      1.0000 0.76310  0.61297  0.29967  Biso   1.000  C
  C51      1.0000 0.23690  0.11297  0.70033  Biso   1.000  C
  C52      1.0000 0.76310  0.38703  0.70033  Biso   1.000  C
  C53      1.0000 0.36297  0.01310  0.45033  Biso   1.000  C
  C54      1.0000 0.13703  0.98690  0.95033  Biso   1.000  C
  C55      1.0000 0.13703  0.01310  0.04967  Biso   1.000  C
  C56      1.0000 0.36297  0.98690  0.54967  Biso   1.000  C
  C57      1.0000 0.73690  0.38703  0.79967  Biso   1.000  C
  C58      1.0000 0.26310  0.11297  0.79967  Biso   1.000  C
  C59      1.0000 0.73690  0.61297  0.20033  Biso   1.000  C
  C60      1.0000 0.26310  0.88703  0.20033  Biso   1.000  C
  C61      1.0000 0.86297  0.51310  0.95033  Biso   1.000  C
  C62      1.0000 0.63703  0.48690  0.45033  Biso   1.000  C
  C63      1.0000 0.63703  0.51310  0.54967  Biso   1.000  C
  C64      1.0000 0.86297  0.48690  0.04967  Biso   1.000  C
  C65      1.0000 0.82726  0.09086  0.69429  Biso   1.000  C
  C66      1.0000 0.17274  0.40914  0.69429  Biso   1.000  C
  C67      1.0000 0.82726  0.90914  0.30571  Biso   1.000  C
  C68      1.0000 0.17274  0.59086  0.30571  Biso   1.000  C
  C69      1.0000 0.15914  0.42274  0.05571  Biso   1.000  C
  C70      1.0000 0.34086  0.57726  0.55571  Biso   1.000  C
  C71      1.0000 0.34086  0.42274  0.44429  Biso   1.000  C
  C72      1.0000 0.15914  0.57726  0.94429  Biso   1.000  C
  C73      1.0000 0.32726  0.59086  0.19429  Biso   1.000  C
  C74      1.0000 0.67274  0.90914  0.19429  Biso   1.000  C
  C75      1.0000 0.32726  0.40914  0.80571  Biso   1.000  C
  C76      1.0000 0.67274  0.09086  0.80571  Biso   1.000  C
  C77      1.0000 0.65914  0.92274  0.55571  Biso   1.000  C
  C78      1.0000 0.84086  0.07726  0.05571  Biso   1.000  C
  C79      1.0000 0.84086  0.92274  0.94429  Biso   1.000  C
  C80      1.0000 0.65914  0.07726  0.44429  Biso   1.000  C
  C81      1.0000 0.17274  0.90914  0.30571  Biso   1.000  C
  C82      1.0000 0.82726  0.59086  0.30571  Biso   1.000  C
  C83      1.0000 0.17274  0.09086  0.69429  Biso   1.000  C
  C84      1.0000 0.82726  0.40914  0.69429  Biso   1.000  C
  C85      1.0000 0.34086  0.07726  0.44429  Biso   1.000  C
  C86      1.0000 0.15914  0.92274  0.94429  Biso   1.000  C
  C87      1.0000 0.15914  0.07726  0.05571  Biso   1.000  C
  C88      1.0000 0.34086  0.92274  0.55571  Biso   1.000  C
  C89      1.0000 0.67274  0.40914  0.80571  Biso   1.000  C
  C90      1.0000 0.32726  0.09086  0.80571  Biso   1.000  C
  C91      1.0000 0.67274  0.59086  0.19429  Biso   1.000  C
  C92      1.0000 0.32726  0.90914  0.19429  Biso   1.000  C
  C93      1.0000 0.84086  0.57726  0.94429  Biso   1.000  C
  C94      1.0000 0.65914  0.42274  0.44429  Biso   1.000  C
  C95      1.0000 0.65914  0.57726  0.55571  Biso   1.000  C
  C96      1.0000 0.84086  0.42274  0.05571  Biso   1.000  C
  H1       1.0000 0.86574  0.10374  0.70241  Biso   1.000  H
  H2       1.0000 0.13426  0.39626  0.70241  Biso   1.000  H
  H3       1.0000 0.86574  0.89626  0.29759  Biso   1.000  H
  H4       1.0000 0.13426  0.60374  0.29759  Biso   1.000  H
  H5       1.0000 0.14626  0.38426  0.04759  Biso   1.000  H
  H6       1.0000 0.35374  0.61574  0.54759  Biso   1.000  H
  H7       1.0000 0.35374  0.38426  0.45241  Biso   1.000  H
  H8       1.0000 0.14626  0.61574  0.95241  Biso   1.000  H
  H9       1.0000 0.36574  0.60374  0.20241  Biso   1.000  H
  H10      1.0000 0.63426  0.89626  0.20241  Biso   1.000  H
  H11      1.0000 0.36574  0.39626  0.79759  Biso   1.000  H
  H12      1.0000 0.63426  0.10374  0.79759  Biso   1.000  H
  H13      1.0000 0.64626  0.88426  0.54759  Biso   1.000  H
  H14      1.0000 0.85374  0.11574  0.04759  Biso   1.000  H
  H15      1.0000 0.85374  0.88426  0.95241  Biso   1.000  H
  H16      1.0000 0.64626  0.11574  0.45241  Biso   1.000  H
  H17      1.0000 0.13426  0.89626  0.29759  Biso   1.000  H
  H18      1.0000 0.86574  0.60374  0.29759  Biso   1.000  H
  H19      1.0000 0.13426  0.10374  0.70241  Biso   1.000  H
  H20      1.0000 0.86574  0.39626  0.70241  Biso   1.000  H
  H21      1.0000 0.35374  0.11574  0.45241  Biso   1.000  H
  H22      1.0000 0.14626  0.88426  0.95241  Biso   1.000  H
  H23      1.0000 0.14626  0.11574  0.04759  Biso   1.000  H
  H24      1.0000 0.35374  0.88426  0.54759  Biso   1.000  H
  H25      1.0000 0.63426  0.39626  0.79759  Biso   1.000  H
  H26      1.0000 0.36574  0.10374  0.79759  Biso   1.000  H
  H27      1.0000 0.63426  0.60374  0.20241  Biso   1.000  H
  H28      1.0000 0.36574  0.89626  0.20241  Biso   1.000  H
  H29      1.0000 0.85374  0.61574  0.95241  Biso   1.000  H
  H30      1.0000 0.64626  0.38426  0.45241  Biso   1.000  H
  H31      1.0000 0.64626  0.61574  0.54759  Biso   1.000  H
  H32      1.0000 0.85374  0.38426  0.04759  Biso   1.000  H
  C97      1.0000 0.83534  0.04920  0.67608  Biso   1.000  C
  C98      1.0000 0.16466  0.45080  0.67608  Biso   1.000  C
  C99      1.0000 0.83534  0.95080  0.32392  Biso   1.000  C
  C100     1.0000 0.16466  0.54920  0.32392  Biso   1.000  C
  C101     1.0000 0.20080  0.41466  0.07392  Biso   1.000  C
  C102     1.0000 0.29920  0.58534  0.57392  Biso   1.000  C
  C103     1.0000 0.29920  0.41466  0.42608  Biso   1.000  C
  C104     1.0000 0.20080  0.58534  0.92608  Biso   1.000  C
  C105     1.0000 0.33534  0.54920  0.17608  Biso   1.000  C
  C106     1.0000 0.66466  0.95080  0.17608  Biso   1.000  C
  C107     1.0000 0.33534  0.45080  0.82392  Biso   1.000  C
  C108     1.0000 0.66466  0.04920  0.82392  Biso   1.000  C
  C109     1.0000 0.70080  0.91466  0.57392  Biso   1.000  C
  C110     1.0000 0.79920  0.08534  0.07392  Biso   1.000  C
  C111     1.0000 0.79920  0.91466  0.92608  Biso   1.000  C
  C112     1.0000 0.70080  0.08534  0.42608  Biso   1.000  C
  C113     1.0000 0.16466  0.95080  0.32392  Biso   1.000  C
  C114     1.0000 0.83534  0.54920  0.32392  Biso   1.000  C
  C115     1.0000 0.16466  0.04920  0.67608  Biso   1.000  C
  C116     1.0000 0.83534  0.45080  0.67608  Biso   1.000  C
  C117     1.0000 0.29920  0.08534  0.42608  Biso   1.000  C
  C118     1.0000 0.20080  0.91466  0.92608  Biso   1.000  C
  C119     1.0000 0.20080  0.08534  0.07392  Biso   1.000  C
  C120     1.0000 0.29920  0.91466  0.57392  Biso   1.000  C
  C121     1.0000 0.66466  0.45080  0.82392  Biso   1.000  C
  C122     1.0000 0.33534  0.04920  0.82392  Biso   1.000  C
  C123     1.0000 0.66466  0.54920  0.17608  Biso   1.000  C
  C124     1.0000 0.33534  0.95080  0.17608  Biso   1.000  C
  C125     1.0000 0.79920  0.58534  0.92608  Biso   1.000  C
  C126     1.0000 0.70080  0.41466  0.42608  Biso   1.000  C
  C127     1.0000 0.70080  0.58534  0.57392  Biso   1.000  C
  C128     1.0000 0.79920  0.41466  0.07392  Biso   1.000  C
  H33      1.0000 0.87946  0.03451  0.67225  Biso   1.000  H
  H34      1.0000 0.12054  0.46549  0.67225  Biso   1.000  H
  H35      1.0000 0.87946  0.96549  0.32775  Biso   1.000  H
  H36      1.0000 0.12054  0.53451  0.32775  Biso   1.000  H
  H37      1.0000 0.21549  0.37054  0.07775  Biso   1.000  H
  H38      1.0000 0.28451  0.62946  0.57775  Biso   1.000  H
  H39      1.0000 0.28451  0.37054  0.42225  Biso   1.000  H
  H40      1.0000 0.21549  0.62946  0.92225  Biso   1.000  H
  H41      1.0000 0.37946  0.53451  0.17225  Biso   1.000  H
  H42      1.0000 0.62054  0.96549  0.17225  Biso   1.000  H
  H43      1.0000 0.37946  0.46549  0.82775  Biso   1.000  H
  H44      1.0000 0.62054  0.03451  0.82775  Biso   1.000  H
  H45      1.0000 0.71549  0.87054  0.57775  Biso   1.000  H
  H46      1.0000 0.78451  0.12946  0.07775  Biso   1.000  H
  H47      1.0000 0.78451  0.87054  0.92225  Biso   1.000  H
  H48      1.0000 0.71549  0.12946  0.42225  Biso   1.000  H
  H49      1.0000 0.12054  0.96549  0.32775  Biso   1.000  H
  H50      1.0000 0.87946  0.53451  0.32775  Biso   1.000  H
  H51      1.0000 0.12054  0.03451  0.67225  Biso   1.000  H
  H52      1.0000 0.87946  0.46549  0.67225  Biso   1.000  H
  H53      1.0000 0.28451  0.12946  0.42225  Biso   1.000  H
  H54      1.0000 0.21549  0.87054  0.92225  Biso   1.000  H
  H55      1.0000 0.21549  0.12946  0.07775  Biso   1.000  H
  H56      1.0000 0.28451  0.87054  0.57775  Biso   1.000  H
  H57      1.0000 0.62054  0.46549  0.82775  Biso   1.000  H
  H58      1.0000 0.37946  0.03451  0.82775  Biso   1.000  H
  H59      1.0000 0.62054  0.53451  0.17225  Biso   1.000  H
  H60      1.0000 0.37946  0.96549  0.17225  Biso   1.000  H
  H61      1.0000 0.78451  0.62946  0.92225  Biso   1.000  H
  H62      1.0000 0.71549  0.37054  0.42225  Biso   1.000  H
  H63      1.0000 0.71549  0.62946  0.57775  Biso   1.000  H
  H64      1.0000 0.78451  0.37054  0.07775  Biso   1.000  H
  C129     1.0000 0.78021  0.02921  0.66357  Biso   1.000  C
  C130     1.0000 0.21979  0.47079  0.66357  Biso   1.000  C
  C131     1.0000 0.78021  0.97079  0.33643  Biso   1.000  C
  C132     1.0000 0.21979  0.52921  0.33643  Biso   1.000  C
  C133     1.0000 0.22079  0.46979  0.08643  Biso   1.000  C
  C134     1.0000 0.27921  0.53021  0.58643  Biso   1.000  C
  C135     1.0000 0.27921  0.46979  0.41357  Biso   1.000  C
  C136     1.0000 0.22079  0.53021  0.91357  Biso   1.000  C
  C137     1.0000 0.28021  0.52921  0.16357  Biso   1.000  C
  C138     1.0000 0.71979  0.97079  0.16357  Biso   1.000  C
  C139     1.0000 0.28021  0.47079  0.83643  Biso   1.000  C
  C140     1.0000 0.71979  0.02921  0.83643  Biso   1.000  C
  C141     1.0000 0.72079  0.96979  0.58643  Biso   1.000  C
  C142     1.0000 0.77921  0.03021  0.08643  Biso   1.000  C
  C143     1.0000 0.77921  0.96979  0.91357  Biso   1.000  C
  C144     1.0000 0.72079  0.03021  0.41357  Biso   1.000  C
  C145     1.0000 0.21979  0.97079  0.33643  Biso   1.000  C
  C146     1.0000 0.78021  0.52921  0.33643  Biso   1.000  C
  C147     1.0000 0.21979  0.02921  0.66357  Biso   1.000  C
  C148     1.0000 0.78021  0.47079  0.66357  Biso   1.000  C
  C149     1.0000 0.27921  0.03021  0.41357  Biso   1.000  C
  C150     1.0000 0.22079  0.96979  0.91357  Biso   1.000  C
  C151     1.0000 0.22079  0.03021  0.08643  Biso   1.000  C
  C152     1.0000 0.27921  0.96979  0.58643  Biso   1.000  C
  C153     1.0000 0.71979  0.47079  0.83643  Biso   1.000  C
  C154     1.0000 0.28021  0.02921  0.83643  Biso   1.000  C
  C155     1.0000 0.71979  0.52921  0.16357  Biso   1.000  C
  C156     1.0000 0.28021  0.97079  0.16357  Biso   1.000  C
  C157     1.0000 0.77921  0.53021  0.91357  Biso   1.000  C
  C158     1.0000 0.72079  0.46979  0.41357  Biso   1.000  C
  C159     1.0000 0.72079  0.53021  0.58643  Biso   1.000  C
  C160     1.0000 0.77921  0.46979  0.08643  Biso   1.000  C
  C161     1.0000 0.71556  0.05070  0.66998  Biso   1.000  C
  C162     1.0000 0.28444  0.44930  0.66998  Biso   1.000  C
  C163     1.0000 0.71556  0.94930  0.33002  Biso   1.000  C
  C164     1.0000 0.28444  0.55070  0.33002  Biso   1.000  C
  C165     1.0000 0.19930  0.53444  0.08002  Biso   1.000  C
  C166     1.0000 0.30070  0.46556  0.58002  Biso   1.000  C
  C167     1.0000 0.30070  0.53444  0.41998  Biso   1.000  C
  C168     1.0000 0.19930  0.46556  0.91998  Biso   1.000  C
  C169     1.0000 0.21556  0.55070  0.16998  Biso   1.000  C
  C170     1.0000 0.78444  0.94930  0.16998  Biso   1.000  C
  C171     1.0000 0.21556  0.44930  0.83002  Biso   1.000  C
  C172     1.0000 0.78444  0.05070  0.83002  Biso   1.000  C
  C173     1.0000 0.69930  0.03444  0.58002  Biso   1.000  C
  C174     1.0000 0.80070  0.96556  0.08002  Biso   1.000  C
  C175     1.0000 0.80070  0.03444  0.91998  Biso   1.000  C
  C176     1.0000 0.69930  0.96556  0.41998  Biso   1.000  C
  C177     1.0000 0.28444  0.94930  0.33002  Biso   1.000  C
  C178     1.0000 0.71556  0.55070  0.33002  Biso   1.000  C
  C179     1.0000 0.28444  0.05070  0.66998  Biso   1.000  C
  C180     1.0000 0.71556  0.44930  0.66998  Biso   1.000  C
  C181     1.0000 0.30070  0.96556  0.41998  Biso   1.000  C
  C182     1.0000 0.19930  0.03444  0.91998  Biso   1.000  C
  C183     1.0000 0.19930  0.96556  0.08002  Biso   1.000  C
  C184     1.0000 0.30070  0.03444  0.58002  Biso   1.000  C
  C185     1.0000 0.78444  0.44930  0.83002  Biso   1.000  C
  C186     1.0000 0.21556  0.05070  0.83002  Biso   1.000  C
  C187     1.0000 0.78444  0.55070  0.16998  Biso   1.000  C
  C188     1.0000 0.21556  0.94930  0.16998  Biso   1.000  C
  C189     1.0000 0.80070  0.46556  0.91998  Biso   1.000  C
  C190     1.0000 0.69930  0.53444  0.41998  Biso   1.000  C
  C191     1.0000 0.69930  0.46556  0.58002  Biso   1.000  C
  C192     1.0000 0.80070  0.53444  0.08002  Biso   1.000  C
  H65      1.0000 0.67704  0.03741  0.66193  Biso   1.000  H
  H66      1.0000 0.32296  0.46259  0.66193  Biso   1.000  H
  H67      1.0000 0.67704  0.96259  0.33807  Biso   1.000  H
  H68      1.0000 0.32296  0.53741  0.33807  Biso   1.000  H
  H69      1.0000 0.21259  0.57296  0.08807  Biso   1.000  H
  H70      1.0000 0.28741  0.42704  0.58807  Biso   1.000  H
  H71      1.0000 0.28741  0.57296  0.41193  Biso   1.000  H
  H72      1.0000 0.21259  0.42704  0.91193  Biso   1.000  H
  H73      1.0000 0.17704  0.53741  0.16193  Biso   1.000  H
  H74      1.0000 0.82296  0.96259  0.16193  Biso   1.000  H
  H75      1.0000 0.17704  0.46259  0.83807  Biso   1.000  H
  H76      1.0000 0.82296  0.03741  0.83807  Biso   1.000  H
  H77      1.0000 0.71259  0.07296  0.58807  Biso   1.000  H
  H78      1.0000 0.78741  0.92704  0.08807  Biso   1.000  H
  H79      1.0000 0.78741  0.07296  0.91193  Biso   1.000  H
  H80      1.0000 0.71259  0.92704  0.41193  Biso   1.000  H
  H81      1.0000 0.32296  0.96259  0.33807  Biso   1.000  H
  H82      1.0000 0.67704  0.53741  0.33807  Biso   1.000  H
  H83      1.0000 0.32296  0.03741  0.66193  Biso   1.000  H
  H84      1.0000 0.67704  0.46259  0.66193  Biso   1.000  H
  H85      1.0000 0.28741  0.92704  0.41193  Biso   1.000  H
  H86      1.0000 0.21259  0.07296  0.91193  Biso   1.000  H
  H87      1.0000 0.21259  0.92704  0.08807  Biso   1.000  H
  H88      1.0000 0.28741  0.07296  0.58807  Biso   1.000  H
  H89      1.0000 0.82296  0.46259  0.83807  Biso   1.000  H
  H90      1.0000 0.17704  0.03741  0.83807  Biso   1.000  H
  H91      1.0000 0.82296  0.53741  0.16193  Biso   1.000  H
  H92      1.0000 0.17704  0.96259  0.16193  Biso   1.000  H
  H93      1.0000 0.78741  0.42704  0.91193  Biso   1.000  H
  H94      1.0000 0.71259  0.57296  0.41193  Biso   1.000  H
  H95      1.0000 0.71259  0.42704  0.58807  Biso   1.000  H
  H96      1.0000 0.78741  0.57296  0.08807  Biso   1.000  H
  C193     1.0000 0.70701  0.09180  0.68825  Biso   1.000  C
  C194     1.0000 0.29299  0.40820  0.68825  Biso   1.000  C
  C195     1.0000 0.70701  0.90820  0.31175  Biso   1.000  C
  C196     1.0000 0.29299  0.59180  0.31175  Biso   1.000  C
  C197     1.0000 0.15820  0.54299  0.06175  Biso   1.000  C
  C198     1.0000 0.34180  0.45701  0.56175  Biso   1.000  C
  C199     1.0000 0.34180  0.54299  0.43825  Biso   1.000  C
  C200     1.0000 0.15820  0.45701  0.93825  Biso   1.000  C
  C201     1.0000 0.20701  0.59180  0.18825  Biso   1.000  C
  C202     1.0000 0.79299  0.90820  0.18825  Biso   1.000  C
  C203     1.0000 0.20701  0.40820  0.81175  Biso   1.000  C
  C204     1.0000 0.79299  0.09180  0.81175  Biso   1.000  C
  C205     1.0000 0.65820  0.04299  0.56175  Biso   1.000  C
  C206     1.0000 0.84180  0.95701  0.06175  Biso   1.000  C
  C207     1.0000 0.84180  0.04299  0.93825  Biso   1.000  C
  C208     1.0000 0.65820  0.95701  0.43825  Biso   1.000  C
  C209     1.0000 0.29299  0.90820  0.31175  Biso   1.000  C
  C210     1.0000 0.70701  0.59180  0.31175  Biso   1.000  C
  C211     1.0000 0.29299  0.09180  0.68825  Biso   1.000  C
  C212     1.0000 0.70701  0.40820  0.68825  Biso   1.000  C
  C213     1.0000 0.34180  0.95701  0.43825  Biso   1.000  C
  C214     1.0000 0.15820  0.04299  0.93825  Biso   1.000  C
  C215     1.0000 0.15820  0.95701  0.06175  Biso   1.000  C
  C216     1.0000 0.34180  0.04299  0.56175  Biso   1.000  C
  C217     1.0000 0.79299  0.40820  0.81175  Biso   1.000  C
  C218     1.0000 0.20701  0.09180  0.81175  Biso   1.000  C
  C219     1.0000 0.79299  0.59180  0.18825  Biso   1.000  C
  C220     1.0000 0.20701  0.90820  0.18825  Biso   1.000  C
  C221     1.0000 0.84180  0.45701  0.93825  Biso   1.000  C
  C222     1.0000 0.65820  0.54299  0.43825  Biso   1.000  C
  C223     1.0000 0.65820  0.45701  0.56175  Biso   1.000  C
  C224     1.0000 0.84180  0.54299  0.06175  Biso   1.000  C
  H97      1.0000 0.66279  0.10535  0.69241  Biso   1.000  H
  H98      1.0000 0.33721  0.39465  0.69241  Biso   1.000  H
  H99      1.0000 0.66279  0.89465  0.30759  Biso   1.000  H
  H100     1.0000 0.33721  0.60535  0.30759  Biso   1.000  H
  H101     1.0000 0.14465  0.58721  0.05759  Biso   1.000  H
  H102     1.0000 0.35535  0.41279  0.55759  Biso   1.000  H
  H103     1.0000 0.35535  0.58721  0.44241  Biso   1.000  H
  H104     1.0000 0.14465  0.41279  0.94241  Biso   1.000  H
  H105     1.0000 0.16279  0.60535  0.19241  Biso   1.000  H
  H106     1.0000 0.83721  0.89465  0.19241  Biso   1.000  H
  H107     1.0000 0.16279  0.39465  0.80759  Biso   1.000  H
  H108     1.0000 0.83721  0.10535  0.80759  Biso   1.000  H
  H109     1.0000 0.64465  0.08721  0.55759  Biso   1.000  H
  H110     1.0000 0.85535  0.91279  0.05759  Biso   1.000  H
  H111     1.0000 0.85535  0.08721  0.94241  Biso   1.000  H
  H112     1.0000 0.64465  0.91279  0.44241  Biso   1.000  H
  H113     1.0000 0.33721  0.89465  0.30759  Biso   1.000  H
  H114     1.0000 0.66279  0.60535  0.30759  Biso   1.000  H
  H115     1.0000 0.33721  0.10535  0.69241  Biso   1.000  H
  H116     1.0000 0.66279  0.39465  0.69241  Biso   1.000  H
  H117     1.0000 0.35535  0.91279  0.44241  Biso   1.000  H
  H118     1.0000 0.14465  0.08721  0.94241  Biso   1.000  H
  H119     1.0000 0.14465  0.91279  0.05759  Biso   1.000  H
  H120     1.0000 0.35535  0.08721  0.55759  Biso   1.000  H
  H121     1.0000 0.83721  0.39465  0.80759  Biso   1.000  H
  H122     1.0000 0.16279  0.10535  0.80759  Biso   1.000  H
  H123     1.0000 0.83721  0.60535  0.19241  Biso   1.000  H
  H124     1.0000 0.16279  0.89465  0.19241  Biso   1.000  H
  H125     1.0000 0.85535  0.41279  0.94241  Biso   1.000  H
  H126     1.0000 0.64465  0.58721  0.44241  Biso   1.000  H
  H127     1.0000 0.64465  0.41279  0.55759  Biso   1.000  H
  H128     1.0000 0.85535  0.58721  0.05759  Biso   1.000  H
  C225     1.0000 0.90785  0.84215  0.62500  Biso   1.000  C
  C226     1.0000 0.09215  0.65785  0.62500  Biso   1.000  C
  C227     1.0000 0.90785  0.15785  0.37500  Biso   1.000  C
  C228     1.0000 0.09215  0.34215  0.37500  Biso   1.000  C
  C229     1.0000 0.40785  0.34215  0.12500  Biso   1.000  C
  C230     1.0000 0.40785  0.65785  0.87500  Biso   1.000  C
  C231     1.0000 0.59215  0.15785  0.12500  Biso   1.000  C
  C232     1.0000 0.59215  0.84215  0.87500  Biso   1.000  C
  C233     1.0000 0.09215  0.15785  0.37500  Biso   1.000  C
  C234     1.0000 0.90785  0.34215  0.37500  Biso   1.000  C
  C235     1.0000 0.09215  0.84215  0.62500  Biso   1.000  C
  C236     1.0000 0.90785  0.65785  0.62500  Biso   1.000  C
  C237     1.0000 0.40785  0.84215  0.87500  Biso   1.000  C
  C238     1.0000 0.40785  0.15785  0.12500  Biso   1.000  C
  C239     1.0000 0.59215  0.65785  0.87500  Biso   1.000  C
  C240     1.0000 0.59215  0.34215  0.12500  Biso   1.000  C
  C241     1.0000 0.85305  0.89695  0.62500  Biso   1.000  C
  C242     1.0000 0.14695  0.60305  0.62500  Biso   1.000  C
  C243     1.0000 0.85305  0.10305  0.37500  Biso   1.000  C
  C244     1.0000 0.14695  0.39695  0.37500  Biso   1.000  C
  C245     1.0000 0.35305  0.39695  0.12500  Biso   1.000  C
  C246     1.0000 0.35305  0.60305  0.87500  Biso   1.000  C
  C247     1.0000 0.64695  0.10305  0.12500  Biso   1.000  C
  C248     1.0000 0.64695  0.89695  0.87500  Biso   1.000  C
  C249     1.0000 0.14695  0.10305  0.37500  Biso   1.000  C
  C250     1.0000 0.85305  0.39695  0.37500  Biso   1.000  C
  C251     1.0000 0.14695  0.89695  0.62500  Biso   1.000  C
  C252     1.0000 0.85305  0.60305  0.62500  Biso   1.000  C
  C253     1.0000 0.35305  0.89695  0.87500  Biso   1.000  C
  C254     1.0000 0.35305  0.10305  0.12500  Biso   1.000  C
  C255     1.0000 0.64695  0.60305  0.87500  Biso   1.000  C
  C256     1.0000 0.64695  0.39695  0.12500  Biso   1.000  C
  C257     1.0000 0.84053  0.93492  0.64358  Biso   1.000  C
  C258     1.0000 0.15947  0.56508  0.64358  Biso   1.000  C
  C259     1.0000 0.84053  0.06508  0.35642  Biso   1.000  C
  C260     1.0000 0.15947  0.43492  0.35642  Biso   1.000  C
  C261     1.0000 0.31508  0.40947  0.10642  Biso   1.000  C
  C262     1.0000 0.18492  0.59053  0.60642  Biso   1.000  C
  C263     1.0000 0.18492  0.40947  0.39358  Biso   1.000  C
  C264     1.0000 0.31508  0.59053  0.89358  Biso   1.000  C
  C265     1.0000 0.34053  0.43492  0.14358  Biso   1.000  C
  C266     1.0000 0.65947  0.06508  0.14358  Biso   1.000  C
  C267     1.0000 0.34053  0.56508  0.85642  Biso   1.000  C
  C268     1.0000 0.65947  0.93492  0.85642  Biso   1.000  C
  C269     1.0000 0.81508  0.90947  0.60642  Biso   1.000  C
  C270     1.0000 0.68492  0.09053  0.10642  Biso   1.000  C
  C271     1.0000 0.68492  0.90947  0.89358  Biso   1.000  C
  C272     1.0000 0.81508  0.09053  0.39358  Biso   1.000  C
  C273     1.0000 0.15947  0.06508  0.35642  Biso   1.000  C
  C274     1.0000 0.84053  0.43492  0.35642  Biso   1.000  C
  C275     1.0000 0.15947  0.93492  0.64358  Biso   1.000  C
  C276     1.0000 0.84053  0.56508  0.64358  Biso   1.000  C
  C277     1.0000 0.18492  0.09053  0.39358  Biso   1.000  C
  C278     1.0000 0.31508  0.90947  0.89358  Biso   1.000  C
  C279     1.0000 0.31508  0.09053  0.10642  Biso   1.000  C
  C280     1.0000 0.18492  0.90947  0.60642  Biso   1.000  C
  C281     1.0000 0.65947  0.56508  0.85642  Biso   1.000  C
  C282     1.0000 0.34053  0.93492  0.85642  Biso   1.000  C
  C283     1.0000 0.65947  0.43492  0.14358  Biso   1.000  C
  C284     1.0000 0.34053  0.06508  0.14358  Biso   1.000  C
  C285     1.0000 0.68492  0.59053  0.89358  Biso   1.000  C
  C286     1.0000 0.81508  0.40947  0.39358  Biso   1.000  C
  C287     1.0000 0.81508  0.59053  0.60642  Biso   1.000  C
  C288     1.0000 0.68492  0.40947  0.10642  Biso   1.000  C
  H129     1.0000 0.86577  0.92581  0.65614  Biso   1.000  H
  H130     1.0000 0.13423  0.57419  0.65614  Biso   1.000  H
  H131     1.0000 0.86577  0.07419  0.34386  Biso   1.000  H
  H132     1.0000 0.13423  0.42581  0.34386  Biso   1.000  H
  H133     1.0000 0.32419  0.38423  0.09386  Biso   1.000  H
  H134     1.0000 0.17581  0.61577  0.59386  Biso   1.000  H
  H135     1.0000 0.17581  0.38423  0.40614  Biso   1.000  H
  H136     1.0000 0.32419  0.61577  0.90614  Biso   1.000  H
  H137     1.0000 0.36577  0.42581  0.15614  Biso   1.000  H
  H138     1.0000 0.63423  0.07419  0.15614  Biso   1.000  H
  H139     1.0000 0.36577  0.57419  0.84386  Biso   1.000  H
  H140     1.0000 0.63423  0.92581  0.84386  Biso   1.000  H
  H141     1.0000 0.82419  0.88423  0.59386  Biso   1.000  H
  H142     1.0000 0.67581  0.11577  0.09386  Biso   1.000  H
  H143     1.0000 0.67581  0.88423  0.90614  Biso   1.000  H
  H144     1.0000 0.82419  0.11577  0.40614  Biso   1.000  H
  H145     1.0000 0.13423  0.07419  0.34386  Biso   1.000  H
  H146     1.0000 0.86577  0.42581  0.34386  Biso   1.000  H
  H147     1.0000 0.13423  0.92581  0.65614  Biso   1.000  H
  H148     1.0000 0.86577  0.57419  0.65614  Biso   1.000  H
  H149     1.0000 0.17581  0.11577  0.40614  Biso   1.000  H
  H150     1.0000 0.32419  0.88423  0.90614  Biso   1.000  H
  H151     1.0000 0.32419  0.11577  0.09386  Biso   1.000  H
  H152     1.0000 0.17581  0.88423  0.59386  Biso   1.000  H
  H153     1.0000 0.63423  0.57419  0.84386  Biso   1.000  H
  H154     1.0000 0.36577  0.92581  0.84386  Biso   1.000  H
  H155     1.0000 0.63423  0.42581  0.15614  Biso   1.000  H
  H156     1.0000 0.36577  0.07419  0.15614  Biso   1.000  H
  H157     1.0000 0.67581  0.61577  0.90614  Biso   1.000  H
  H158     1.0000 0.82419  0.38423  0.40614  Biso   1.000  H
  H159     1.0000 0.82419  0.61577  0.59386  Biso   1.000  H
  H160     1.0000 0.67581  0.38423  0.09386  Biso   1.000  H
  C289     1.0000 0.79093  0.98640  0.64376  Biso   1.000  C
  C290     1.0000 0.20907  0.51360  0.64376  Biso   1.000  C
  C291     1.0000 0.79093  0.01360  0.35624  Biso   1.000  C
  C292     1.0000 0.20907  0.48640  0.35624  Biso   1.000  C
  C293     1.0000 0.26360  0.45907  0.10624  Biso   1.000  C
  C294     1.0000 0.23640  0.54093  0.60624  Biso   1.000  C
  C295     1.0000 0.23640  0.45907  0.39376  Biso   1.000  C
  C296     1.0000 0.26360  0.54093  0.89376  Biso   1.000  C
  C297     1.0000 0.29093  0.48640  0.14376  Biso   1.000  C
  C298     1.0000 0.70907  0.01360  0.14376  Biso   1.000  C
  C299     1.0000 0.29093  0.51360  0.85624  Biso   1.000  C
  C300     1.0000 0.70907  0.98640  0.85624  Biso   1.000  C
  C301     1.0000 0.76360  0.95907  0.60624  Biso   1.000  C
  C302     1.0000 0.73640  0.04093  0.10624  Biso   1.000  C
  C303     1.0000 0.73640  0.95907  0.89376  Biso   1.000  C
  C304     1.0000 0.76360  0.04093  0.39376  Biso   1.000  C
  C305     1.0000 0.20907  0.01360  0.35624  Biso   1.000  C
  C306     1.0000 0.79093  0.48640  0.35624  Biso   1.000  C
  C307     1.0000 0.20907  0.98640  0.64376  Biso   1.000  C
  C308     1.0000 0.79093  0.51360  0.64376  Biso   1.000  C
  C309     1.0000 0.23640  0.04093  0.39376  Biso   1.000  C
  C310     1.0000 0.26360  0.95907  0.89376  Biso   1.000  C
  C311     1.0000 0.26360  0.04093  0.10624  Biso   1.000  C
  C312     1.0000 0.23640  0.95907  0.60624  Biso   1.000  C
  C313     1.0000 0.70907  0.51360  0.85624  Biso   1.000  C
  C314     1.0000 0.29093  0.98640  0.85624  Biso   1.000  C
  C315     1.0000 0.70907  0.48640  0.14376  Biso   1.000  C
  C316     1.0000 0.29093  0.01360  0.14376  Biso   1.000  C
  C317     1.0000 0.73640  0.54093  0.89376  Biso   1.000  C
  C318     1.0000 0.76360  0.45907  0.39376  Biso   1.000  C
  C319     1.0000 0.76360  0.54093  0.60624  Biso   1.000  C
  C320     1.0000 0.73640  0.45907  0.10624  Biso   1.000  C
  C321     1.0000 0.75307  0.99693  0.62500  Biso   1.000  C
  C322     1.0000 0.24693  0.50307  0.62500  Biso   1.000  C
  C323     1.0000 0.75307  0.00307  0.37500  Biso   1.000  C
  C324     1.0000 0.24693  0.49693  0.37500  Biso   1.000  C
  C325     1.0000 0.25307  0.49693  0.12500  Biso   1.000  C
  C326     1.0000 0.25307  0.50307  0.87500  Biso   1.000  C
  C327     1.0000 0.74693  0.00307  0.12500  Biso   1.000  C
  C328     1.0000 0.74693  0.99693  0.87500  Biso   1.000  C
  C329     1.0000 0.24693  0.00307  0.37500  Biso   1.000  C
  C330     1.0000 0.75307  0.49693  0.37500  Biso   1.000  C
  C331     1.0000 0.24693  0.99693  0.62500  Biso   1.000  C
  C332     1.0000 0.75307  0.50307  0.62500  Biso   1.000  C
  C333     1.0000 0.25307  0.99693  0.87500  Biso   1.000  C
  C334     1.0000 0.25307  0.00307  0.12500  Biso   1.000  C
  C335     1.0000 0.74693  0.50307  0.87500  Biso   1.000  C
  C336     1.0000 0.74693  0.49693  0.12500  Biso   1.000  C
  H161     1.0000 0.71907  0.03093  0.62500  Biso   1.000  H
  H162     1.0000 0.28093  0.46907  0.62500  Biso   1.000  H
  H163     1.0000 0.71907  0.96907  0.37500  Biso   1.000  H
  H164     1.0000 0.28093  0.53093  0.37500  Biso   1.000  H
  H165     1.0000 0.21907  0.53093  0.12500  Biso   1.000  H
  H166     1.0000 0.21907  0.46907  0.87500  Biso   1.000  H
  H167     1.0000 0.78093  0.96907  0.12500  Biso   1.000  H
  H168     1.0000 0.78093  0.03093  0.87500  Biso   1.000  H
  H169     1.0000 0.28093  0.96907  0.37500  Biso   1.000  H
  H170     1.0000 0.71907  0.53093  0.37500  Biso   1.000  H
  H171     1.0000 0.28093  0.03093  0.62500  Biso   1.000  H
  H172     1.0000 0.71907  0.46907  0.62500  Biso   1.000  H
  H173     1.0000 0.21907  0.03093  0.87500  Biso   1.000  H
  H174     1.0000 0.21907  0.96907  0.12500  Biso   1.000  H
  H175     1.0000 0.78093  0.46907  0.87500  Biso   1.000  H
  H176     1.0000 0.78093  0.53093  0.12500  Biso   1.000  H
  N1       1.0000 0.93306  0.25000  0.75267  Biso   1.000  N
  N2       1.0000 0.06694  0.25000  0.75267  Biso   1.000  N
  N3       1.0000 0.93306  0.75000  0.24733  Biso   1.000  N
  N4       1.0000 0.06694  0.75000  0.24733  Biso   1.000  N
  N5       1.0000 0.00000  0.31694  0.99733  Biso   1.000  N
  N6       1.0000 0.50000  0.68306  0.49733  Biso   1.000  N
  N7       1.0000 0.50000  0.31694  0.50267  Biso   1.000  N
  N8       1.0000 0.00000  0.68306  0.00267  Biso   1.000  N
  N9       1.0000 0.43306  0.75000  0.25267  Biso   1.000  N
  N10      1.0000 0.56694  0.75000  0.25267  Biso   1.000  N
  N11      1.0000 0.43306  0.25000  0.74733  Biso   1.000  N
  N12      1.0000 0.56694  0.25000  0.74733  Biso   1.000  N
  N13      1.0000 0.50000  0.81694  0.49733  Biso   1.000  N
  N14      1.0000 0.00000  0.18306  0.99733  Biso   1.000  N
  N15      1.0000 0.00000  0.81694  0.00267  Biso   1.000  N
  N16      1.0000 0.50000  0.18306  0.50267  Biso   1.000  N
  C337     1.0000 0.96100  0.31140  0.76394  Biso   1.000  C
  C338     1.0000 0.03900  0.18860  0.76394  Biso   1.000  C
  C339     1.0000 0.96100  0.68860  0.23606  Biso   1.000  C
  C340     1.0000 0.03900  0.81140  0.23606  Biso   1.000  C
  C341     1.0000 0.93860  0.28900  0.98606  Biso   1.000  C
  C342     1.0000 0.56140  0.71100  0.48606  Biso   1.000  C
  C343     1.0000 0.56140  0.28900  0.51394  Biso   1.000  C
  C344     1.0000 0.93860  0.71100  0.01394  Biso   1.000  C
  C345     1.0000 0.46100  0.81140  0.26394  Biso   1.000  C
  C346     1.0000 0.53900  0.68860  0.26394  Biso   1.000  C
  C347     1.0000 0.46100  0.18860  0.73606  Biso   1.000  C
  C348     1.0000 0.53900  0.31140  0.73606  Biso   1.000  C
  C349     1.0000 0.43860  0.78900  0.48606  Biso   1.000  C
  C350     1.0000 0.06140  0.21100  0.98606  Biso   1.000  C
  C351     1.0000 0.06140  0.78900  0.01394  Biso   1.000  C
  C352     1.0000 0.43860  0.21100  0.51394  Biso   1.000  C
  C353     1.0000 0.03900  0.68860  0.23606  Biso   1.000  C
  C354     1.0000 0.96100  0.81140  0.23606  Biso   1.000  C
  C355     1.0000 0.03900  0.31140  0.76394  Biso   1.000  C
  C356     1.0000 0.96100  0.18860  0.76394  Biso   1.000  C
  C357     1.0000 0.56140  0.21100  0.51394  Biso   1.000  C
  C358     1.0000 0.93860  0.78900  0.01394  Biso   1.000  C
  C359     1.0000 0.93860  0.21100  0.98606  Biso   1.000  C
  C360     1.0000 0.56140  0.78900  0.48606  Biso   1.000  C
  C361     1.0000 0.53900  0.18860  0.73606  Biso   1.000  C
  C362     1.0000 0.46100  0.31140  0.73606  Biso   1.000  C
  C363     1.0000 0.53900  0.81140  0.26394  Biso   1.000  C
  C364     1.0000 0.46100  0.68860  0.26394  Biso   1.000  C
  C365     1.0000 0.06140  0.71100  0.01394  Biso   1.000  C
  C366     1.0000 0.43860  0.28900  0.51394  Biso   1.000  C
  C367     1.0000 0.43860  0.71100  0.48606  Biso   1.000  C
  C368     1.0000 0.06140  0.28900  0.98606  Biso   1.000  C
  H177     1.0000 0.94442  0.31195  0.77884  Biso   1.000  H
  H178     1.0000 0.05558  0.18805  0.77884  Biso   1.000  H
  H179     1.0000 0.94442  0.68805  0.22116  Biso   1.000  H
  H180     1.0000 0.05558  0.81195  0.22116  Biso   1.000  H
  H181     1.0000 0.93805  0.30558  0.97116  Biso   1.000  H
  H182     1.0000 0.56195  0.69442  0.47116  Biso   1.000  H
  H183     1.0000 0.56195  0.30558  0.52884  Biso   1.000  H
  H184     1.0000 0.93805  0.69442  0.02884  Biso   1.000  H
  H185     1.0000 0.44442  0.81195  0.27884  Biso   1.000  H
  H186     1.0000 0.55558  0.68805  0.27884  Biso   1.000  H
  H187     1.0000 0.44442  0.18805  0.72116  Biso   1.000  H
  H188     1.0000 0.55558  0.31195  0.72116  Biso   1.000  H
  H189     1.0000 0.43805  0.80558  0.47116  Biso   1.000  H
  H190     1.0000 0.06195  0.19442  0.97116  Biso   1.000  H
  H191     1.0000 0.06195  0.80558  0.02884  Biso   1.000  H
  H192     1.0000 0.43805  0.19442  0.52884  Biso   1.000  H
  H193     1.0000 0.05558  0.68805  0.22116  Biso   1.000  H
  H194     1.0000 0.94442  0.81195  0.22116  Biso   1.000  H
  H195     1.0000 0.05558  0.31195  0.77884  Biso   1.000  H
  H196     1.0000 0.94442  0.18805  0.77884  Biso   1.000  H
  H197     1.0000 0.56195  0.19442  0.52884  Biso   1.000  H
  H198     1.0000 0.93805  0.80558  0.02884  Biso   1.000  H
  H199     1.0000 0.93805  0.19442  0.97116  Biso   1.000  H
  H200     1.0000 0.56195  0.80558  0.47116  Biso   1.000  H
  H201     1.0000 0.55558  0.18805  0.72116  Biso   1.000  H
  H202     1.0000 0.44442  0.31195  0.72116  Biso   1.000  H
  H203     1.0000 0.55558  0.81195  0.27884  Biso   1.000  H
  H204     1.0000 0.44442  0.68805  0.27884  Biso   1.000  H
  H205     1.0000 0.06195  0.69442  0.02884  Biso   1.000  H
  H206     1.0000 0.43805  0.30558  0.52884  Biso   1.000  H
  H207     1.0000 0.43805  0.69442  0.47116  Biso   1.000  H
  H208     1.0000 0.06195  0.30558  0.97116  Biso   1.000  H
  H209     1.0000 0.94441  0.35285  0.75678  Biso   1.000  H
  H210     1.0000 0.05559  0.14715  0.75678  Biso   1.000  H
  H211     1.0000 0.94441  0.64715  0.24322  Biso   1.000  H
  H212     1.0000 0.05559  0.85285  0.24322  Biso   1.000  H
  H213     1.0000 0.89715  0.30559  0.99322  Biso   1.000  H
  H214     1.0000 0.60285  0.69441  0.49322  Biso   1.000  H
  H215     1.0000 0.60285  0.30559  0.50678  Biso   1.000  H
  H216     1.0000 0.89715  0.69441  0.00678  Biso   1.000  H
  H217     1.0000 0.44441  0.85285  0.25678  Biso   1.000  H
  H218     1.0000 0.55559  0.64715  0.25678  Biso   1.000  H
  H219     1.0000 0.44441  0.14715  0.74322  Biso   1.000  H
  H220     1.0000 0.55559  0.35285  0.74322  Biso   1.000  H
  H221     1.0000 0.39715  0.80559  0.49322  Biso   1.000  H
  H222     1.0000 0.10285  0.19441  0.99322  Biso   1.000  H
  H223     1.0000 0.10285  0.80559  0.00678  Biso   1.000  H
  H224     1.0000 0.39715  0.19441  0.50678  Biso   1.000  H
  H225     1.0000 0.05559  0.64715  0.24322  Biso   1.000  H
  H226     1.0000 0.94441  0.85285  0.24322  Biso   1.000  H
  H227     1.0000 0.05559  0.35285  0.75678  Biso   1.000  H
  H228     1.0000 0.94441  0.14715  0.75678  Biso   1.000  H
  H229     1.0000 0.60285  0.19441  0.50678  Biso   1.000  H
  H230     1.0000 0.89715  0.80559  0.00678  Biso   1.000  H
  H231     1.0000 0.89715  0.19441  0.99322  Biso   1.000  H
  H232     1.0000 0.60285  0.80559  0.49322  Biso   1.000  H
  H233     1.0000 0.55559  0.14715  0.74322  Biso   1.000  H
  H234     1.0000 0.44441  0.35285  0.74322  Biso   1.000  H
  H235     1.0000 0.55559  0.85285  0.25678  Biso   1.000  H
  H236     1.0000 0.44441  0.64715  0.25678  Biso   1.000  H
  H237     1.0000 0.10285  0.69441  0.00678  Biso   1.000  H
  H238     1.0000 0.39715  0.30559  0.50678  Biso   1.000  H
  H239     1.0000 0.39715  0.69441  0.49322  Biso   1.000  H
  H240     1.0000 0.10285  0.30559  0.99322  Biso   1.000  H
  C369     1.0000 0.96020  0.25000  0.73016  Biso   1.000  C
  C370     1.0000 0.03980  0.25000  0.73016  Biso   1.000  C
  C371     1.0000 0.96020  0.75000  0.26984  Biso   1.000  C
  C372     1.0000 0.03980  0.75000  0.26984  Biso   1.000  C
  C373     1.0000 0.00000  0.28980  0.01984  Biso   1.000  C
  C374     1.0000 0.50000  0.71020  0.51984  Biso   1.000  C
  C375     1.0000 0.50000  0.28980  0.48016  Biso   1.000  C
  C376     1.0000 0.00000  0.71020  0.98016  Biso   1.000  C
  C377     1.0000 0.46020  0.75000  0.23016  Biso   1.000  C
  C378     1.0000 0.53980  0.75000  0.23016  Biso   1.000  C
  C379     1.0000 0.46020  0.25000  0.76984  Biso   1.000  C
  C380     1.0000 0.53980  0.25000  0.76984  Biso   1.000  C
  C381     1.0000 0.50000  0.78980  0.51984  Biso   1.000  C
  C382     1.0000 0.00000  0.21020  0.01984  Biso   1.000  C
  C383     1.0000 0.00000  0.78980  0.98016  Biso   1.000  C
  C384     1.0000 0.50000  0.21020  0.48016  Biso   1.000  C
  H241     1.0000 0.94343  0.29059  0.72253  Biso   1.000  H
  H242     1.0000 0.05657  0.20941  0.72253  Biso   1.000  H
  H243     1.0000 0.94343  0.70941  0.27747  Biso   1.000  H
  H244     1.0000 0.05657  0.79059  0.27747  Biso   1.000  H
  H245     1.0000 0.95941  0.30657  0.02747  Biso   1.000  H
  H246     1.0000 0.54059  0.69343  0.52747  Biso   1.000  H
  H247     1.0000 0.54059  0.30657  0.47253  Biso   1.000  H
  H248     1.0000 0.95941  0.69343  0.97253  Biso   1.000  H
  H249     1.0000 0.44343  0.79059  0.22253  Biso   1.000  H
  H250     1.0000 0.55657  0.70941  0.22253  Biso   1.000  H
  H251     1.0000 0.44343  0.20941  0.77747  Biso   1.000  H
  H252     1.0000 0.55657  0.29059  0.77747  Biso   1.000  H
  H253     1.0000 0.45941  0.80657  0.52747  Biso   1.000  H
  H254     1.0000 0.04059  0.19343  0.02747  Biso   1.000  H
  H255     1.0000 0.04059  0.80657  0.97253  Biso   1.000  H
  H256     1.0000 0.45941  0.19343  0.47253  Biso   1.000  H
  H257     1.0000 0.05657  0.70941  0.27747  Biso   1.000  H
  H258     1.0000 0.94343  0.79059  0.27747  Biso   1.000  H
  H259     1.0000 0.05657  0.29059  0.72253  Biso   1.000  H
  H260     1.0000 0.94343  0.20941  0.72253  Biso   1.000  H
  H261     1.0000 0.54059  0.19343  0.47253  Biso   1.000  H
  H262     1.0000 0.95941  0.80657  0.97253  Biso   1.000  H
  H263     1.0000 0.95941  0.19343  0.02747  Biso   1.000  H
  H264     1.0000 0.54059  0.80657  0.52747  Biso   1.000  H
  H265     1.0000 0.55657  0.20941  0.77747  Biso   1.000  H
  H266     1.0000 0.44343  0.29059  0.77747  Biso   1.000  H
  H267     1.0000 0.55657  0.79059  0.22253  Biso   1.000  H
  H268     1.0000 0.44343  0.70941  0.22253  Biso   1.000  H
  H269     1.0000 0.04059  0.69343  0.97253  Biso   1.000  H
  H270     1.0000 0.45941  0.30657  0.47253  Biso   1.000  H
  H271     1.0000 0.45941  0.69343  0.52747  Biso   1.000  H
  H272     1.0000 0.04059  0.30657  0.02747  Biso   1.000  H
  C385     1.0000 0.95990  0.25000  0.77465  Biso   1.000  C
  C386     1.0000 0.04010  0.25000  0.77465  Biso   1.000  C
  C387     1.0000 0.95990  0.75000  0.22535  Biso   1.000  C
  C388     1.0000 0.04010  0.75000  0.22535  Biso   1.000  C
  C389     1.0000 0.00000  0.29010  0.97535  Biso   1.000  C
  C390     1.0000 0.50000  0.70990  0.47535  Biso   1.000  C
  C391     1.0000 0.50000  0.29010  0.52465  Biso   1.000  C
  C392     1.0000 0.00000  0.70990  0.02465  Biso   1.000  C
  C393     1.0000 0.45990  0.75000  0.27465  Biso   1.000  C
  C394     1.0000 0.54010  0.75000  0.27465  Biso   1.000  C
  C395     1.0000 0.45990  0.25000  0.72535  Biso   1.000  C
  C396     1.0000 0.54010  0.25000  0.72535  Biso   1.000  C
  C397     1.0000 0.50000  0.79010  0.47535  Biso   1.000  C
  C398     1.0000 0.00000  0.20990  0.97535  Biso   1.000  C
  C399     1.0000 0.00000  0.79010  0.02465  Biso   1.000  C
  C400     1.0000 0.50000  0.20990  0.52465  Biso   1.000  C
  H273     1.0000 0.94319  0.20942  0.78229  Biso   1.000  H
  H274     1.0000 0.05681  0.29058  0.78229  Biso   1.000  H
  H275     1.0000 0.94319  0.79058  0.21771  Biso   1.000  H
  H276     1.0000 0.05681  0.70942  0.21771  Biso   1.000  H
  H277     1.0000 0.04058  0.30681  0.96771  Biso   1.000  H
  H278     1.0000 0.45942  0.69319  0.46771  Biso   1.000  H
  H279     1.0000 0.45942  0.30681  0.53229  Biso   1.000  H
  H280     1.0000 0.04058  0.69319  0.03229  Biso   1.000  H
  H281     1.0000 0.44319  0.70942  0.28229  Biso   1.000  H
  H282     1.0000 0.55681  0.79058  0.28229  Biso   1.000  H
  H283     1.0000 0.44319  0.29058  0.71771  Biso   1.000  H
  H284     1.0000 0.55681  0.20942  0.71771  Biso   1.000  H
  H285     1.0000 0.54058  0.80681  0.46771  Biso   1.000  H
  H286     1.0000 0.95942  0.19319  0.96771  Biso   1.000  H
  H287     1.0000 0.95942  0.80681  0.03229  Biso   1.000  H
  H288     1.0000 0.54058  0.19319  0.53229  Biso   1.000  H
  H289     1.0000 0.05681  0.79058  0.21771  Biso   1.000  H
  H290     1.0000 0.94319  0.70942  0.21771  Biso   1.000  H
  H291     1.0000 0.05681  0.20942  0.78229  Biso   1.000  H
  H292     1.0000 0.94319  0.29058  0.78229  Biso   1.000  H
  H293     1.0000 0.45942  0.19319  0.53229  Biso   1.000  H
  H294     1.0000 0.04058  0.80681  0.03229  Biso   1.000  H
  H295     1.0000 0.04058  0.19319  0.96771  Biso   1.000  H
  H296     1.0000 0.45942  0.80681  0.46771  Biso   1.000  H
  H297     1.0000 0.55681  0.29058  0.71771  Biso   1.000  H
  H298     1.0000 0.44319  0.20942  0.71771  Biso   1.000  H
  H299     1.0000 0.55681  0.70942  0.28229  Biso   1.000  H
  H300     1.0000 0.44319  0.79058  0.28229  Biso   1.000  H
  H301     1.0000 0.95942  0.69319  0.03229  Biso   1.000  H
  H302     1.0000 0.54058  0.30681  0.53229  Biso   1.000  H
  H303     1.0000 0.54058  0.69319  0.46771  Biso   1.000  H
  H304     1.0000 0.95942  0.30681  0.96771  Biso   1.000  H
  C401     1.0000 0.95980  0.19230  0.74122  Biso   1.000  C
  C402     1.0000 0.04020  0.30770  0.74122  Biso   1.000  C
  C403     1.0000 0.95980  0.80770  0.25878  Biso   1.000  C
  C404     1.0000 0.04020  0.69230  0.25878  Biso   1.000  C
  C405     1.0000 0.05770  0.29020  0.00878  Biso   1.000  C
  C406     1.0000 0.44230  0.70980  0.50878  Biso   1.000  C
  C407     1.0000 0.44230  0.29020  0.49122  Biso   1.000  C
  C408     1.0000 0.05770  0.70980  0.99122  Biso   1.000  C
  C409     1.0000 0.45980  0.69230  0.24122  Biso   1.000  C
  C410     1.0000 0.54020  0.80770  0.24122  Biso   1.000  C
  C411     1.0000 0.45980  0.30770  0.75878  Biso   1.000  C
  C412     1.0000 0.54020  0.19230  0.75878  Biso   1.000  C
  C413     1.0000 0.55770  0.79020  0.50878  Biso   1.000  C
  C414     1.0000 0.94230  0.20980  0.00878  Biso   1.000  C
  C415     1.0000 0.94230  0.79020  0.99122  Biso   1.000  C
  C416     1.0000 0.55770  0.20980  0.49122  Biso   1.000  C
  C417     1.0000 0.04020  0.80770  0.25878  Biso   1.000  C
  C418     1.0000 0.95980  0.69230  0.25878  Biso   1.000  C
  C419     1.0000 0.04020  0.19230  0.74122  Biso   1.000  C
  C420     1.0000 0.95980  0.30770  0.74122  Biso   1.000  C
  C421     1.0000 0.44230  0.20980  0.49122  Biso   1.000  C
  C422     1.0000 0.05770  0.79020  0.99122  Biso   1.000  C
  C423     1.0000 0.05770  0.20980  0.00878  Biso   1.000  C
  C424     1.0000 0.44230  0.79020  0.50878  Biso   1.000  C
  C425     1.0000 0.54020  0.30770  0.75878  Biso   1.000  C
  C426     1.0000 0.45980  0.19230  0.75878  Biso   1.000  C
  C427     1.0000 0.54020  0.69230  0.24122  Biso   1.000  C
  C428     1.0000 0.45980  0.80770  0.24122  Biso   1.000  C
  C429     1.0000 0.94230  0.70980  0.99122  Biso   1.000  C
  C430     1.0000 0.55770  0.29020  0.49122  Biso   1.000  C
  C431     1.0000 0.55770  0.70980  0.50878  Biso   1.000  C
  C432     1.0000 0.94230  0.29020  0.00878  Biso   1.000  C
  H305     1.0000 0.94323  0.19331  0.72633  Biso   1.000  H
  H306     1.0000 0.05677  0.30669  0.72633  Biso   1.000  H
  H307     1.0000 0.94323  0.80669  0.27367  Biso   1.000  H
  H308     1.0000 0.05677  0.69331  0.27367  Biso   1.000  H
  H309     1.0000 0.05669  0.30677  0.02367  Biso   1.000  H
  H310     1.0000 0.44331  0.69323  0.52367  Biso   1.000  H
  H311     1.0000 0.44331  0.30677  0.47633  Biso   1.000  H
  H312     1.0000 0.05669  0.69323  0.97633  Biso   1.000  H
  H313     1.0000 0.44323  0.69331  0.22633  Biso   1.000  H
  H314     1.0000 0.55677  0.80669  0.22633  Biso   1.000  H
  H315     1.0000 0.44323  0.30669  0.77367  Biso   1.000  H
  H316     1.0000 0.55677  0.19331  0.77367  Biso   1.000  H
  H317     1.0000 0.55669  0.80677  0.52367  Biso   1.000  H
  H318     1.0000 0.94331  0.19323  0.02367  Biso   1.000  H
  H319     1.0000 0.94331  0.80677  0.97633  Biso   1.000  H
  H320     1.0000 0.55669  0.19323  0.47633  Biso   1.000  H
  H321     1.0000 0.05677  0.80669  0.27367  Biso   1.000  H
  H322     1.0000 0.94323  0.69331  0.27367  Biso   1.000  H
  H323     1.0000 0.05677  0.19331  0.72633  Biso   1.000  H
  H324     1.0000 0.94323  0.30669  0.72633  Biso   1.000  H
  H325     1.0000 0.44331  0.19323  0.47633  Biso   1.000  H
  H326     1.0000 0.05669  0.80677  0.97633  Biso   1.000  H
  H327     1.0000 0.05669  0.19323  0.02367  Biso   1.000  H
  H328     1.0000 0.44331  0.80677  0.52367  Biso   1.000  H
  H329     1.0000 0.55677  0.30669  0.77367  Biso   1.000  H
  H330     1.0000 0.44323  0.19331  0.77367  Biso   1.000  H
  H331     1.0000 0.55677  0.69331  0.22633  Biso   1.000  H
  H332     1.0000 0.44323  0.80669  0.22633  Biso   1.000  H
  H333     1.0000 0.94331  0.69323  0.97633  Biso   1.000  H
  H334     1.0000 0.55669  0.30677  0.47633  Biso   1.000  H
  H335     1.0000 0.55669  0.69323  0.52367  Biso   1.000  H
  H336     1.0000 0.94331  0.30677  0.02367  Biso   1.000  H
  H337     1.0000 0.94323  0.15006  0.74794  Biso   1.000  H
  H338     1.0000 0.05677  0.34994  0.74794  Biso   1.000  H
  H339     1.0000 0.94323  0.84994  0.25206  Biso   1.000  H
  H340     1.0000 0.05677  0.65006  0.25206  Biso   1.000  H
  H341     1.0000 0.09994  0.30677  0.00206  Biso   1.000  H
  H342     1.0000 0.40006  0.69323  0.50206  Biso   1.000  H
  H343     1.0000 0.40006  0.30677  0.49794  Biso   1.000  H
  H344     1.0000 0.09994  0.69323  0.99794  Biso   1.000  H
  H345     1.0000 0.44323  0.65006  0.24794  Biso   1.000  H
  H346     1.0000 0.55677  0.84994  0.24794  Biso   1.000  H
  H347     1.0000 0.44323  0.34994  0.75206  Biso   1.000  H
  H348     1.0000 0.55677  0.15006  0.75206  Biso   1.000  H
  H349     1.0000 0.59994  0.80677  0.50206  Biso   1.000  H
  H350     1.0000 0.90006  0.19323  0.00206  Biso   1.000  H
  H351     1.0000 0.90006  0.80677  0.99794  Biso   1.000  H
  H352     1.0000 0.59994  0.19323  0.49794  Biso   1.000  H
  H353     1.0000 0.05677  0.84994  0.25206  Biso   1.000  H
  H354     1.0000 0.94323  0.65006  0.25206  Biso   1.000  H
  H355     1.0000 0.05677  0.15006  0.74794  Biso   1.000  H
  H356     1.0000 0.94323  0.34994  0.74794  Biso   1.000  H
  H357     1.0000 0.40006  0.19323  0.49794  Biso   1.000  H
  H358     1.0000 0.09994  0.80677  0.99794  Biso   1.000  H
  H359     1.0000 0.09994  0.19323  0.00206  Biso   1.000  H
  H360     1.0000 0.40006  0.80677  0.50206  Biso   1.000  H
  H361     1.0000 0.55677  0.34994  0.75206  Biso   1.000  H
  H362     1.0000 0.44323  0.15006  0.75206  Biso   1.000  H
  H363     1.0000 0.55677  0.65006  0.24794  Biso   1.000  H
  H364     1.0000 0.44323  0.84994  0.24794  Biso   1.000  H
  H365     1.0000 0.90006  0.69323  0.99794  Biso   1.000  H
  H366     1.0000 0.59994  0.30677  0.49794  Biso   1.000  H
  H367     1.0000 0.59994  0.69323  0.50206  Biso   1.000  H
  H368     1.0000 0.90006  0.30677  0.00206  Biso   1.000  H
  H369     1.0000 0.01104  0.78994  0.68613  Biso   1.000  H
  H370     1.0000 0.98896  0.71006  0.68613  Biso   1.000  H
  H371     1.0000 0.01104  0.21006  0.31387  Biso   1.000  H
  H372     1.0000 0.98896  0.28994  0.31387  Biso   1.000  H
  H373     1.0000 0.46006  0.23896  0.06387  Biso   1.000  H
  H374     1.0000 0.03994  0.76104  0.56387  Biso   1.000  H
  H375     1.0000 0.03994  0.23896  0.43613  Biso   1.000  H
  H376     1.0000 0.46006  0.76104  0.93613  Biso   1.000  H
  H377     1.0000 0.51104  0.28994  0.18613  Biso   1.000  H
  H378     1.0000 0.48896  0.21006  0.18613  Biso   1.000  H
  H379     1.0000 0.51104  0.71006  0.81387  Biso   1.000  H
  H380     1.0000 0.48896  0.78994  0.81387  Biso   1.000  H
  H381     1.0000 0.96006  0.73896  0.56387  Biso   1.000  H
  H382     1.0000 0.53994  0.26104  0.06387  Biso   1.000  H
  H383     1.0000 0.53994  0.73896  0.93613  Biso   1.000  H
  H384     1.0000 0.96006  0.26104  0.43613  Biso   1.000  H
  H385     1.0000 0.98896  0.21006  0.31387  Biso   1.000  H
  H386     1.0000 0.01104  0.28994  0.31387  Biso   1.000  H
  H387     1.0000 0.98896  0.78994  0.68613  Biso   1.000  H
  H388     1.0000 0.01104  0.71006  0.68613  Biso   1.000  H
  H389     1.0000 0.03994  0.26104  0.43613  Biso   1.000  H
  H390     1.0000 0.46006  0.73896  0.93613  Biso   1.000  H
  H391     1.0000 0.46006  0.26104  0.06387  Biso   1.000  H
  H392     1.0000 0.03994  0.73896  0.56387  Biso   1.000  H
  H393     1.0000 0.48896  0.71006  0.81387  Biso   1.000  H
  H394     1.0000 0.51104  0.78994  0.81387  Biso   1.000  H
  H395     1.0000 0.48896  0.28994  0.18613  Biso   1.000  H
  H396     1.0000 0.51104  0.21006  0.18613  Biso   1.000  H
  H397     1.0000 0.53994  0.76104  0.93613  Biso   1.000  H
  H398     1.0000 0.96006  0.23896  0.43613  Biso   1.000  H
  H399     1.0000 0.96006  0.76104  0.56387  Biso   1.000  H
  H400     1.0000 0.53994  0.23896  0.06387  Biso   1.000  H
  H401     1.0000 0.02907  0.72047  0.68613  Biso   1.000  H
  H402     1.0000 0.97093  0.77953  0.68613  Biso   1.000  H
  H403     1.0000 0.02907  0.27953  0.31387  Biso   1.000  H
  H404     1.0000 0.97093  0.22047  0.31387  Biso   1.000  H
  H405     1.0000 0.52953  0.22093  0.06387  Biso   1.000  H
  H406     1.0000 0.97047  0.77907  0.56387  Biso   1.000  H
  H407     1.0000 0.97047  0.22093  0.43613  Biso   1.000  H
  H408     1.0000 0.52953  0.77907  0.93613  Biso   1.000  H
  H409     1.0000 0.52907  0.22047  0.18613  Biso   1.000  H
  H410     1.0000 0.47093  0.27953  0.18613  Biso   1.000  H
  H411     1.0000 0.52907  0.77953  0.81387  Biso   1.000  H
  H412     1.0000 0.47093  0.72047  0.81387  Biso   1.000  H
  H413     1.0000 0.02953  0.72093  0.56387  Biso   1.000  H
  H414     1.0000 0.47047  0.27907  0.06387  Biso   1.000  H
  H415     1.0000 0.47047  0.72093  0.93613  Biso   1.000  H
  H416     1.0000 0.02953  0.27907  0.43613  Biso   1.000  H
  H417     1.0000 0.97093  0.27953  0.31387  Biso   1.000  H
  H418     1.0000 0.02907  0.22047  0.31387  Biso   1.000  H
  H419     1.0000 0.97093  0.72047  0.68613  Biso   1.000  H
  H420     1.0000 0.02907  0.77953  0.68613  Biso   1.000  H
  H421     1.0000 0.97047  0.27907  0.43613  Biso   1.000  H
  H422     1.0000 0.52953  0.72093  0.93613  Biso   1.000  H
  H423     1.0000 0.52953  0.27907  0.06387  Biso   1.000  H
  H424     1.0000 0.97047  0.72093  0.56387  Biso   1.000  H
  H425     1.0000 0.47093  0.77953  0.81387  Biso   1.000  H
  H426     1.0000 0.52907  0.72047  0.81387  Biso   1.000  H
  H427     1.0000 0.47093  0.22047  0.18613  Biso   1.000  H
  H428     1.0000 0.52907  0.27953  0.18613  Biso   1.000  H
  H429     1.0000 0.47047  0.77907  0.93613  Biso   1.000  H
  H430     1.0000 0.02953  0.22093  0.43613  Biso   1.000  H
  H431     1.0000 0.02953  0.77907  0.56387  Biso   1.000  H
  H432     1.0000 0.47047  0.22093  0.06387  Biso   1.000  H
