data_image0
_cell_length_a       17.4057
_cell_length_b       17.4057
_cell_length_c       49.008
_cell_angle_alpha    90
_cell_angle_beta     90
_cell_angle_gamma    120

_symmetry_space_group_name_H-M    "P 1"
_symmetry_int_tables_number       1

loop_
  _symmetry_equiv_pos_as_xyz
  'x, y, z'

loop_
  _atom_site_label
  _atom_site_occupancy
  _atom_site_fract_x
  _atom_site_fract_y
  _atom_site_fract_z
  _atom_site_thermal_displace_type
  _atom_site_B_iso_or_equiv
  _atom_site_type_symbol
  C1       1.0000 0.66670  0.33330  0.98930  Biso   1.000  C
  C2       1.0000 0.33337  0.66663  0.32263  Biso   1.000  C
  C3       1.0000 0.00003  0.99997  0.65597  Biso   1.000  C
  C4       1.0000 0.33330  0.66670  0.01070  Biso   1.000  C
  C5       1.0000 0.99997  0.00003  0.34403  Biso   1.000  C
  C6       1.0000 0.66663  0.33337  0.67737  Biso   1.000  C
  H1       1.0000 0.66670  0.33330  0.96930  Biso   1.000  H
  H2       1.0000 0.33337  0.66663  0.30263  Biso   1.000  H
  H3       1.0000 0.00003  0.99997  0.63597  Biso   1.000  H
  H4       1.0000 0.33330  0.66670  0.03070  Biso   1.000  H
  H5       1.0000 0.99997  0.00003  0.36403  Biso   1.000  H
  H6       1.0000 0.66663  0.33337  0.69737  Biso   1.000  H
  Cl1      1.0000 0.56350  0.25110  0.99846  Biso   1.000  Cl
  Cl2      1.0000 0.74890  0.31240  0.99846  Biso   1.000  Cl
  Cl3      1.0000 0.68760  0.43650  0.99846  Biso   1.000  Cl
  Cl4      1.0000 0.23017  0.58443  0.33179  Biso   1.000  Cl
  Cl5      1.0000 0.41557  0.64573  0.33179  Biso   1.000  Cl
  Cl6      1.0000 0.35427  0.76983  0.33179  Biso   1.000  Cl
  Cl7      1.0000 0.89683  0.91777  0.66513  Biso   1.000  Cl
  Cl8      1.0000 0.08223  0.97907  0.66513  Biso   1.000  Cl
  Cl9      1.0000 0.02093  0.10317  0.66513  Biso   1.000  Cl
  Cl10     1.0000 0.43650  0.74890  0.00154  Biso   1.000  Cl
  Cl11     1.0000 0.25110  0.68760  0.00154  Biso   1.000  Cl
  Cl12     1.0000 0.31240  0.56350  0.00154  Biso   1.000  Cl
  Cl13     1.0000 0.10317  0.08223  0.33487  Biso   1.000  Cl
  Cl14     1.0000 0.91777  0.02093  0.33487  Biso   1.000  Cl
  Cl15     1.0000 0.97907  0.89683  0.33487  Biso   1.000  Cl
  Cl16     1.0000 0.76983  0.41557  0.66821  Biso   1.000  Cl
  Cl17     1.0000 0.58443  0.35427  0.66821  Biso   1.000  Cl
  Cl18     1.0000 0.64573  0.23017  0.66821  Biso   1.000  Cl
  C7       1.0000 0.00000  0.00000  0.02200  Biso   1.000  C
  C8       1.0000 0.66667  0.33333  0.35533  Biso   1.000  C
  C9       1.0000 0.33333  0.66667  0.68867  Biso   1.000  C
  C10      1.0000 0.00000  0.00000  0.97800  Biso   1.000  C
  C11      1.0000 0.66667  0.33333  0.31133  Biso   1.000  C
  C12      1.0000 0.33333  0.66667  0.64467  Biso   1.000  C
  H7       1.0000 0.00000  0.00000  0.04200  Biso   1.000  H
  H8       1.0000 0.66667  0.33333  0.37533  Biso   1.000  H
  H9       1.0000 0.33333  0.66667  0.70867  Biso   1.000  H
  H10      1.0000 0.00000  0.00000  0.95800  Biso   1.000  H
  H11      1.0000 0.66667  0.33333  0.29133  Biso   1.000  H
  H12      1.0000 0.33333  0.66667  0.62467  Biso   1.000  H
  Cl19     1.0000 0.11190  0.06760  0.01530  Biso   1.000  Cl
  Cl20     1.0000 0.93240  0.04430  0.01530  Biso   1.000  Cl
  Cl21     1.0000 0.95570  0.88810  0.01530  Biso   1.000  Cl
  Cl22     1.0000 0.77857  0.40093  0.34863  Biso   1.000  Cl
  Cl23     1.0000 0.59907  0.37763  0.34863  Biso   1.000  Cl
  Cl24     1.0000 0.62237  0.22143  0.34863  Biso   1.000  Cl
  Cl25     1.0000 0.44523  0.73427  0.68197  Biso   1.000  Cl
  Cl26     1.0000 0.26573  0.71097  0.68197  Biso   1.000  Cl
  Cl27     1.0000 0.28903  0.55477  0.68197  Biso   1.000  Cl
  Cl28     1.0000 0.88810  0.93240  0.98470  Biso   1.000  Cl
  Cl29     1.0000 0.06760  0.95570  0.98470  Biso   1.000  Cl
  Cl30     1.0000 0.04430  0.11190  0.98470  Biso   1.000  Cl
  Cl31     1.0000 0.55477  0.26573  0.31803  Biso   1.000  Cl
  Cl32     1.0000 0.73427  0.28903  0.31803  Biso   1.000  Cl
  Cl33     1.0000 0.71097  0.44523  0.31803  Biso   1.000  Cl
  Cl34     1.0000 0.22143  0.59907  0.65137  Biso   1.000  Cl
  Cl35     1.0000 0.40093  0.62237  0.65137  Biso   1.000  Cl
  Cl36     1.0000 0.37763  0.77857  0.65137  Biso   1.000  Cl
  C13      1.0000 0.95370  0.52430  0.18840  Biso   1.000  C
  C14      1.0000 0.47570  0.42940  0.18840  Biso   1.000  C
  C15      1.0000 0.57060  0.04630  0.18840  Biso   1.000  C
  C16      1.0000 0.62037  0.85763  0.52173  Biso   1.000  C
  C17      1.0000 0.14237  0.76273  0.52173  Biso   1.000  C
  C18      1.0000 0.23727  0.37963  0.52173  Biso   1.000  C
  C19      1.0000 0.28703  0.19097  0.85507  Biso   1.000  C
  C20      1.0000 0.80903  0.09607  0.85507  Biso   1.000  C
  C21      1.0000 0.90393  0.71297  0.85507  Biso   1.000  C
  C22      1.0000 0.04630  0.47570  0.81160  Biso   1.000  C
  C23      1.0000 0.52430  0.57060  0.81160  Biso   1.000  C
  C24      1.0000 0.42940  0.95370  0.81160  Biso   1.000  C
  C25      1.0000 0.71297  0.80903  0.14493  Biso   1.000  C
  C26      1.0000 0.19097  0.90393  0.14493  Biso   1.000  C
  C27      1.0000 0.09607  0.28703  0.14493  Biso   1.000  C
  C28      1.0000 0.37963  0.14237  0.47827  Biso   1.000  C
  C29      1.0000 0.85763  0.23727  0.47827  Biso   1.000  C
  C30      1.0000 0.76273  0.62037  0.47827  Biso   1.000  C
  H13      1.0000 0.91950  0.49890  0.20400  Biso   1.000  H
  H14      1.0000 0.50110  0.42060  0.20400  Biso   1.000  H
  H15      1.0000 0.57940  0.08050  0.20400  Biso   1.000  H
  H16      1.0000 0.58617  0.83223  0.53733  Biso   1.000  H
  H17      1.0000 0.16777  0.75393  0.53733  Biso   1.000  H
  H18      1.0000 0.24607  0.41383  0.53733  Biso   1.000  H
  H19      1.0000 0.25283  0.16557  0.87067  Biso   1.000  H
  H20      1.0000 0.83443  0.08727  0.87067  Biso   1.000  H
  H21      1.0000 0.91273  0.74717  0.87067  Biso   1.000  H
  H22      1.0000 0.08050  0.50110  0.79600  Biso   1.000  H
  H23      1.0000 0.49890  0.57940  0.79600  Biso   1.000  H
  H24      1.0000 0.42060  0.91950  0.79600  Biso   1.000  H
  H25      1.0000 0.74717  0.83443  0.12933  Biso   1.000  H
  H26      1.0000 0.16557  0.91273  0.12933  Biso   1.000  H
  H27      1.0000 0.08727  0.25283  0.12933  Biso   1.000  H
  H28      1.0000 0.41383  0.16777  0.46267  Biso   1.000  H
  H29      1.0000 0.83223  0.24607  0.46267  Biso   1.000  H
  H30      1.0000 0.75393  0.58617  0.46267  Biso   1.000  H
  C31      1.0000 0.09130  0.58260  0.16430  Biso   1.000  C
  C32      1.0000 0.41740  0.50870  0.16430  Biso   1.000  C
  C33      1.0000 0.49130  0.90870  0.16430  Biso   1.000  C
  C34      1.0000 0.75797  0.91593  0.49763  Biso   1.000  C
  C35      1.0000 0.08407  0.84203  0.49763  Biso   1.000  C
  C36      1.0000 0.15797  0.24203  0.49763  Biso   1.000  C
  C37      1.0000 0.42463  0.24927  0.83097  Biso   1.000  C
  C38      1.0000 0.75073  0.17537  0.83097  Biso   1.000  C
  C39      1.0000 0.82463  0.57537  0.83097  Biso   1.000  C
  C40      1.0000 0.90870  0.41740  0.83570  Biso   1.000  C
  C41      1.0000 0.58260  0.49130  0.83570  Biso   1.000  C
  C42      1.0000 0.50870  0.09130  0.83570  Biso   1.000  C
  C43      1.0000 0.57537  0.75073  0.16903  Biso   1.000  C
  C44      1.0000 0.24927  0.82463  0.16903  Biso   1.000  C
  C45      1.0000 0.17537  0.42463  0.16903  Biso   1.000  C
  C46      1.0000 0.24203  0.08407  0.50237  Biso   1.000  C
  C47      1.0000 0.91593  0.15797  0.50237  Biso   1.000  C
  C48      1.0000 0.84203  0.75797  0.50237  Biso   1.000  C
  H31      1.0000 0.15020  0.59630  0.16390  Biso   1.000  H
  H32      1.0000 0.40370  0.55390  0.16390  Biso   1.000  H
  H33      1.0000 0.44610  0.84980  0.16390  Biso   1.000  H
  H34      1.0000 0.81687  0.92963  0.49723  Biso   1.000  H
  H35      1.0000 0.07037  0.88723  0.49723  Biso   1.000  H
  H36      1.0000 0.11277  0.18313  0.49723  Biso   1.000  H
  H37      1.0000 0.48353  0.26297  0.83057  Biso   1.000  H
  H38      1.0000 0.73703  0.22057  0.83057  Biso   1.000  H
  H39      1.0000 0.77943  0.51647  0.83057  Biso   1.000  H
  H40      1.0000 0.84980  0.40370  0.83610  Biso   1.000  H
  H41      1.0000 0.59630  0.44610  0.83610  Biso   1.000  H
  H42      1.0000 0.55390  0.15020  0.83610  Biso   1.000  H
  H43      1.0000 0.51647  0.73703  0.16943  Biso   1.000  H
  H44      1.0000 0.26297  0.77943  0.16943  Biso   1.000  H
  H45      1.0000 0.22057  0.48353  0.16943  Biso   1.000  H
  H46      1.0000 0.18313  0.07037  0.50277  Biso   1.000  H
  H47      1.0000 0.92963  0.11277  0.50277  Biso   1.000  H
  H48      1.0000 0.88723  0.81687  0.50277  Biso   1.000  H
  C49      1.0000 0.04130  0.54700  0.18820  Biso   1.000  C
  C50      1.0000 0.45300  0.49430  0.18820  Biso   1.000  C
  C51      1.0000 0.50570  0.95870  0.18820  Biso   1.000  C
  C52      1.0000 0.70797  0.88033  0.52153  Biso   1.000  C
  C53      1.0000 0.11967  0.82763  0.52153  Biso   1.000  C
  C54      1.0000 0.17237  0.29203  0.52153  Biso   1.000  C
  C55      1.0000 0.37463  0.21367  0.85487  Biso   1.000  C
  C56      1.0000 0.78633  0.16097  0.85487  Biso   1.000  C
  C57      1.0000 0.83903  0.62537  0.85487  Biso   1.000  C
  C58      1.0000 0.95870  0.45300  0.81180  Biso   1.000  C
  C59      1.0000 0.54700  0.50570  0.81180  Biso   1.000  C
  C60      1.0000 0.49430  0.04130  0.81180  Biso   1.000  C
  C61      1.0000 0.62537  0.78633  0.14513  Biso   1.000  C
  C62      1.0000 0.21367  0.83903  0.14513  Biso   1.000  C
  C63      1.0000 0.16097  0.37463  0.14513  Biso   1.000  C
  C64      1.0000 0.29203  0.11967  0.47847  Biso   1.000  C
  C65      1.0000 0.88033  0.17237  0.47847  Biso   1.000  C
  C66      1.0000 0.82763  0.70797  0.47847  Biso   1.000  C
  H49      1.0000 0.06730  0.53880  0.20360  Biso   1.000  H
  H50      1.0000 0.46120  0.52850  0.20360  Biso   1.000  H
  H51      1.0000 0.47150  0.93270  0.20360  Biso   1.000  H
  H52      1.0000 0.73397  0.87213  0.53693  Biso   1.000  H
  H53      1.0000 0.12787  0.86183  0.53693  Biso   1.000  H
  H54      1.0000 0.13817  0.26603  0.53693  Biso   1.000  H
  H55      1.0000 0.40063  0.20547  0.87027  Biso   1.000  H
  H56      1.0000 0.79453  0.19517  0.87027  Biso   1.000  H
  H57      1.0000 0.80483  0.59937  0.87027  Biso   1.000  H
  H58      1.0000 0.93270  0.46120  0.79640  Biso   1.000  H
  H59      1.0000 0.53880  0.47150  0.79640  Biso   1.000  H
  H60      1.0000 0.52850  0.06730  0.79640  Biso   1.000  H
  H61      1.0000 0.59937  0.79453  0.12973  Biso   1.000  H
  H62      1.0000 0.20547  0.80483  0.12973  Biso   1.000  H
  H63      1.0000 0.19517  0.40063  0.12973  Biso   1.000  H
  H64      1.0000 0.26603  0.12787  0.46307  Biso   1.000  H
  H65      1.0000 0.87213  0.13817  0.46307  Biso   1.000  H
  H66      1.0000 0.86183  0.73397  0.46307  Biso   1.000  H
  C67      1.0000 0.14060  0.40170  0.06230  Biso   1.000  C
  C68      1.0000 0.59830  0.73890  0.06230  Biso   1.000  C
  C69      1.0000 0.26110  0.85940  0.06230  Biso   1.000  C
  C70      1.0000 0.80727  0.73503  0.39563  Biso   1.000  C
  C71      1.0000 0.26497  0.07223  0.39563  Biso   1.000  C
  C72      1.0000 0.92777  0.19273  0.39563  Biso   1.000  C
  C73      1.0000 0.47393  0.06837  0.72897  Biso   1.000  C
  C74      1.0000 0.93163  0.40557  0.72897  Biso   1.000  C
  C75      1.0000 0.59443  0.52607  0.72897  Biso   1.000  C
  C76      1.0000 0.85940  0.59830  0.93770  Biso   1.000  C
  C77      1.0000 0.40170  0.26110  0.93770  Biso   1.000  C
  C78      1.0000 0.73890  0.14060  0.93770  Biso   1.000  C
  C79      1.0000 0.52607  0.93163  0.27103  Biso   1.000  C
  C80      1.0000 0.06837  0.59443  0.27103  Biso   1.000  C
  C81      1.0000 0.40557  0.47393  0.27103  Biso   1.000  C
  C82      1.0000 0.19273  0.26497  0.60437  Biso   1.000  C
  C83      1.0000 0.73503  0.92777  0.60437  Biso   1.000  C
  C84      1.0000 0.07223  0.80727  0.60437  Biso   1.000  C
  H67      1.0000 0.17470  0.43780  0.07660  Biso   1.000  H
  H68      1.0000 0.56220  0.73690  0.07660  Biso   1.000  H
  H69      1.0000 0.26310  0.82530  0.07660  Biso   1.000  H
  H70      1.0000 0.84137  0.77113  0.40993  Biso   1.000  H
  H71      1.0000 0.22887  0.07023  0.40993  Biso   1.000  H
  H72      1.0000 0.92977  0.15863  0.40993  Biso   1.000  H
  H73      1.0000 0.50803  0.10447  0.74327  Biso   1.000  H
  H74      1.0000 0.89553  0.40357  0.74327  Biso   1.000  H
  H75      1.0000 0.59643  0.49197  0.74327  Biso   1.000  H
  H76      1.0000 0.82530  0.56220  0.92340  Biso   1.000  H
  H77      1.0000 0.43780  0.26310  0.92340  Biso   1.000  H
  H78      1.0000 0.73690  0.17470  0.92340  Biso   1.000  H
  H79      1.0000 0.49197  0.89553  0.25673  Biso   1.000  H
  H80      1.0000 0.10447  0.59643  0.25673  Biso   1.000  H
  H81      1.0000 0.40357  0.50803  0.25673  Biso   1.000  H
  H82      1.0000 0.15863  0.22887  0.59007  Biso   1.000  H
  H83      1.0000 0.77113  0.92977  0.59007  Biso   1.000  H
  H84      1.0000 0.07023  0.84137  0.59007  Biso   1.000  H
  C85      1.0000 0.08200  0.26350  0.03740  Biso   1.000  C
  C86      1.0000 0.73650  0.81850  0.03740  Biso   1.000  C
  C87      1.0000 0.18150  0.91800  0.03740  Biso   1.000  C
  C88      1.0000 0.74867  0.59683  0.37073  Biso   1.000  C
  C89      1.0000 0.40317  0.15183  0.37073  Biso   1.000  C
  C90      1.0000 0.84817  0.25133  0.37073  Biso   1.000  C
  C91      1.0000 0.41533  0.93017  0.70407  Biso   1.000  C
  C92      1.0000 0.06983  0.48517  0.70407  Biso   1.000  C
  C93      1.0000 0.51483  0.58467  0.70407  Biso   1.000  C
  C94      1.0000 0.91800  0.73650  0.96260  Biso   1.000  C
  C95      1.0000 0.26350  0.18150  0.96260  Biso   1.000  C
  C96      1.0000 0.81850  0.08200  0.96260  Biso   1.000  C
  C97      1.0000 0.58467  0.06983  0.29593  Biso   1.000  C
  C98      1.0000 0.93017  0.51483  0.29593  Biso   1.000  C
  C99      1.0000 0.48517  0.41533  0.29593  Biso   1.000  C
  C100     1.0000 0.25133  0.40317  0.62927  Biso   1.000  C
  C101     1.0000 0.59683  0.84817  0.62927  Biso   1.000  C
  C102     1.0000 0.15183  0.74867  0.62927  Biso   1.000  C
  H85      1.0000 0.07690  0.20810  0.03520  Biso   1.000  H
  H86      1.0000 0.79190  0.86880  0.03520  Biso   1.000  H
  H87      1.0000 0.13120  0.92310  0.03520  Biso   1.000  H
  H88      1.0000 0.74357  0.54143  0.36853  Biso   1.000  H
  H89      1.0000 0.45857  0.20213  0.36853  Biso   1.000  H
  H90      1.0000 0.79787  0.25643  0.36853  Biso   1.000  H
  H91      1.0000 0.41023  0.87477  0.70187  Biso   1.000  H
  H92      1.0000 0.12523  0.53547  0.70187  Biso   1.000  H
  H93      1.0000 0.46453  0.58977  0.70187  Biso   1.000  H
  H94      1.0000 0.92310  0.79190  0.96480  Biso   1.000  H
  H95      1.0000 0.20810  0.13120  0.96480  Biso   1.000  H
  H96      1.0000 0.86880  0.07690  0.96480  Biso   1.000  H
  H97      1.0000 0.58977  0.12523  0.29813  Biso   1.000  H
  H98      1.0000 0.87477  0.46453  0.29813  Biso   1.000  H
  H99      1.0000 0.53547  0.41023  0.29813  Biso   1.000  H
  H100     1.0000 0.25643  0.45857  0.63147  Biso   1.000  H
  H101     1.0000 0.54143  0.79787  0.63147  Biso   1.000  H
  H102     1.0000 0.20213  0.74357  0.63147  Biso   1.000  H
  C103     1.0000 0.13330  0.31920  0.05770  Biso   1.000  C
  C104     1.0000 0.68080  0.81410  0.05770  Biso   1.000  C
  C105     1.0000 0.18590  0.86670  0.05770  Biso   1.000  C
  C106     1.0000 0.79997  0.65253  0.39103  Biso   1.000  C
  C107     1.0000 0.34747  0.14743  0.39103  Biso   1.000  C
  C108     1.0000 0.85257  0.20003  0.39103  Biso   1.000  C
  C109     1.0000 0.46663  0.98587  0.72437  Biso   1.000  C
  C110     1.0000 0.01413  0.48077  0.72437  Biso   1.000  C
  C111     1.0000 0.51923  0.53337  0.72437  Biso   1.000  C
  C112     1.0000 0.86670  0.68080  0.94230  Biso   1.000  C
  C113     1.0000 0.31920  0.18590  0.94230  Biso   1.000  C
  C114     1.0000 0.81410  0.13330  0.94230  Biso   1.000  C
  C115     1.0000 0.53337  0.01413  0.27563  Biso   1.000  C
  C116     1.0000 0.98587  0.51923  0.27563  Biso   1.000  C
  C117     1.0000 0.48077  0.46663  0.27563  Biso   1.000  C
  C118     1.0000 0.20003  0.34747  0.60897  Biso   1.000  C
  C119     1.0000 0.65253  0.85257  0.60897  Biso   1.000  C
  C120     1.0000 0.14743  0.79997  0.60897  Biso   1.000  C
  H103     1.0000 0.16470  0.30150  0.06890  Biso   1.000  H
  H104     1.0000 0.69850  0.86320  0.06890  Biso   1.000  H
  H105     1.0000 0.13680  0.83530  0.06890  Biso   1.000  H
  H106     1.0000 0.83137  0.63483  0.40223  Biso   1.000  H
  H107     1.0000 0.36517  0.19653  0.40223  Biso   1.000  H
  H108     1.0000 0.80347  0.16863  0.40223  Biso   1.000  H
  H109     1.0000 0.49803  0.96817  0.73557  Biso   1.000  H
  H110     1.0000 0.03183  0.52987  0.73557  Biso   1.000  H
  H111     1.0000 0.47013  0.50197  0.73557  Biso   1.000  H
  H112     1.0000 0.83530  0.69850  0.93110  Biso   1.000  H
  H113     1.0000 0.30150  0.13680  0.93110  Biso   1.000  H
  H114     1.0000 0.86320  0.16470  0.93110  Biso   1.000  H
  H115     1.0000 0.50197  0.03183  0.26443  Biso   1.000  H
  H116     1.0000 0.96817  0.47013  0.26443  Biso   1.000  H
  H117     1.0000 0.52987  0.49803  0.26443  Biso   1.000  H
  H118     1.0000 0.16863  0.36517  0.59777  Biso   1.000  H
  H119     1.0000 0.63483  0.80347  0.59777  Biso   1.000  H
  H120     1.0000 0.19653  0.83137  0.59777  Biso   1.000  H
  C121     1.0000 0.05560  0.59750  0.14180  Biso   1.000  C
  C122     1.0000 0.40250  0.45810  0.14180  Biso   1.000  C
  C123     1.0000 0.54190  0.94440  0.14180  Biso   1.000  C
  C124     1.0000 0.72227  0.93083  0.47513  Biso   1.000  C
  C125     1.0000 0.06917  0.79143  0.47513  Biso   1.000  C
  C126     1.0000 0.20857  0.27773  0.47513  Biso   1.000  C
  C127     1.0000 0.38893  0.26417  0.80847  Biso   1.000  C
  C128     1.0000 0.73583  0.12477  0.80847  Biso   1.000  C
  C129     1.0000 0.87523  0.61107  0.80847  Biso   1.000  C
  C130     1.0000 0.94440  0.40250  0.85820  Biso   1.000  C
  C131     1.0000 0.59750  0.54190  0.85820  Biso   1.000  C
  C132     1.0000 0.45810  0.05560  0.85820  Biso   1.000  C
  C133     1.0000 0.61107  0.73583  0.19153  Biso   1.000  C
  C134     1.0000 0.26417  0.87523  0.19153  Biso   1.000  C
  C135     1.0000 0.12477  0.38893  0.19153  Biso   1.000  C
  C136     1.0000 0.27773  0.06917  0.52487  Biso   1.000  C
  C137     1.0000 0.93083  0.20857  0.52487  Biso   1.000  C
  C138     1.0000 0.79143  0.72227  0.52487  Biso   1.000  C
  H121     1.0000 0.09080  0.62190  0.12640  Biso   1.000  H
  H122     1.0000 0.37810  0.46890  0.12640  Biso   1.000  H
  H123     1.0000 0.53110  0.90920  0.12640  Biso   1.000  H
  H124     1.0000 0.75747  0.95523  0.45973  Biso   1.000  H
  H125     1.0000 0.04477  0.80223  0.45973  Biso   1.000  H
  H126     1.0000 0.19777  0.24253  0.45973  Biso   1.000  H
  H127     1.0000 0.42413  0.28857  0.79307  Biso   1.000  H
  H128     1.0000 0.71143  0.13557  0.79307  Biso   1.000  H
  H129     1.0000 0.86443  0.57587  0.79307  Biso   1.000  H
  H130     1.0000 0.90920  0.37810  0.87360  Biso   1.000  H
  H131     1.0000 0.62190  0.53110  0.87360  Biso   1.000  H
  H132     1.0000 0.46890  0.09080  0.87360  Biso   1.000  H
  H133     1.0000 0.57587  0.71143  0.20693  Biso   1.000  H
  H134     1.0000 0.28857  0.86443  0.20693  Biso   1.000  H
  H135     1.0000 0.13557  0.42413  0.20693  Biso   1.000  H
  H136     1.0000 0.24253  0.04477  0.54027  Biso   1.000  H
  H137     1.0000 0.95523  0.19777  0.54027  Biso   1.000  H
  H138     1.0000 0.80223  0.75747  0.54027  Biso   1.000  H
  C139     1.0000 0.96670  0.57700  0.14120  Biso   1.000  C
  C140     1.0000 0.42300  0.38970  0.14120  Biso   1.000  C
  C141     1.0000 0.61030  0.03330  0.14120  Biso   1.000  C
  C142     1.0000 0.63337  0.91033  0.47453  Biso   1.000  C
  C143     1.0000 0.08967  0.72303  0.47453  Biso   1.000  C
  C144     1.0000 0.27697  0.36663  0.47453  Biso   1.000  C
  C145     1.0000 0.30003  0.24367  0.80787  Biso   1.000  C
  C146     1.0000 0.75633  0.05637  0.80787  Biso   1.000  C
  C147     1.0000 0.94363  0.69997  0.80787  Biso   1.000  C
  C148     1.0000 0.03330  0.42300  0.85880  Biso   1.000  C
  C149     1.0000 0.57700  0.61030  0.85880  Biso   1.000  C
  C150     1.0000 0.38970  0.96670  0.85880  Biso   1.000  C
  C151     1.0000 0.69997  0.75633  0.19213  Biso   1.000  C
  C152     1.0000 0.24367  0.94363  0.19213  Biso   1.000  C
  C153     1.0000 0.05637  0.30003  0.19213  Biso   1.000  C
  C154     1.0000 0.36663  0.08967  0.52547  Biso   1.000  C
  C155     1.0000 0.91033  0.27697  0.52547  Biso   1.000  C
  C156     1.0000 0.72303  0.63337  0.52547  Biso   1.000  C
  C157     1.0000 0.91480  0.53950  0.16500  Biso   1.000  C
  C158     1.0000 0.46050  0.37530  0.16500  Biso   1.000  C
  C159     1.0000 0.62470  0.08520  0.16500  Biso   1.000  C
  C160     1.0000 0.58147  0.87283  0.49833  Biso   1.000  C
  C161     1.0000 0.12717  0.70863  0.49833  Biso   1.000  C
  C162     1.0000 0.29137  0.41853  0.49833  Biso   1.000  C
  C163     1.0000 0.24813  0.20617  0.83167  Biso   1.000  C
  C164     1.0000 0.79383  0.04197  0.83167  Biso   1.000  C
  C165     1.0000 0.95803  0.75187  0.83167  Biso   1.000  C
  C166     1.0000 0.08520  0.46050  0.83500  Biso   1.000  C
  C167     1.0000 0.53950  0.62470  0.83500  Biso   1.000  C
  C168     1.0000 0.37530  0.91480  0.83500  Biso   1.000  C
  C169     1.0000 0.75187  0.79383  0.16833  Biso   1.000  C
  C170     1.0000 0.20617  0.95803  0.16833  Biso   1.000  C
  C171     1.0000 0.04197  0.24813  0.16833  Biso   1.000  C
  C172     1.0000 0.41853  0.12717  0.50167  Biso   1.000  C
  C173     1.0000 0.87283  0.29137  0.50167  Biso   1.000  C
  C174     1.0000 0.70863  0.58147  0.50167  Biso   1.000  C
  C175     1.0000 0.82380  0.51780  0.16680  Biso   1.000  C
  C176     1.0000 0.48220  0.30600  0.16680  Biso   1.000  C
  C177     1.0000 0.69400  0.17620  0.16680  Biso   1.000  C
  C178     1.0000 0.49047  0.85113  0.50013  Biso   1.000  C
  C179     1.0000 0.14887  0.63933  0.50013  Biso   1.000  C
  C180     1.0000 0.36067  0.50953  0.50013  Biso   1.000  C
  C181     1.0000 0.15713  0.18447  0.83347  Biso   1.000  C
  C182     1.0000 0.81553  0.97267  0.83347  Biso   1.000  C
  C183     1.0000 0.02733  0.84287  0.83347  Biso   1.000  C
  C184     1.0000 0.17620  0.48220  0.83320  Biso   1.000  C
  C185     1.0000 0.51780  0.69400  0.83320  Biso   1.000  C
  C186     1.0000 0.30600  0.82380  0.83320  Biso   1.000  C
  C187     1.0000 0.84287  0.81553  0.16653  Biso   1.000  C
  C188     1.0000 0.18447  0.02733  0.16653  Biso   1.000  C
  C189     1.0000 0.97267  0.15713  0.16653  Biso   1.000  C
  C190     1.0000 0.50953  0.14887  0.49987  Biso   1.000  C
  C191     1.0000 0.85113  0.36067  0.49987  Biso   1.000  C
  C192     1.0000 0.63933  0.49047  0.49987  Biso   1.000  C
  H139     1.0000 0.79470  0.49220  0.18310  Biso   1.000  H
  H140     1.0000 0.50780  0.30250  0.18310  Biso   1.000  H
  H141     1.0000 0.69750  0.20530  0.18310  Biso   1.000  H
  H142     1.0000 0.46137  0.82553  0.51643  Biso   1.000  H
  H143     1.0000 0.17447  0.63583  0.51643  Biso   1.000  H
  H144     1.0000 0.36417  0.53863  0.51643  Biso   1.000  H
  H145     1.0000 0.12803  0.15887  0.84977  Biso   1.000  H
  H146     1.0000 0.84113  0.96917  0.84977  Biso   1.000  H
  H147     1.0000 0.03083  0.87197  0.84977  Biso   1.000  H
  H148     1.0000 0.20530  0.50780  0.81690  Biso   1.000  H
  H149     1.0000 0.49220  0.69750  0.81690  Biso   1.000  H
  H150     1.0000 0.30250  0.79470  0.81690  Biso   1.000  H
  H151     1.0000 0.87197  0.84113  0.15023  Biso   1.000  H
  H152     1.0000 0.15887  0.03083  0.15023  Biso   1.000  H
  H153     1.0000 0.96917  0.12803  0.15023  Biso   1.000  H
  H154     1.0000 0.53863  0.17447  0.48357  Biso   1.000  H
  H155     1.0000 0.82553  0.36417  0.48357  Biso   1.000  H
  H156     1.0000 0.63583  0.46137  0.48357  Biso   1.000  H
  C193     1.0000 0.68580  0.50150  0.15570  Biso   1.000  C
  C194     1.0000 0.49850  0.18430  0.15570  Biso   1.000  C
  C195     1.0000 0.81570  0.31420  0.15570  Biso   1.000  C
  C196     1.0000 0.35247  0.83483  0.48903  Biso   1.000  C
  C197     1.0000 0.16517  0.51763  0.48903  Biso   1.000  C
  C198     1.0000 0.48237  0.64753  0.48903  Biso   1.000  C
  C199     1.0000 0.01913  0.16817  0.82237  Biso   1.000  C
  C200     1.0000 0.83183  0.85097  0.82237  Biso   1.000  C
  C201     1.0000 0.14903  0.98087  0.82237  Biso   1.000  C
  C202     1.0000 0.31420  0.49850  0.84430  Biso   1.000  C
  C203     1.0000 0.50150  0.81570  0.84430  Biso   1.000  C
  C204     1.0000 0.18430  0.68580  0.84430  Biso   1.000  C
  C205     1.0000 0.98087  0.83183  0.17763  Biso   1.000  C
  C206     1.0000 0.16817  0.14903  0.17763  Biso   1.000  C
  C207     1.0000 0.85097  0.01913  0.17763  Biso   1.000  C
  C208     1.0000 0.64753  0.16517  0.51097  Biso   1.000  C
  C209     1.0000 0.83483  0.48237  0.51097  Biso   1.000  C
  C210     1.0000 0.51763  0.35247  0.51097  Biso   1.000  C
  H157     1.0000 0.67910  0.49530  0.17540  Biso   1.000  H
  H158     1.0000 0.50470  0.18380  0.17540  Biso   1.000  H
  H159     1.0000 0.81620  0.32090  0.17540  Biso   1.000  H
  H160     1.0000 0.34577  0.82863  0.50873  Biso   1.000  H
  H161     1.0000 0.17137  0.51713  0.50873  Biso   1.000  H
  H162     1.0000 0.48287  0.65423  0.50873  Biso   1.000  H
  H163     1.0000 0.01243  0.16197  0.84207  Biso   1.000  H
  H164     1.0000 0.83803  0.85047  0.84207  Biso   1.000  H
  H165     1.0000 0.14953  0.98757  0.84207  Biso   1.000  H
  H166     1.0000 0.32090  0.50470  0.82460  Biso   1.000  H
  H167     1.0000 0.49530  0.81620  0.82460  Biso   1.000  H
  H168     1.0000 0.18380  0.67910  0.82460  Biso   1.000  H
  H169     1.0000 0.98757  0.83803  0.15793  Biso   1.000  H
  H170     1.0000 0.16197  0.14953  0.15793  Biso   1.000  H
  H171     1.0000 0.85047  0.01243  0.15793  Biso   1.000  H
  H172     1.0000 0.65423  0.17137  0.49127  Biso   1.000  H
  H173     1.0000 0.82863  0.48287  0.49127  Biso   1.000  H
  H174     1.0000 0.51713  0.34577  0.49127  Biso   1.000  H
  H175     1.0000 0.64690  0.44390  0.14770  Biso   1.000  H
  H176     1.0000 0.55610  0.20300  0.14770  Biso   1.000  H
  H177     1.0000 0.79700  0.35310  0.14770  Biso   1.000  H
  H178     1.0000 0.31357  0.77723  0.48103  Biso   1.000  H
  H179     1.0000 0.22277  0.53633  0.48103  Biso   1.000  H
  H180     1.0000 0.46367  0.68643  0.48103  Biso   1.000  H
  H181     1.0000 0.98023  0.11057  0.81437  Biso   1.000  H
  H182     1.0000 0.88943  0.86967  0.81437  Biso   1.000  H
  H183     1.0000 0.13033  0.01977  0.81437  Biso   1.000  H
  H184     1.0000 0.35310  0.55610  0.85230  Biso   1.000  H
  H185     1.0000 0.44390  0.79700  0.85230  Biso   1.000  H
  H186     1.0000 0.20300  0.64690  0.85230  Biso   1.000  H
  H187     1.0000 0.01977  0.88943  0.18563  Biso   1.000  H
  H188     1.0000 0.11057  0.13033  0.18563  Biso   1.000  H
  H189     1.0000 0.86967  0.98023  0.18563  Biso   1.000  H
  H190     1.0000 0.68643  0.22277  0.51897  Biso   1.000  H
  H191     1.0000 0.77723  0.46367  0.51897  Biso   1.000  H
  H192     1.0000 0.53633  0.31357  0.51897  Biso   1.000  H
  C211     1.0000 0.65870  0.56580  0.14620  Biso   1.000  C
  C212     1.0000 0.43420  0.09290  0.14620  Biso   1.000  C
  C213     1.0000 0.90710  0.34130  0.14620  Biso   1.000  C
  C214     1.0000 0.32537  0.89913  0.47953  Biso   1.000  C
  C215     1.0000 0.10087  0.42623  0.47953  Biso   1.000  C
  C216     1.0000 0.57377  0.67463  0.47953  Biso   1.000  C
  C217     1.0000 0.99203  0.23247  0.81287  Biso   1.000  C
  C218     1.0000 0.76753  0.75957  0.81287  Biso   1.000  C
  C219     1.0000 0.24043  0.00797  0.81287  Biso   1.000  C
  C220     1.0000 0.34130  0.43420  0.85380  Biso   1.000  C
  C221     1.0000 0.56580  0.90710  0.85380  Biso   1.000  C
  C222     1.0000 0.09290  0.65870  0.85380  Biso   1.000  C
  C223     1.0000 0.00797  0.76753  0.18713  Biso   1.000  C
  C224     1.0000 0.23247  0.24043  0.18713  Biso   1.000  C
  C225     1.0000 0.75957  0.99203  0.18713  Biso   1.000  C
  C226     1.0000 0.67463  0.10087  0.52047  Biso   1.000  C
  C227     1.0000 0.89913  0.57377  0.52047  Biso   1.000  C
  C228     1.0000 0.42623  0.32537  0.52047  Biso   1.000  C
  H193     1.0000 0.70510  0.62520  0.15100  Biso   1.000  H
  H194     1.0000 0.37480  0.07990  0.15100  Biso   1.000  H
  H195     1.0000 0.92010  0.29490  0.15100  Biso   1.000  H
  H196     1.0000 0.37177  0.95853  0.48433  Biso   1.000  H
  H197     1.0000 0.04147  0.41323  0.48433  Biso   1.000  H
  H198     1.0000 0.58677  0.62823  0.48433  Biso   1.000  H
  H199     1.0000 0.03843  0.29187  0.81767  Biso   1.000  H
  H200     1.0000 0.70813  0.74657  0.81767  Biso   1.000  H
  H201     1.0000 0.25343  0.96157  0.81767  Biso   1.000  H
  H202     1.0000 0.29490  0.37480  0.84900  Biso   1.000  H
  H203     1.0000 0.62520  0.92010  0.84900  Biso   1.000  H
  H204     1.0000 0.07990  0.70510  0.84900  Biso   1.000  H
  H205     1.0000 0.96157  0.70813  0.18233  Biso   1.000  H
  H206     1.0000 0.29187  0.25343  0.18233  Biso   1.000  H
  H207     1.0000 0.74657  0.03843  0.18233  Biso   1.000  H
  H208     1.0000 0.62823  0.04147  0.51567  Biso   1.000  H
  H209     1.0000 0.95853  0.58677  0.51567  Biso   1.000  H
  H210     1.0000 0.41323  0.37177  0.51567  Biso   1.000  H
  H211     1.0000 0.60550  0.55420  0.15590  Biso   1.000  H
  H212     1.0000 0.44580  0.05130  0.15590  Biso   1.000  H
  H213     1.0000 0.94870  0.39450  0.15590  Biso   1.000  H
  H214     1.0000 0.27217  0.88753  0.48923  Biso   1.000  H
  H215     1.0000 0.11247  0.38463  0.48923  Biso   1.000  H
  H216     1.0000 0.61537  0.72783  0.48923  Biso   1.000  H
  H217     1.0000 0.93883  0.22087  0.82257  Biso   1.000  H
  H218     1.0000 0.77913  0.71797  0.82257  Biso   1.000  H
  H219     1.0000 0.28203  0.06117  0.82257  Biso   1.000  H
  H220     1.0000 0.39450  0.44580  0.84410  Biso   1.000  H
  H221     1.0000 0.55420  0.94870  0.84410  Biso   1.000  H
  H222     1.0000 0.05130  0.60550  0.84410  Biso   1.000  H
  H223     1.0000 0.06117  0.77913  0.17743  Biso   1.000  H
  H224     1.0000 0.22087  0.28203  0.17743  Biso   1.000  H
  H225     1.0000 0.71797  0.93883  0.17743  Biso   1.000  H
  H226     1.0000 0.72783  0.11247  0.51077  Biso   1.000  H
  H227     1.0000 0.88753  0.61537  0.51077  Biso   1.000  H
  H228     1.0000 0.38463  0.27217  0.51077  Biso   1.000  H
  C229     1.0000 0.64090  0.56320  0.11550  Biso   1.000  C
  C230     1.0000 0.43680  0.07770  0.11550  Biso   1.000  C
  C231     1.0000 0.92230  0.35910  0.11550  Biso   1.000  C
  C232     1.0000 0.30757  0.89653  0.44883  Biso   1.000  C
  C233     1.0000 0.10347  0.41103  0.44883  Biso   1.000  C
  C234     1.0000 0.58897  0.69243  0.44883  Biso   1.000  C
  C235     1.0000 0.97423  0.22987  0.78217  Biso   1.000  C
  C236     1.0000 0.77013  0.74437  0.78217  Biso   1.000  C
  C237     1.0000 0.25563  0.02577  0.78217  Biso   1.000  C
  C238     1.0000 0.35910  0.43680  0.88450  Biso   1.000  C
  C239     1.0000 0.56320  0.92230  0.88450  Biso   1.000  C
  C240     1.0000 0.07770  0.64090  0.88450  Biso   1.000  C
  C241     1.0000 0.02577  0.77013  0.21783  Biso   1.000  C
  C242     1.0000 0.22987  0.25563  0.21783  Biso   1.000  C
  C243     1.0000 0.74437  0.97423  0.21783  Biso   1.000  C
  C244     1.0000 0.69243  0.10347  0.55117  Biso   1.000  C
  C245     1.0000 0.89653  0.58897  0.55117  Biso   1.000  C
  C246     1.0000 0.41103  0.30757  0.55117  Biso   1.000  C
  H229     1.0000 0.59830  0.50280  0.11030  Biso   1.000  H
  H230     1.0000 0.49720  0.09550  0.11030  Biso   1.000  H
  H231     1.0000 0.90450  0.40170  0.11030  Biso   1.000  H
  H232     1.0000 0.26497  0.83613  0.44363  Biso   1.000  H
  H233     1.0000 0.16387  0.42883  0.44363  Biso   1.000  H
  H234     1.0000 0.57117  0.73503  0.44363  Biso   1.000  H
  H235     1.0000 0.93163  0.16947  0.77697  Biso   1.000  H
  H236     1.0000 0.83053  0.76217  0.77697  Biso   1.000  H
  H237     1.0000 0.23783  0.06837  0.77697  Biso   1.000  H
  H238     1.0000 0.40170  0.49720  0.88970  Biso   1.000  H
  H239     1.0000 0.50280  0.90450  0.88970  Biso   1.000  H
  H240     1.0000 0.09550  0.59830  0.88970  Biso   1.000  H
  H241     1.0000 0.06837  0.83053  0.22303  Biso   1.000  H
  H242     1.0000 0.16947  0.23783  0.22303  Biso   1.000  H
  H243     1.0000 0.76217  0.93163  0.22303  Biso   1.000  H
  H244     1.0000 0.73503  0.16387  0.55637  Biso   1.000  H
  H245     1.0000 0.83613  0.57117  0.55637  Biso   1.000  H
  H246     1.0000 0.42883  0.26497  0.55637  Biso   1.000  H
  H247     1.0000 0.61480  0.59980  0.11170  Biso   1.000  H
  H248     1.0000 0.40020  0.01500  0.11170  Biso   1.000  H
  H249     1.0000 0.98500  0.38520  0.11170  Biso   1.000  H
  H250     1.0000 0.28147  0.93313  0.44503  Biso   1.000  H
  H251     1.0000 0.06687  0.34833  0.44503  Biso   1.000  H
  H252     1.0000 0.65167  0.71853  0.44503  Biso   1.000  H
  H253     1.0000 0.94813  0.26647  0.77837  Biso   1.000  H
  H254     1.0000 0.73353  0.68167  0.77837  Biso   1.000  H
  H255     1.0000 0.31833  0.05187  0.77837  Biso   1.000  H
  H256     1.0000 0.38520  0.40020  0.88830  Biso   1.000  H
  H257     1.0000 0.59980  0.98500  0.88830  Biso   1.000  H
  H258     1.0000 0.01500  0.61480  0.88830  Biso   1.000  H
  H259     1.0000 0.05187  0.73353  0.22163  Biso   1.000  H
  H260     1.0000 0.26647  0.31833  0.22163  Biso   1.000  H
  H261     1.0000 0.68167  0.94813  0.22163  Biso   1.000  H
  H262     1.0000 0.71853  0.06687  0.55497  Biso   1.000  H
  H263     1.0000 0.93313  0.65167  0.55497  Biso   1.000  H
  H264     1.0000 0.34833  0.28147  0.55497  Biso   1.000  H
  C247     1.0000 0.77060  0.69260  0.09700  Biso   1.000  C
  C248     1.0000 0.30740  0.07800  0.09700  Biso   1.000  C
  C249     1.0000 0.92200  0.22940  0.09700  Biso   1.000  C
  C250     1.0000 0.43727  0.02593  0.43033  Biso   1.000  C
  C251     1.0000 0.97407  0.41133  0.43033  Biso   1.000  C
  C252     1.0000 0.58867  0.56273  0.43033  Biso   1.000  C
  C253     1.0000 0.10393  0.35927  0.76367  Biso   1.000  C
  C254     1.0000 0.64073  0.74467  0.76367  Biso   1.000  C
  C255     1.0000 0.25533  0.89607  0.76367  Biso   1.000  C
  C256     1.0000 0.22940  0.30740  0.90300  Biso   1.000  C
  C257     1.0000 0.69260  0.92200  0.90300  Biso   1.000  C
  C258     1.0000 0.07800  0.77060  0.90300  Biso   1.000  C
  C259     1.0000 0.89607  0.64073  0.23633  Biso   1.000  C
  C260     1.0000 0.35927  0.25533  0.23633  Biso   1.000  C
  C261     1.0000 0.74467  0.10393  0.23633  Biso   1.000  C
  C262     1.0000 0.56273  0.97407  0.56967  Biso   1.000  C
  C263     1.0000 0.02593  0.58867  0.56967  Biso   1.000  C
  C264     1.0000 0.41133  0.43727  0.56967  Biso   1.000  C
  H265     1.0000 0.78220  0.71860  0.11510  Biso   1.000  H
  H266     1.0000 0.28140  0.06360  0.11510  Biso   1.000  H
  H267     1.0000 0.93640  0.21780  0.11510  Biso   1.000  H
  H268     1.0000 0.44887  0.05193  0.44843  Biso   1.000  H
  H269     1.0000 0.94807  0.39693  0.44843  Biso   1.000  H
  H270     1.0000 0.60307  0.55113  0.44843  Biso   1.000  H
  H271     1.0000 0.11553  0.38527  0.78177  Biso   1.000  H
  H272     1.0000 0.61473  0.73027  0.78177  Biso   1.000  H
  H273     1.0000 0.26973  0.88447  0.78177  Biso   1.000  H
  H274     1.0000 0.21780  0.28140  0.88490  Biso   1.000  H
  H275     1.0000 0.71860  0.93640  0.88490  Biso   1.000  H
  H276     1.0000 0.06360  0.78220  0.88490  Biso   1.000  H
  H277     1.0000 0.88447  0.61473  0.21823  Biso   1.000  H
  H278     1.0000 0.38527  0.26973  0.21823  Biso   1.000  H
  H279     1.0000 0.73027  0.11553  0.21823  Biso   1.000  H
  H280     1.0000 0.55113  0.94807  0.55157  Biso   1.000  H
  H281     1.0000 0.05193  0.60307  0.55157  Biso   1.000  H
  H282     1.0000 0.39693  0.44887  0.55157  Biso   1.000  H
  H283     1.0000 0.73530  0.71230  0.08700  Biso   1.000  H
  H284     1.0000 0.28770  0.02300  0.08700  Biso   1.000  H
  H285     1.0000 0.97700  0.26470  0.08700  Biso   1.000  H
  H286     1.0000 0.40197  0.04563  0.42033  Biso   1.000  H
  H287     1.0000 0.95437  0.35633  0.42033  Biso   1.000  H
  H288     1.0000 0.64367  0.59803  0.42033  Biso   1.000  H
  H289     1.0000 0.06863  0.37897  0.75367  Biso   1.000  H
  H290     1.0000 0.62103  0.68967  0.75367  Biso   1.000  H
  H291     1.0000 0.31033  0.93137  0.75367  Biso   1.000  H
  H292     1.0000 0.26470  0.28770  0.91300  Biso   1.000  H
  H293     1.0000 0.71230  0.97700  0.91300  Biso   1.000  H
  H294     1.0000 0.02300  0.73530  0.91300  Biso   1.000  H
  H295     1.0000 0.93137  0.62103  0.24633  Biso   1.000  H
  H296     1.0000 0.37897  0.31033  0.24633  Biso   1.000  H
  H297     1.0000 0.68967  0.06863  0.24633  Biso   1.000  H
  H298     1.0000 0.59803  0.95437  0.57967  Biso   1.000  H
  H299     1.0000 0.04563  0.64367  0.57967  Biso   1.000  H
  H300     1.0000 0.35633  0.40197  0.57967  Biso   1.000  H
  C265     1.0000 0.70040  0.55870  0.07060  Biso   1.000  C
  C266     1.0000 0.44130  0.14170  0.07060  Biso   1.000  C
  C267     1.0000 0.85830  0.29960  0.07060  Biso   1.000  C
  C268     1.0000 0.36707  0.89203  0.40393  Biso   1.000  C
  C269     1.0000 0.10797  0.47503  0.40393  Biso   1.000  C
  C270     1.0000 0.52497  0.63293  0.40393  Biso   1.000  C
  C271     1.0000 0.03373  0.22537  0.73727  Biso   1.000  C
  C272     1.0000 0.77463  0.80837  0.73727  Biso   1.000  C
  C273     1.0000 0.19163  0.96627  0.73727  Biso   1.000  C
  C274     1.0000 0.29960  0.44130  0.92940  Biso   1.000  C
  C275     1.0000 0.55870  0.85830  0.92940  Biso   1.000  C
  C276     1.0000 0.14170  0.70040  0.92940  Biso   1.000  C
  C277     1.0000 0.96627  0.77463  0.26273  Biso   1.000  C
  C278     1.0000 0.22537  0.19163  0.26273  Biso   1.000  C
  C279     1.0000 0.80837  0.03373  0.26273  Biso   1.000  C
  C280     1.0000 0.63293  0.10797  0.59607  Biso   1.000  C
  C281     1.0000 0.89203  0.52497  0.59607  Biso   1.000  C
  C282     1.0000 0.47503  0.36707  0.59607  Biso   1.000  C
  H301     1.0000 0.66840  0.58290  0.06100  Biso   1.000  H
  H302     1.0000 0.41710  0.08550  0.06100  Biso   1.000  H
  H303     1.0000 0.91450  0.33160  0.06100  Biso   1.000  H
  H304     1.0000 0.33507  0.91623  0.39433  Biso   1.000  H
  H305     1.0000 0.08377  0.41883  0.39433  Biso   1.000  H
  H306     1.0000 0.58117  0.66493  0.39433  Biso   1.000  H
  H307     1.0000 0.00173  0.24957  0.72767  Biso   1.000  H
  H308     1.0000 0.75043  0.75217  0.72767  Biso   1.000  H
  H309     1.0000 0.24783  0.99827  0.72767  Biso   1.000  H
  H310     1.0000 0.33160  0.41710  0.93900  Biso   1.000  H
  H311     1.0000 0.58290  0.91450  0.93900  Biso   1.000  H
  H312     1.0000 0.08550  0.66840  0.93900  Biso   1.000  H
  H313     1.0000 0.99827  0.75043  0.27233  Biso   1.000  H
  H314     1.0000 0.24957  0.24783  0.27233  Biso   1.000  H
  H315     1.0000 0.75217  0.00173  0.27233  Biso   1.000  H
  H316     1.0000 0.66493  0.08377  0.60567  Biso   1.000  H
  H317     1.0000 0.91623  0.58117  0.60567  Biso   1.000  H
  H318     1.0000 0.41883  0.33507  0.60567  Biso   1.000  H
  H319     1.0000 0.66390  0.49460  0.07090  Biso   1.000  H
  H320     1.0000 0.50540  0.16930  0.07090  Biso   1.000  H
  H321     1.0000 0.83070  0.33610  0.07090  Biso   1.000  H
  H322     1.0000 0.33057  0.82793  0.40423  Biso   1.000  H
  H323     1.0000 0.17207  0.50263  0.40423  Biso   1.000  H
  H324     1.0000 0.49737  0.66943  0.40423  Biso   1.000  H
  H325     1.0000 0.99723  0.16127  0.73757  Biso   1.000  H
  H326     1.0000 0.83873  0.83597  0.73757  Biso   1.000  H
  H327     1.0000 0.16403  0.00277  0.73757  Biso   1.000  H
  H328     1.0000 0.33610  0.50540  0.92910  Biso   1.000  H
  H329     1.0000 0.49460  0.83070  0.92910  Biso   1.000  H
  H330     1.0000 0.16930  0.66390  0.92910  Biso   1.000  H
  H331     1.0000 0.00277  0.83873  0.26243  Biso   1.000  H
  H332     1.0000 0.16127  0.16403  0.26243  Biso   1.000  H
  H333     1.0000 0.83597  0.99723  0.26243  Biso   1.000  H
  H334     1.0000 0.66943  0.17207  0.59577  Biso   1.000  H
  H335     1.0000 0.82793  0.49737  0.59577  Biso   1.000  H
  H336     1.0000 0.50263  0.33057  0.59577  Biso   1.000  H
  C283     1.0000 0.78830  0.58620  0.05640  Biso   1.000  C
  C284     1.0000 0.41380  0.20210  0.05640  Biso   1.000  C
  C285     1.0000 0.79790  0.21170  0.05640  Biso   1.000  C
  C286     1.0000 0.45497  0.91953  0.38973  Biso   1.000  C
  C287     1.0000 0.08047  0.53543  0.38973  Biso   1.000  C
  C288     1.0000 0.46457  0.54503  0.38973  Biso   1.000  C
  C289     1.0000 0.12163  0.25287  0.72307  Biso   1.000  C
  C290     1.0000 0.74713  0.86877  0.72307  Biso   1.000  C
  C291     1.0000 0.13123  0.87837  0.72307  Biso   1.000  C
  C292     1.0000 0.21170  0.41380  0.94360  Biso   1.000  C
  C293     1.0000 0.58620  0.79790  0.94360  Biso   1.000  C
  C294     1.0000 0.20210  0.78830  0.94360  Biso   1.000  C
  C295     1.0000 0.87837  0.74713  0.27693  Biso   1.000  C
  C296     1.0000 0.25287  0.13123  0.27693  Biso   1.000  C
  C297     1.0000 0.86877  0.12163  0.27693  Biso   1.000  C
  C298     1.0000 0.54503  0.08047  0.61027  Biso   1.000  C
  C299     1.0000 0.91953  0.46457  0.61027  Biso   1.000  C
  C300     1.0000 0.53543  0.45497  0.61027  Biso   1.000  C
  H337     1.0000 0.79120  0.53400  0.05110  Biso   1.000  H
  H338     1.0000 0.46600  0.25720  0.05110  Biso   1.000  H
  H339     1.0000 0.74280  0.20880  0.05110  Biso   1.000  H
  H340     1.0000 0.45787  0.86733  0.38443  Biso   1.000  H
  H341     1.0000 0.13267  0.59053  0.38443  Biso   1.000  H
  H342     1.0000 0.40947  0.54213  0.38443  Biso   1.000  H
  H343     1.0000 0.12453  0.20067  0.71777  Biso   1.000  H
  H344     1.0000 0.79933  0.92387  0.71777  Biso   1.000  H
  H345     1.0000 0.07613  0.87547  0.71777  Biso   1.000  H
  H346     1.0000 0.20880  0.46600  0.94890  Biso   1.000  H
  H347     1.0000 0.53400  0.74280  0.94890  Biso   1.000  H
  H348     1.0000 0.25720  0.79120  0.94890  Biso   1.000  H
  H349     1.0000 0.87547  0.79933  0.28223  Biso   1.000  H
  H350     1.0000 0.20067  0.07613  0.28223  Biso   1.000  H
  H351     1.0000 0.92387  0.12453  0.28223  Biso   1.000  H
  H352     1.0000 0.54213  0.13267  0.61557  Biso   1.000  H
  H353     1.0000 0.86733  0.40947  0.61557  Biso   1.000  H
  H354     1.0000 0.59053  0.45787  0.61557  Biso   1.000  H
  H355     1.0000 0.79340  0.61990  0.04000  Biso   1.000  H
  H356     1.0000 0.38010  0.17350  0.04000  Biso   1.000  H
  H357     1.0000 0.82650  0.20660  0.04000  Biso   1.000  H
  H358     1.0000 0.46007  0.95323  0.37333  Biso   1.000  H
  H359     1.0000 0.04677  0.50683  0.37333  Biso   1.000  H
  H360     1.0000 0.49317  0.53993  0.37333  Biso   1.000  H
  H361     1.0000 0.12673  0.28657  0.70667  Biso   1.000  H
  H362     1.0000 0.71343  0.84017  0.70667  Biso   1.000  H
  H363     1.0000 0.15983  0.87327  0.70667  Biso   1.000  H
  H364     1.0000 0.20660  0.38010  0.96000  Biso   1.000  H
  H365     1.0000 0.61990  0.82650  0.96000  Biso   1.000  H
  H366     1.0000 0.17350  0.79340  0.96000  Biso   1.000  H
  H367     1.0000 0.87327  0.71343  0.29333  Biso   1.000  H
  H368     1.0000 0.28657  0.15983  0.29333  Biso   1.000  H
  H369     1.0000 0.84017  0.12673  0.29333  Biso   1.000  H
  H370     1.0000 0.53993  0.04677  0.62667  Biso   1.000  H
  H371     1.0000 0.95323  0.49317  0.62667  Biso   1.000  H
  H372     1.0000 0.50683  0.46007  0.62667  Biso   1.000  H
  C301     1.0000 0.85770  0.72150  0.08210  Biso   1.000  C
  C302     1.0000 0.27850  0.13620  0.08210  Biso   1.000  C
  C303     1.0000 0.86380  0.14230  0.08210  Biso   1.000  C
  C304     1.0000 0.52437  0.05483  0.41543  Biso   1.000  C
  C305     1.0000 0.94517  0.46953  0.41543  Biso   1.000  C
  C306     1.0000 0.53047  0.47563  0.41543  Biso   1.000  C
  C307     1.0000 0.19103  0.38817  0.74877  Biso   1.000  C
  C308     1.0000 0.61183  0.80287  0.74877  Biso   1.000  C
  C309     1.0000 0.19713  0.80897  0.74877  Biso   1.000  C
  C310     1.0000 0.14230  0.27850  0.91790  Biso   1.000  C
  C311     1.0000 0.72150  0.86380  0.91790  Biso   1.000  C
  C312     1.0000 0.13620  0.85770  0.91790  Biso   1.000  C
  C313     1.0000 0.80897  0.61183  0.25123  Biso   1.000  C
  C314     1.0000 0.38817  0.19713  0.25123  Biso   1.000  C
  C315     1.0000 0.80287  0.19103  0.25123  Biso   1.000  C
  C316     1.0000 0.47563  0.94517  0.58457  Biso   1.000  C
  C317     1.0000 0.05483  0.53047  0.58457  Biso   1.000  C
  C318     1.0000 0.46953  0.52437  0.58457  Biso   1.000  C
  H373     1.0000 0.86050  0.75350  0.06550  Biso   1.000  H
  H374     1.0000 0.24650  0.10700  0.06550  Biso   1.000  H
  H375     1.0000 0.89300  0.13950  0.06550  Biso   1.000  H
  H376     1.0000 0.52717  0.08683  0.39883  Biso   1.000  H
  H377     1.0000 0.91317  0.44033  0.39883  Biso   1.000  H
  H378     1.0000 0.55967  0.47283  0.39883  Biso   1.000  H
  H379     1.0000 0.19383  0.42017  0.73217  Biso   1.000  H
  H380     1.0000 0.57983  0.77367  0.73217  Biso   1.000  H
  H381     1.0000 0.22633  0.80617  0.73217  Biso   1.000  H
  H382     1.0000 0.13950  0.24650  0.93450  Biso   1.000  H
  H383     1.0000 0.75350  0.89300  0.93450  Biso   1.000  H
  H384     1.0000 0.10700  0.86050  0.93450  Biso   1.000  H
  H385     1.0000 0.80617  0.57983  0.26783  Biso   1.000  H
  H386     1.0000 0.42017  0.22633  0.26783  Biso   1.000  H
  H387     1.0000 0.77367  0.19383  0.26783  Biso   1.000  H
  H388     1.0000 0.47283  0.91317  0.60117  Biso   1.000  H
  H389     1.0000 0.08683  0.55967  0.60117  Biso   1.000  H
  H390     1.0000 0.44033  0.52717  0.60117  Biso   1.000  H
  H391     1.0000 0.90740  0.76010  0.09360  Biso   1.000  H
  H392     1.0000 0.23990  0.14730  0.09360  Biso   1.000  H
  H393     1.0000 0.85270  0.09260  0.09360  Biso   1.000  H
  H394     1.0000 0.57407  0.09343  0.42693  Biso   1.000  H
  H395     1.0000 0.90657  0.48063  0.42693  Biso   1.000  H
  H396     1.0000 0.51937  0.42593  0.42693  Biso   1.000  H
  H397     1.0000 0.24073  0.42677  0.76027  Biso   1.000  H
  H398     1.0000 0.57323  0.81397  0.76027  Biso   1.000  H
  H399     1.0000 0.18603  0.75927  0.76027  Biso   1.000  H
  H400     1.0000 0.09260  0.23990  0.90640  Biso   1.000  H
  H401     1.0000 0.76010  0.85270  0.90640  Biso   1.000  H
  H402     1.0000 0.14730  0.90740  0.90640  Biso   1.000  H
  H403     1.0000 0.75927  0.57323  0.23973  Biso   1.000  H
  H404     1.0000 0.42677  0.18603  0.23973  Biso   1.000  H
  H405     1.0000 0.81397  0.24073  0.23973  Biso   1.000  H
  H406     1.0000 0.42593  0.90657  0.57307  Biso   1.000  H
  H407     1.0000 0.09343  0.51937  0.57307  Biso   1.000  H
  H408     1.0000 0.48063  0.57407  0.57307  Biso   1.000  H
  C319     1.0000 0.95000  0.66730  0.06380  Biso   1.000  C
  C320     1.0000 0.33270  0.28270  0.06380  Biso   1.000  C
  C321     1.0000 0.71730  0.05000  0.06380  Biso   1.000  C
  C322     1.0000 0.61667  0.00063  0.39713  Biso   1.000  C
  C323     1.0000 0.99937  0.61603  0.39713  Biso   1.000  C
  C324     1.0000 0.38397  0.38333  0.39713  Biso   1.000  C
  C325     1.0000 0.28333  0.33397  0.73047  Biso   1.000  C
  C326     1.0000 0.66603  0.94937  0.73047  Biso   1.000  C
  C327     1.0000 0.05063  0.71667  0.73047  Biso   1.000  C
  C328     1.0000 0.05000  0.33270  0.93620  Biso   1.000  C
  C329     1.0000 0.66730  0.71730  0.93620  Biso   1.000  C
  C330     1.0000 0.28270  0.95000  0.93620  Biso   1.000  C
  C331     1.0000 0.71667  0.66603  0.26953  Biso   1.000  C
  C332     1.0000 0.33397  0.05063  0.26953  Biso   1.000  C
  C333     1.0000 0.94937  0.28333  0.26953  Biso   1.000  C
  C334     1.0000 0.38333  0.99937  0.60287  Biso   1.000  C
  C335     1.0000 0.00063  0.38397  0.60287  Biso   1.000  C
  C336     1.0000 0.61603  0.61667  0.60287  Biso   1.000  C
  H409     1.0000 0.99500  0.70200  0.07730  Biso   1.000  H
  H410     1.0000 0.29800  0.29300  0.07730  Biso   1.000  H
  H411     1.0000 0.70700  0.00500  0.07730  Biso   1.000  H
  H412     1.0000 0.66167  0.03533  0.41063  Biso   1.000  H
  H413     1.0000 0.96467  0.62633  0.41063  Biso   1.000  H
  H414     1.0000 0.37367  0.33833  0.41063  Biso   1.000  H
  H415     1.0000 0.32833  0.36867  0.74397  Biso   1.000  H
  H416     1.0000 0.63133  0.95967  0.74397  Biso   1.000  H
  H417     1.0000 0.04033  0.67167  0.74397  Biso   1.000  H
  H418     1.0000 0.00500  0.29800  0.92270  Biso   1.000  H
  H419     1.0000 0.70200  0.70700  0.92270  Biso   1.000  H
  H420     1.0000 0.29300  0.99500  0.92270  Biso   1.000  H
  H421     1.0000 0.67167  0.63133  0.25603  Biso   1.000  H
  H422     1.0000 0.36867  0.04033  0.25603  Biso   1.000  H
  H423     1.0000 0.95967  0.32833  0.25603  Biso   1.000  H
  H424     1.0000 0.33833  0.96467  0.58937  Biso   1.000  H
  H425     1.0000 0.03533  0.37367  0.58937  Biso   1.000  H
  H426     1.0000 0.62633  0.66167  0.58937  Biso   1.000  H
  H427     1.0000 0.96040  0.70460  0.04790  Biso   1.000  H
  H428     1.0000 0.29540  0.25580  0.04790  Biso   1.000  H
  H429     1.0000 0.74420  0.03960  0.04790  Biso   1.000  H
  H430     1.0000 0.62707  0.03793  0.38123  Biso   1.000  H
  H431     1.0000 0.96207  0.58913  0.38123  Biso   1.000  H
  H432     1.0000 0.41087  0.37293  0.38123  Biso   1.000  H
  H433     1.0000 0.29373  0.37127  0.71457  Biso   1.000  H
  H434     1.0000 0.62873  0.92247  0.71457  Biso   1.000  H
  H435     1.0000 0.07753  0.70627  0.71457  Biso   1.000  H
  H436     1.0000 0.03960  0.29540  0.95210  Biso   1.000  H
  H437     1.0000 0.70460  0.74420  0.95210  Biso   1.000  H
  H438     1.0000 0.25580  0.96040  0.95210  Biso   1.000  H
  H439     1.0000 0.70627  0.62873  0.28543  Biso   1.000  H
  H440     1.0000 0.37127  0.07753  0.28543  Biso   1.000  H
  H441     1.0000 0.92247  0.29373  0.28543  Biso   1.000  H
  H442     1.0000 0.37293  0.96207  0.61877  Biso   1.000  H
  H443     1.0000 0.03793  0.41087  0.61877  Biso   1.000  H
  H444     1.0000 0.58913  0.62707  0.61877  Biso   1.000  H
  C337     1.0000 0.95880  0.58870  0.05570  Biso   1.000  C
  C338     1.0000 0.41130  0.37010  0.05570  Biso   1.000  C
  C339     1.0000 0.62990  0.04120  0.05570  Biso   1.000  C
  C340     1.0000 0.62547  0.92203  0.38903  Biso   1.000  C
  C341     1.0000 0.07797  0.70343  0.38903  Biso   1.000  C
  C342     1.0000 0.29657  0.37453  0.38903  Biso   1.000  C
  C343     1.0000 0.29213  0.25537  0.72237  Biso   1.000  C
  C344     1.0000 0.74463  0.03677  0.72237  Biso   1.000  C
  C345     1.0000 0.96323  0.70787  0.72237  Biso   1.000  C
  C346     1.0000 0.04120  0.41130  0.94430  Biso   1.000  C
  C347     1.0000 0.58870  0.62990  0.94430  Biso   1.000  C
  C348     1.0000 0.37010  0.95880  0.94430  Biso   1.000  C
  C349     1.0000 0.70787  0.74463  0.27763  Biso   1.000  C
  C350     1.0000 0.25537  0.96323  0.27763  Biso   1.000  C
  C351     1.0000 0.03677  0.29213  0.27763  Biso   1.000  C
  C352     1.0000 0.37453  0.07797  0.61097  Biso   1.000  C
  C353     1.0000 0.92203  0.29657  0.61097  Biso   1.000  C
  C354     1.0000 0.70343  0.62547  0.61097  Biso   1.000  C
  H445     1.0000 0.92200  0.56000  0.03990  Biso   1.000  H
  H446     1.0000 0.44000  0.36200  0.03990  Biso   1.000  H
  H447     1.0000 0.63800  0.07800  0.03990  Biso   1.000  H
  H448     1.0000 0.58867  0.89333  0.37323  Biso   1.000  H
  H449     1.0000 0.10667  0.69533  0.37323  Biso   1.000  H
  H450     1.0000 0.30467  0.41133  0.37323  Biso   1.000  H
  H451     1.0000 0.25533  0.22667  0.70657  Biso   1.000  H
  H452     1.0000 0.77333  0.02867  0.70657  Biso   1.000  H
  H453     1.0000 0.97133  0.74467  0.70657  Biso   1.000  H
  H454     1.0000 0.07800  0.44000  0.96010  Biso   1.000  H
  H455     1.0000 0.56000  0.63800  0.96010  Biso   1.000  H
  H456     1.0000 0.36200  0.92200  0.96010  Biso   1.000  H
  H457     1.0000 0.74467  0.77333  0.29343  Biso   1.000  H
  H458     1.0000 0.22667  0.97133  0.29343  Biso   1.000  H
  H459     1.0000 0.02867  0.25533  0.29343  Biso   1.000  H
  H460     1.0000 0.41133  0.10667  0.62677  Biso   1.000  H
  H461     1.0000 0.89333  0.30467  0.62677  Biso   1.000  H
  H462     1.0000 0.69533  0.58867  0.62677  Biso   1.000  H
  H463     1.0000 0.93880  0.54610  0.07060  Biso   1.000  H
  H464     1.0000 0.45390  0.39270  0.07060  Biso   1.000  H
  H465     1.0000 0.60730  0.06120  0.07060  Biso   1.000  H
  H466     1.0000 0.60547  0.87943  0.40393  Biso   1.000  H
  H467     1.0000 0.12057  0.72603  0.40393  Biso   1.000  H
  H468     1.0000 0.27397  0.39453  0.40393  Biso   1.000  H
  H469     1.0000 0.27213  0.21277  0.73727  Biso   1.000  H
  H470     1.0000 0.78723  0.05937  0.73727  Biso   1.000  H
  H471     1.0000 0.94063  0.72787  0.73727  Biso   1.000  H
  H472     1.0000 0.06120  0.45390  0.92940  Biso   1.000  H
  H473     1.0000 0.54610  0.60730  0.92940  Biso   1.000  H
  H474     1.0000 0.39270  0.93880  0.92940  Biso   1.000  H
  H475     1.0000 0.72787  0.78723  0.26273  Biso   1.000  H
  H476     1.0000 0.21277  0.94063  0.26273  Biso   1.000  H
  H477     1.0000 0.05937  0.27213  0.26273  Biso   1.000  H
  H478     1.0000 0.39453  0.12057  0.59607  Biso   1.000  H
  H479     1.0000 0.87943  0.27397  0.59607  Biso   1.000  H
  H480     1.0000 0.72603  0.60547  0.59607  Biso   1.000  H
  C355     1.0000 0.05560  0.61880  0.04900  Biso   1.000  C
  C356     1.0000 0.38120  0.43680  0.04900  Biso   1.000  C
  C357     1.0000 0.56320  0.94440  0.04900  Biso   1.000  C
  C358     1.0000 0.72227  0.95213  0.38233  Biso   1.000  C
  C359     1.0000 0.04787  0.77013  0.38233  Biso   1.000  C
  C360     1.0000 0.22987  0.27773  0.38233  Biso   1.000  C
  C361     1.0000 0.38893  0.28547  0.71567  Biso   1.000  C
  C362     1.0000 0.71453  0.10347  0.71567  Biso   1.000  C
  C363     1.0000 0.89653  0.61107  0.71567  Biso   1.000  C
  C364     1.0000 0.94440  0.38120  0.95100  Biso   1.000  C
  C365     1.0000 0.61880  0.56320  0.95100  Biso   1.000  C
  C366     1.0000 0.43680  0.05560  0.95100  Biso   1.000  C
  C367     1.0000 0.61107  0.71453  0.28433  Biso   1.000  C
  C368     1.0000 0.28547  0.89653  0.28433  Biso   1.000  C
  C369     1.0000 0.10347  0.38893  0.28433  Biso   1.000  C
  C370     1.0000 0.27773  0.04787  0.61767  Biso   1.000  C
  C371     1.0000 0.95213  0.22987  0.61767  Biso   1.000  C
  C372     1.0000 0.77013  0.72227  0.61767  Biso   1.000  C
  H481     1.0000 0.07930  0.66840  0.03640  Biso   1.000  H
  H482     1.0000 0.33160  0.41090  0.03640  Biso   1.000  H
  H483     1.0000 0.58910  0.92070  0.03640  Biso   1.000  H
  H484     1.0000 0.74597  0.00173  0.36973  Biso   1.000  H
  H485     1.0000 0.99827  0.74423  0.36973  Biso   1.000  H
  H486     1.0000 0.25577  0.25403  0.36973  Biso   1.000  H
  H487     1.0000 0.41263  0.33507  0.70307  Biso   1.000  H
  H488     1.0000 0.66493  0.07757  0.70307  Biso   1.000  H
  H489     1.0000 0.92243  0.58737  0.70307  Biso   1.000  H
  H490     1.0000 0.92070  0.33160  0.96360  Biso   1.000  H
  H491     1.0000 0.66840  0.58910  0.96360  Biso   1.000  H
  H492     1.0000 0.41090  0.07930  0.96360  Biso   1.000  H
  H493     1.0000 0.58737  0.66493  0.29693  Biso   1.000  H
  H494     1.0000 0.33507  0.92243  0.29693  Biso   1.000  H
  H495     1.0000 0.07757  0.41263  0.29693  Biso   1.000  H
  H496     1.0000 0.25403  0.99827  0.63027  Biso   1.000  H
  H497     1.0000 0.00173  0.25577  0.63027  Biso   1.000  H
  H498     1.0000 0.74423  0.74597  0.63027  Biso   1.000  H
  H499     1.0000 0.09130  0.63710  0.06550  Biso   1.000  H
  H500     1.0000 0.36290  0.45420  0.06550  Biso   1.000  H
  H501     1.0000 0.54580  0.90870  0.06550  Biso   1.000  H
  H502     1.0000 0.75797  0.97043  0.39883  Biso   1.000  H
  H503     1.0000 0.02957  0.78753  0.39883  Biso   1.000  H
  H504     1.0000 0.21247  0.24203  0.39883  Biso   1.000  H
  H505     1.0000 0.42463  0.30377  0.73217  Biso   1.000  H
  H506     1.0000 0.69623  0.12087  0.73217  Biso   1.000  H
  H507     1.0000 0.87913  0.57537  0.73217  Biso   1.000  H
  H508     1.0000 0.90870  0.36290  0.93450  Biso   1.000  H
  H509     1.0000 0.63710  0.54580  0.93450  Biso   1.000  H
  H510     1.0000 0.45420  0.09130  0.93450  Biso   1.000  H
  H511     1.0000 0.57537  0.69623  0.26783  Biso   1.000  H
  H512     1.0000 0.30377  0.87913  0.26783  Biso   1.000  H
  H513     1.0000 0.12087  0.42463  0.26783  Biso   1.000  H
  H514     1.0000 0.24203  0.02957  0.60117  Biso   1.000  H
  H515     1.0000 0.97043  0.21247  0.60117  Biso   1.000  H
  H516     1.0000 0.78753  0.75797  0.60117  Biso   1.000  H
  C373     1.0000 0.09460  0.50910  0.05040  Biso   1.000  C
  C374     1.0000 0.49090  0.58550  0.05040  Biso   1.000  C
  C375     1.0000 0.41450  0.90540  0.05040  Biso   1.000  C
  C376     1.0000 0.76127  0.84243  0.38373  Biso   1.000  C
  C377     1.0000 0.15757  0.91883  0.38373  Biso   1.000  C
  C378     1.0000 0.08117  0.23873  0.38373  Biso   1.000  C
  C379     1.0000 0.42793  0.17577  0.71707  Biso   1.000  C
  C380     1.0000 0.82423  0.25217  0.71707  Biso   1.000  C
  C381     1.0000 0.74783  0.57207  0.71707  Biso   1.000  C
  C382     1.0000 0.90540  0.49090  0.94960  Biso   1.000  C
  C383     1.0000 0.50910  0.41450  0.94960  Biso   1.000  C
  C384     1.0000 0.58550  0.09460  0.94960  Biso   1.000  C
  C385     1.0000 0.57207  0.82423  0.28293  Biso   1.000  C
  C386     1.0000 0.17577  0.74783  0.28293  Biso   1.000  C
  C387     1.0000 0.25217  0.42793  0.28293  Biso   1.000  C
  C388     1.0000 0.23873  0.15757  0.61627  Biso   1.000  C
  C389     1.0000 0.84243  0.08117  0.61627  Biso   1.000  C
  C390     1.0000 0.91883  0.76127  0.61627  Biso   1.000  C
  H517     1.0000 0.12560  0.54030  0.06590  Biso   1.000  H
  H518     1.0000 0.45970  0.58530  0.06590  Biso   1.000  H
  H519     1.0000 0.41470  0.87440  0.06590  Biso   1.000  H
  H520     1.0000 0.79227  0.87363  0.39923  Biso   1.000  H
  H521     1.0000 0.12637  0.91863  0.39923  Biso   1.000  H
  H522     1.0000 0.08137  0.20773  0.39923  Biso   1.000  H
  H523     1.0000 0.45893  0.20697  0.73257  Biso   1.000  H
  H524     1.0000 0.79303  0.25197  0.73257  Biso   1.000  H
  H525     1.0000 0.74803  0.54107  0.73257  Biso   1.000  H
  H526     1.0000 0.87440  0.45970  0.93410  Biso   1.000  H
  H527     1.0000 0.54030  0.41470  0.93410  Biso   1.000  H
  H528     1.0000 0.58530  0.12560  0.93410  Biso   1.000  H
  H529     1.0000 0.54107  0.79303  0.26743  Biso   1.000  H
  H530     1.0000 0.20697  0.74803  0.26743  Biso   1.000  H
  H531     1.0000 0.25197  0.45893  0.26743  Biso   1.000  H
  H532     1.0000 0.20773  0.12637  0.60077  Biso   1.000  H
  H533     1.0000 0.87363  0.08137  0.60077  Biso   1.000  H
  H534     1.0000 0.91863  0.79227  0.60077  Biso   1.000  H
  C391     1.0000 0.09420  0.42870  0.04440  Biso   1.000  C
  C392     1.0000 0.57130  0.66550  0.04440  Biso   1.000  C
  C393     1.0000 0.33450  0.90580  0.04440  Biso   1.000  C
  C394     1.0000 0.76087  0.76203  0.37773  Biso   1.000  C
  C395     1.0000 0.23797  0.99883  0.37773  Biso   1.000  C
  C396     1.0000 0.00117  0.23913  0.37773  Biso   1.000  C
  C397     1.0000 0.42753  0.09537  0.71107  Biso   1.000  C
  C398     1.0000 0.90463  0.33217  0.71107  Biso   1.000  C
  C399     1.0000 0.66783  0.57247  0.71107  Biso   1.000  C
  C400     1.0000 0.90580  0.57130  0.95560  Biso   1.000  C
  C401     1.0000 0.42870  0.33450  0.95560  Biso   1.000  C
  C402     1.0000 0.66550  0.09420  0.95560  Biso   1.000  C
  C403     1.0000 0.57247  0.90463  0.28893  Biso   1.000  C
  C404     1.0000 0.09537  0.66783  0.28893  Biso   1.000  C
  C405     1.0000 0.33217  0.42753  0.28893  Biso   1.000  C
  C406     1.0000 0.23913  0.23797  0.62227  Biso   1.000  C
  C407     1.0000 0.76203  0.00117  0.62227  Biso   1.000  C
  C408     1.0000 0.99883  0.76087  0.62227  Biso   1.000  C
  C409     1.0000 0.03980  0.37000  0.02270  Biso   1.000  C
  C410     1.0000 0.63000  0.66980  0.02270  Biso   1.000  C
  C411     1.0000 0.33020  0.96020  0.02270  Biso   1.000  C
  C412     1.0000 0.70647  0.70333  0.35603  Biso   1.000  C
  C413     1.0000 0.29667  0.00313  0.35603  Biso   1.000  C
  C414     1.0000 0.99687  0.29353  0.35603  Biso   1.000  C
  C415     1.0000 0.37313  0.03667  0.68937  Biso   1.000  C
  C416     1.0000 0.96333  0.33647  0.68937  Biso   1.000  C
  C417     1.0000 0.66353  0.62687  0.68937  Biso   1.000  C
  C418     1.0000 0.96020  0.63000  0.97730  Biso   1.000  C
  C419     1.0000 0.37000  0.33020  0.97730  Biso   1.000  C
  C420     1.0000 0.66980  0.03980  0.97730  Biso   1.000  C
  C421     1.0000 0.62687  0.96333  0.31063  Biso   1.000  C
  C422     1.0000 0.03667  0.66353  0.31063  Biso   1.000  C
  C423     1.0000 0.33647  0.37313  0.31063  Biso   1.000  C
  C424     1.0000 0.29353  0.29667  0.64397  Biso   1.000  C
  C425     1.0000 0.70333  0.99687  0.64397  Biso   1.000  C
  C426     1.0000 0.00313  0.70647  0.64397  Biso   1.000  C
  C427     1.0000 0.03980  0.28960  0.02120  Biso   1.000  C
  C428     1.0000 0.71040  0.75020  0.02120  Biso   1.000  C
  C429     1.0000 0.24980  0.96020  0.02120  Biso   1.000  C
  C430     1.0000 0.70647  0.62293  0.35453  Biso   1.000  C
  C431     1.0000 0.37707  0.08353  0.35453  Biso   1.000  C
  C432     1.0000 0.91647  0.29353  0.35453  Biso   1.000  C
  C433     1.0000 0.37313  0.95627  0.68787  Biso   1.000  C
  C434     1.0000 0.04373  0.41687  0.68787  Biso   1.000  C
  C435     1.0000 0.58313  0.62687  0.68787  Biso   1.000  C
  C436     1.0000 0.96020  0.71040  0.97880  Biso   1.000  C
  C437     1.0000 0.28960  0.24980  0.97880  Biso   1.000  C
  C438     1.0000 0.75020  0.03980  0.97880  Biso   1.000  C
  C439     1.0000 0.62687  0.04373  0.31213  Biso   1.000  C
  C440     1.0000 0.95627  0.58313  0.31213  Biso   1.000  C
  C441     1.0000 0.41687  0.37313  0.31213  Biso   1.000  C
  C442     1.0000 0.29353  0.37707  0.64547  Biso   1.000  C
  C443     1.0000 0.62293  0.91647  0.64547  Biso   1.000  C
  C444     1.0000 0.08353  0.70647  0.64547  Biso   1.000  C
  H535     1.0000 0.00650  0.25090  0.00720  Biso   1.000  H
  H536     1.0000 0.74910  0.75560  0.00720  Biso   1.000  H
  H537     1.0000 0.24440  0.99350  0.00720  Biso   1.000  H
  H538     1.0000 0.67317  0.58423  0.34053  Biso   1.000  H
  H539     1.0000 0.41577  0.08893  0.34053  Biso   1.000  H
  H540     1.0000 0.91107  0.32683  0.34053  Biso   1.000  H
  H541     1.0000 0.33983  0.91757  0.67387  Biso   1.000  H
  H542     1.0000 0.08243  0.42227  0.67387  Biso   1.000  H
  H543     1.0000 0.57773  0.66017  0.67387  Biso   1.000  H
  H544     1.0000 0.99350  0.74910  0.99280  Biso   1.000  H
  H545     1.0000 0.25090  0.24440  0.99280  Biso   1.000  H
  H546     1.0000 0.75560  0.00650  0.99280  Biso   1.000  H
  H547     1.0000 0.66017  0.08243  0.32613  Biso   1.000  H
  H548     1.0000 0.91757  0.57773  0.32613  Biso   1.000  H
  H549     1.0000 0.42227  0.33983  0.32613  Biso   1.000  H
  H550     1.0000 0.32683  0.41577  0.65947  Biso   1.000  H
  H551     1.0000 0.58423  0.91107  0.65947  Biso   1.000  H
  H552     1.0000 0.08893  0.67317  0.65947  Biso   1.000  H
  Cu1      1.0000 0.82291  0.57615  0.11230  Biso   1.000  Cu
  Cu2      1.0000 0.42385  0.24676  0.11230  Biso   1.000  Cu
  Cu3      1.0000 0.75324  0.17709  0.11230  Biso   1.000  Cu
  Cu4      1.0000 0.48958  0.90948  0.44563  Biso   1.000  Cu
  Cu5      1.0000 0.09052  0.58009  0.44563  Biso   1.000  Cu
  Cu6      1.0000 0.41991  0.51042  0.44563  Biso   1.000  Cu
  Cu7      1.0000 0.15624  0.24282  0.77897  Biso   1.000  Cu
  Cu8      1.0000 0.75718  0.91343  0.77897  Biso   1.000  Cu
  Cu9      1.0000 0.08657  0.84376  0.77897  Biso   1.000  Cu
  Cu10     1.0000 0.17709  0.42385  0.88770  Biso   1.000  Cu
  Cu11     1.0000 0.57615  0.75324  0.88770  Biso   1.000  Cu
  Cu12     1.0000 0.24676  0.82291  0.88770  Biso   1.000  Cu
  Cu13     1.0000 0.84376  0.75718  0.22103  Biso   1.000  Cu
  Cu14     1.0000 0.24282  0.08657  0.22103  Biso   1.000  Cu
  Cu15     1.0000 0.91343  0.15624  0.22103  Biso   1.000  Cu
  Cu16     1.0000 0.51042  0.09052  0.55437  Biso   1.000  Cu
  Cu17     1.0000 0.90948  0.41991  0.55437  Biso   1.000  Cu
  Cu18     1.0000 0.58009  0.48958  0.55437  Biso   1.000  Cu
  Cu19     1.0000 0.00000  0.50000  0.00000  Biso   1.000  Cu
  Cu20     1.0000 0.50000  0.50000  0.00000  Biso   1.000  Cu
  Cu21     1.0000 0.50000  0.00000  0.00000  Biso   1.000  Cu
  Cu22     1.0000 0.66667  0.83333  0.33333  Biso   1.000  Cu
  Cu23     1.0000 0.16667  0.83333  0.33333  Biso   1.000  Cu
  Cu24     1.0000 0.16667  0.33333  0.33333  Biso   1.000  Cu
  Cu25     1.0000 0.33333  0.16667  0.66667  Biso   1.000  Cu
  Cu26     1.0000 0.83333  0.16667  0.66667  Biso   1.000  Cu
  Cu27     1.0000 0.83333  0.66667  0.66667  Biso   1.000  Cu
  N1       1.0000 0.05630  0.54180  0.03650  Biso   1.000  N
  N2       1.0000 0.45820  0.51450  0.03650  Biso   1.000  N
  N3       1.0000 0.48550  0.94370  0.03650  Biso   1.000  N
  N4       1.0000 0.72297  0.87513  0.36983  Biso   1.000  N
  N5       1.0000 0.12487  0.84783  0.36983  Biso   1.000  N
  N6       1.0000 0.15217  0.27703  0.36983  Biso   1.000  N
  N7       1.0000 0.38963  0.20847  0.70317  Biso   1.000  N
  N8       1.0000 0.79153  0.18117  0.70317  Biso   1.000  N
  N9       1.0000 0.81883  0.61037  0.70317  Biso   1.000  N
  N10      1.0000 0.94370  0.45820  0.96350  Biso   1.000  N
  N11      1.0000 0.54180  0.48550  0.96350  Biso   1.000  N
  N12      1.0000 0.51450  0.05630  0.96350  Biso   1.000  N
  N13      1.0000 0.61037  0.79153  0.29683  Biso   1.000  N
  N14      1.0000 0.20847  0.81883  0.29683  Biso   1.000  N
  N15      1.0000 0.18117  0.38963  0.29683  Biso   1.000  N
  N16      1.0000 0.27703  0.12487  0.63017  Biso   1.000  N
  N17      1.0000 0.87513  0.15217  0.63017  Biso   1.000  N
  N18      1.0000 0.84783  0.72297  0.63017  Biso   1.000  N
  N19      1.0000 0.86110  0.64090  0.07529  Biso   1.000  N
  N20      1.0000 0.35910  0.22020  0.07529  Biso   1.000  N
  N21      1.0000 0.77980  0.13890  0.07529  Biso   1.000  N
  N22      1.0000 0.52777  0.97423  0.40862  Biso   1.000  N
  N23      1.0000 0.02577  0.55353  0.40862  Biso   1.000  N
  N24      1.0000 0.44647  0.47223  0.40862  Biso   1.000  N
  N25      1.0000 0.19443  0.30757  0.74196  Biso   1.000  N
  N26      1.0000 0.69243  0.88687  0.74196  Biso   1.000  N
  N27      1.0000 0.11313  0.80557  0.74196  Biso   1.000  N
  N28      1.0000 0.13890  0.35910  0.92471  Biso   1.000  N
  N29      1.0000 0.64090  0.77980  0.92471  Biso   1.000  N
  N30      1.0000 0.22020  0.86110  0.92471  Biso   1.000  N
  N31      1.0000 0.80557  0.69243  0.25804  Biso   1.000  N
  N32      1.0000 0.30757  0.11313  0.25804  Biso   1.000  N
  N33      1.0000 0.88687  0.19443  0.25804  Biso   1.000  N
  N34      1.0000 0.47223  0.02577  0.59138  Biso   1.000  N
  N35      1.0000 0.97423  0.44647  0.59138  Biso   1.000  N
  N36      1.0000 0.55353  0.52777  0.59138  Biso   1.000  N
  N37      1.0000 0.72210  0.59450  0.09892  Biso   1.000  N
  N38      1.0000 0.40550  0.12760  0.09892  Biso   1.000  N
  N39      1.0000 0.87240  0.27790  0.09892  Biso   1.000  N
  N40      1.0000 0.38877  0.92783  0.43225  Biso   1.000  N
  N41      1.0000 0.07217  0.46093  0.43225  Biso   1.000  N
  N42      1.0000 0.53907  0.61123  0.43225  Biso   1.000  N
  N43      1.0000 0.05543  0.26117  0.76559  Biso   1.000  N
  N44      1.0000 0.73883  0.79427  0.76559  Biso   1.000  N
  N45      1.0000 0.20573  0.94457  0.76559  Biso   1.000  N
  N46      1.0000 0.27790  0.40550  0.90108  Biso   1.000  N
  N47      1.0000 0.59450  0.87240  0.90108  Biso   1.000  N
  N48      1.0000 0.12760  0.72210  0.90108  Biso   1.000  N
  N49      1.0000 0.94457  0.73883  0.23441  Biso   1.000  N
  N50      1.0000 0.26117  0.20573  0.23441  Biso   1.000  N
  N51      1.0000 0.79427  0.05543  0.23441  Biso   1.000  N
  N52      1.0000 0.61123  0.07217  0.56775  Biso   1.000  N
  N53      1.0000 0.92783  0.53907  0.56775  Biso   1.000  N
  N54      1.0000 0.46093  0.38877  0.56775  Biso   1.000  N
  N55      1.0000 0.77820  0.52960  0.14848  Biso   1.000  N
  N56      1.0000 0.47040  0.24860  0.14848  Biso   1.000  N
  N57      1.0000 0.75140  0.22180  0.14848  Biso   1.000  N
  N58      1.0000 0.44487  0.86293  0.48181  Biso   1.000  N
  N59      1.0000 0.13707  0.58193  0.48181  Biso   1.000  N
  N60      1.0000 0.41807  0.55513  0.48181  Biso   1.000  N
  N61      1.0000 0.11153  0.19627  0.81515  Biso   1.000  N
  N62      1.0000 0.80373  0.91527  0.81515  Biso   1.000  N
  N63      1.0000 0.08473  0.88847  0.81515  Biso   1.000  N
  N64      1.0000 0.22180  0.47040  0.85152  Biso   1.000  N
  N65      1.0000 0.52960  0.75140  0.85152  Biso   1.000  N
  N66      1.0000 0.24860  0.77820  0.85152  Biso   1.000  N
  N67      1.0000 0.88847  0.80373  0.18485  Biso   1.000  N
  N68      1.0000 0.19627  0.08473  0.18485  Biso   1.000  N
  N69      1.0000 0.91527  0.11153  0.18485  Biso   1.000  N
  N70      1.0000 0.55513  0.13707  0.51819  Biso   1.000  N
  N71      1.0000 0.86293  0.41807  0.51819  Biso   1.000  N
  N72      1.0000 0.58193  0.44487  0.51819  Biso   1.000  N
  O1       1.0000 0.93680  0.59370  0.11894  Biso   1.000  O
  O2       1.0000 0.40630  0.34310  0.11894  Biso   1.000  O
  O3       1.0000 0.65690  0.06320  0.11894  Biso   1.000  O
  O4       1.0000 0.60347  0.92703  0.45227  Biso   1.000  O
  O5       1.0000 0.07297  0.67643  0.45227  Biso   1.000  O
  O6       1.0000 0.32357  0.39653  0.45227  Biso   1.000  O
  O7       1.0000 0.27013  0.26037  0.78561  Biso   1.000  O
  O8       1.0000 0.73963  0.00977  0.78561  Biso   1.000  O
  O9       1.0000 0.99023  0.72987  0.78561  Biso   1.000  O
  O10      1.0000 0.06320  0.40630  0.88106  Biso   1.000  O
  O11      1.0000 0.59370  0.65690  0.88106  Biso   1.000  O
  O12      1.0000 0.34310  0.93680  0.88106  Biso   1.000  O
  O13      1.0000 0.72987  0.73963  0.21439  Biso   1.000  O
  O14      1.0000 0.26037  0.99023  0.21439  Biso   1.000  O
  O15      1.0000 0.00977  0.27013  0.21439  Biso   1.000  O
  O16      1.0000 0.39653  0.07297  0.54773  Biso   1.000  O
  O17      1.0000 0.92703  0.32357  0.54773  Biso   1.000  O
  O18      1.0000 0.67643  0.60347  0.54773  Biso   1.000  O
  O19      1.0000 0.99440  0.39050  0.00600  Biso   1.000  O
  O20      1.0000 0.60950  0.60390  0.00600  Biso   1.000  O
  O21      1.0000 0.39610  0.00560  0.00600  Biso   1.000  O
  O22      1.0000 0.66107  0.72383  0.33933  Biso   1.000  O
  O23      1.0000 0.27617  0.93723  0.33933  Biso   1.000  O
  O24      1.0000 0.06277  0.33893  0.33933  Biso   1.000  O
  O25      1.0000 0.32773  0.05717  0.67267  Biso   1.000  O
  O26      1.0000 0.94283  0.27057  0.67267  Biso   1.000  O
  O27      1.0000 0.72943  0.67227  0.67267  Biso   1.000  O
  O28      1.0000 0.00560  0.60950  0.99400  Biso   1.000  O
  O29      1.0000 0.39050  0.39610  0.99400  Biso   1.000  O
  O30      1.0000 0.60390  0.99440  0.99400  Biso   1.000  O
  O31      1.0000 0.67227  0.94283  0.32733  Biso   1.000  O
  O32      1.0000 0.05717  0.72943  0.32733  Biso   1.000  O
  O33      1.0000 0.27057  0.32773  0.32733  Biso   1.000  O
  O34      1.0000 0.33893  0.27617  0.66067  Biso   1.000  O
  O35      1.0000 0.72383  0.06277  0.66067  Biso   1.000  O
  O36      1.0000 0.93723  0.66107  0.66067  Biso   1.000  O
  Cl37     1.0000 0.66670  0.33330  0.09085  Biso   1.000  Cl
  Cl38     1.0000 0.33337  0.66663  0.42418  Biso   1.000  Cl
  Cl39     1.0000 0.00003  0.99997  0.75752  Biso   1.000  Cl
  Cl40     1.0000 0.33330  0.66670  0.90915  Biso   1.000  Cl
  Cl41     1.0000 0.99997  0.00003  0.24248  Biso   1.000  Cl
  Cl42     1.0000 0.66663  0.33337  0.57582  Biso   1.000  Cl
  O37      1.0000 0.66670  0.33330  0.06040  Biso   1.000  O
  O38      1.0000 0.33337  0.66663  0.39373  Biso   1.000  O
  O39      1.0000 0.00003  0.99997  0.72707  Biso   1.000  O
  O40      1.0000 0.33330  0.66670  0.93960  Biso   1.000  O
  O41      1.0000 0.99997  0.00003  0.27293  Biso   1.000  O
  O42      1.0000 0.66663  0.33337  0.60627  Biso   1.000  O
  O43      1.0000 0.59000  0.33670  0.09670  Biso   1.000  O
  O44      1.0000 0.66330  0.25330  0.09670  Biso   1.000  O
  O45      1.0000 0.74670  0.41000  0.09670  Biso   1.000  O
  O46      1.0000 0.25667  0.67003  0.43003  Biso   1.000  O
  O47      1.0000 0.32997  0.58663  0.43003  Biso   1.000  O
  O48      1.0000 0.41337  0.74333  0.43003  Biso   1.000  O
  O49      1.0000 0.92333  0.00337  0.76337  Biso   1.000  O
  O50      1.0000 0.99663  0.91997  0.76337  Biso   1.000  O
  O51      1.0000 0.08003  0.07667  0.76337  Biso   1.000  O
  O52      1.0000 0.41000  0.66330  0.90330  Biso   1.000  O
  O53      1.0000 0.33670  0.74670  0.90330  Biso   1.000  O
  O54      1.0000 0.25330  0.59000  0.90330  Biso   1.000  O
  O55      1.0000 0.07667  0.99663  0.23663  Biso   1.000  O
  O56      1.0000 0.00337  0.08003  0.23663  Biso   1.000  O
  O57      1.0000 0.91997  0.92333  0.23663  Biso   1.000  O
  O58      1.0000 0.74333  0.32997  0.56997  Biso   1.000  O
  O59      1.0000 0.67003  0.41337  0.56997  Biso   1.000  O
  O60      1.0000 0.58663  0.25667  0.56997  Biso   1.000  O
  Cl43     1.0000 0.33330  0.66670  0.10046  Biso   1.000  Cl
  Cl44     1.0000 0.99997  0.00003  0.43379  Biso   1.000  Cl
  Cl45     1.0000 0.66663  0.33337  0.76713  Biso   1.000  Cl
  Cl46     1.0000 0.66670  0.33330  0.89954  Biso   1.000  Cl
  Cl47     1.0000 0.33337  0.66663  0.23287  Biso   1.000  Cl
  Cl48     1.0000 0.00003  0.99997  0.56621  Biso   1.000  Cl
  O61      1.0000 0.33330  0.66670  0.12470  Biso   1.000  O
  O62      1.0000 0.99997  0.00003  0.45803  Biso   1.000  O
  O63      1.0000 0.66663  0.33337  0.79137  Biso   1.000  O
  O64      1.0000 0.66670  0.33330  0.87530  Biso   1.000  O
  O65      1.0000 0.33337  0.66663  0.20863  Biso   1.000  O
  O66      1.0000 0.00003  0.99997  0.54197  Biso   1.000  O
  O67      1.0000 0.40420  0.73500  0.09380  Biso   1.000  O
  O68      1.0000 0.26500  0.66920  0.09380  Biso   1.000  O
  O69      1.0000 0.33080  0.59580  0.09380  Biso   1.000  O
  O70      1.0000 0.07087  0.06833  0.42713  Biso   1.000  O
  O71      1.0000 0.93167  0.00253  0.42713  Biso   1.000  O
  O72      1.0000 0.99747  0.92913  0.42713  Biso   1.000  O
  O73      1.0000 0.73753  0.40167  0.76047  Biso   1.000  O
  O74      1.0000 0.59833  0.33587  0.76047  Biso   1.000  O
  O75      1.0000 0.66413  0.26247  0.76047  Biso   1.000  O
  O76      1.0000 0.59580  0.26500  0.90620  Biso   1.000  O
  O77      1.0000 0.73500  0.33080  0.90620  Biso   1.000  O
  O78      1.0000 0.66920  0.40420  0.90620  Biso   1.000  O
  O79      1.0000 0.26247  0.59833  0.23953  Biso   1.000  O
  O80      1.0000 0.40167  0.66413  0.23953  Biso   1.000  O
  O81      1.0000 0.33587  0.73753  0.23953  Biso   1.000  O
  O82      1.0000 0.92913  0.93167  0.57287  Biso   1.000  O
  O83      1.0000 0.06833  0.99747  0.57287  Biso   1.000  O
  O84      1.0000 0.00253  0.07087  0.57287  Biso   1.000  O
  O85      1.0000 0.00000  0.00000  0.12790  Biso   1.000  O
  O86      1.0000 0.66667  0.33333  0.46123  Biso   1.000  O
  O87      1.0000 0.33333  0.66667  0.79457  Biso   1.000  O
  O88      1.0000 0.00000  0.00000  0.87210  Biso   1.000  O
  O89      1.0000 0.66667  0.33333  0.20543  Biso   1.000  O
  O90      1.0000 0.33333  0.66667  0.53877  Biso   1.000  O
  Cl49     1.0000 0.00000  0.00000  0.10024  Biso   1.000  Cl
  Cl50     1.0000 0.66667  0.33333  0.43357  Biso   1.000  Cl
  Cl51     1.0000 0.33333  0.66667  0.76691  Biso   1.000  Cl
  Cl52     1.0000 0.00000  0.00000  0.89976  Biso   1.000  Cl
  Cl53     1.0000 0.66667  0.33333  0.23309  Biso   1.000  Cl
  Cl54     1.0000 0.33333  0.66667  0.56643  Biso   1.000  Cl
  O91      1.0000 0.03550  0.07780  0.09400  Biso   1.000  O
  O92      1.0000 0.92220  0.95770  0.09400  Biso   1.000  O
  O93      1.0000 0.04230  0.96450  0.09400  Biso   1.000  O
  O94      1.0000 0.70217  0.41113  0.42733  Biso   1.000  O
  O95      1.0000 0.58887  0.29103  0.42733  Biso   1.000  O
  O96      1.0000 0.70897  0.29783  0.42733  Biso   1.000  O
  O97      1.0000 0.36883  0.74447  0.76067  Biso   1.000  O
  O98      1.0000 0.25553  0.62437  0.76067  Biso   1.000  O
  O99      1.0000 0.37563  0.63117  0.76067  Biso   1.000  O
  O100     1.0000 0.96450  0.92220  0.90600  Biso   1.000  O
  O101     1.0000 0.07780  0.04230  0.90600  Biso   1.000  O
  O102     1.0000 0.95770  0.03550  0.90600  Biso   1.000  O
  O103     1.0000 0.63117  0.25553  0.23933  Biso   1.000  O
  O104     1.0000 0.74447  0.37563  0.23933  Biso   1.000  O
  O105     1.0000 0.62437  0.36883  0.23933  Biso   1.000  O
  O106     1.0000 0.29783  0.58887  0.57267  Biso   1.000  O
  O107     1.0000 0.41113  0.70897  0.57267  Biso   1.000  O
  O108     1.0000 0.29103  0.70217  0.57267  Biso   1.000  O
