data_image0
_cell_length_a       36.244
_cell_length_b       36.244
_cell_length_c       36.244
_cell_angle_alpha    90
_cell_angle_beta     90
_cell_angle_gamma    90

_symmetry_space_group_name_H-M    "P 1"
_symmetry_int_tables_number       1

loop_
  _symmetry_equiv_pos_as_xyz
  'x, y, z'

loop_
  _atom_site_label
  _atom_site_occupancy
  _atom_site_fract_x
  _atom_site_fract_y
  _atom_site_fract_z
  _atom_site_thermal_displace_type
  _atom_site_B_iso_or_equiv
  _atom_site_type_symbol
  Cu1      1.0000 0.50000  0.65539  0.34461  Biso   1.000  Cu
  Cu2      1.0000 0.34461  0.50000  0.34461  Biso   1.000  Cu
  Cu3      1.0000 0.50000  0.34461  0.65539  Biso   1.000  Cu
  Cu4      1.0000 0.34461  0.50000  0.65539  Biso   1.000  Cu
  Cu5      1.0000 0.50000  0.34461  0.34461  Biso   1.000  Cu
  Cu6      1.0000 0.65539  0.50000  0.65539  Biso   1.000  Cu
  Cu7      1.0000 0.34461  0.34461  0.50000  Biso   1.000  Cu
  Cu8      1.0000 0.65539  0.50000  0.34461  Biso   1.000  Cu
  Cu9      1.0000 0.65539  0.34461  0.50000  Biso   1.000  Cu
  Cu10     1.0000 0.50000  0.65539  0.65539  Biso   1.000  Cu
  Cu11     1.0000 0.34461  0.65539  0.50000  Biso   1.000  Cu
  Cu12     1.0000 0.65539  0.65539  0.50000  Biso   1.000  Cu
  Cu13     1.0000 0.00000  0.15539  0.84461  Biso   1.000  Cu
  Cu14     1.0000 0.84461  0.00000  0.84461  Biso   1.000  Cu
  Cu15     1.0000 0.00000  0.84461  0.15539  Biso   1.000  Cu
  Cu16     1.0000 0.84461  0.00000  0.15539  Biso   1.000  Cu
  Cu17     1.0000 0.00000  0.84461  0.84461  Biso   1.000  Cu
  Cu18     1.0000 0.15539  0.00000  0.15539  Biso   1.000  Cu
  Cu19     1.0000 0.84461  0.84461  0.00000  Biso   1.000  Cu
  Cu20     1.0000 0.15539  0.00000  0.84461  Biso   1.000  Cu
  Cu21     1.0000 0.15539  0.84461  0.00000  Biso   1.000  Cu
  Cu22     1.0000 0.00000  0.15539  0.15539  Biso   1.000  Cu
  Cu23     1.0000 0.84461  0.15539  0.00000  Biso   1.000  Cu
  Cu24     1.0000 0.15539  0.15539  0.00000  Biso   1.000  Cu
  Cu25     1.0000 0.50000  0.70682  0.29318  Biso   1.000  Cu
  Cu26     1.0000 0.29318  0.50000  0.29318  Biso   1.000  Cu
  Cu27     1.0000 0.50000  0.29318  0.70682  Biso   1.000  Cu
  Cu28     1.0000 0.29318  0.50000  0.70682  Biso   1.000  Cu
  Cu29     1.0000 0.50000  0.29318  0.29318  Biso   1.000  Cu
  Cu30     1.0000 0.70682  0.50000  0.70682  Biso   1.000  Cu
  Cu31     1.0000 0.29318  0.29318  0.50000  Biso   1.000  Cu
  Cu32     1.0000 0.70682  0.50000  0.29318  Biso   1.000  Cu
  Cu33     1.0000 0.70682  0.29318  0.50000  Biso   1.000  Cu
  Cu34     1.0000 0.50000  0.70682  0.70682  Biso   1.000  Cu
  Cu35     1.0000 0.29318  0.70682  0.50000  Biso   1.000  Cu
  Cu36     1.0000 0.70682  0.70682  0.50000  Biso   1.000  Cu
  Cu37     1.0000 0.00000  0.20682  0.79318  Biso   1.000  Cu
  Cu38     1.0000 0.79318  0.00000  0.79318  Biso   1.000  Cu
  Cu39     1.0000 0.00000  0.79318  0.20682  Biso   1.000  Cu
  Cu40     1.0000 0.79318  0.00000  0.20682  Biso   1.000  Cu
  Cu41     1.0000 0.00000  0.79318  0.79318  Biso   1.000  Cu
  Cu42     1.0000 0.20682  0.00000  0.20682  Biso   1.000  Cu
  Cu43     1.0000 0.79318  0.79318  0.00000  Biso   1.000  Cu
  Cu44     1.0000 0.20682  0.00000  0.79318  Biso   1.000  Cu
  Cu45     1.0000 0.20682  0.79318  0.00000  Biso   1.000  Cu
  Cu46     1.0000 0.00000  0.20682  0.20682  Biso   1.000  Cu
  Cu47     1.0000 0.79318  0.20682  0.00000  Biso   1.000  Cu
  Cu48     1.0000 0.20682  0.20682  0.00000  Biso   1.000  Cu
  O1       1.0000 0.53820  0.67625  0.27022  Biso   1.000  O
  O2       1.0000 0.32375  0.53820  0.27022  Biso   1.000  O
  O3       1.0000 0.53820  0.32375  0.72978  Biso   1.000  O
  O4       1.0000 0.27022  0.53820  0.67625  Biso   1.000  O
  O5       1.0000 0.46180  0.32375  0.27022  Biso   1.000  O
  O6       1.0000 0.32375  0.46180  0.72978  Biso   1.000  O
  O7       1.0000 0.67625  0.53820  0.72978  Biso   1.000  O
  O8       1.0000 0.27022  0.32375  0.53820  Biso   1.000  O
  O9       1.0000 0.46180  0.27022  0.67625  Biso   1.000  O
  O10      1.0000 0.72978  0.53820  0.32375  Biso   1.000  O
  O11      1.0000 0.27022  0.46180  0.32375  Biso   1.000  O
  O12      1.0000 0.67625  0.27022  0.53820  Biso   1.000  O
  O13      1.0000 0.67625  0.46180  0.27022  Biso   1.000  O
  O14      1.0000 0.46180  0.67625  0.72978  Biso   1.000  O
  O15      1.0000 0.72978  0.46180  0.67625  Biso   1.000  O
  O16      1.0000 0.72978  0.32375  0.46180  Biso   1.000  O
  O17      1.0000 0.46180  0.72978  0.32375  Biso   1.000  O
  O18      1.0000 0.27022  0.67625  0.46180  Biso   1.000  O
  O19      1.0000 0.53820  0.27022  0.32375  Biso   1.000  O
  O20      1.0000 0.72978  0.67625  0.53820  Biso   1.000  O
  O21      1.0000 0.32375  0.72978  0.53820  Biso   1.000  O
  O22      1.0000 0.67625  0.72978  0.46180  Biso   1.000  O
  O23      1.0000 0.32375  0.27022  0.46180  Biso   1.000  O
  O24      1.0000 0.53820  0.72978  0.67625  Biso   1.000  O
  O25      1.0000 0.03820  0.17625  0.77022  Biso   1.000  O
  O26      1.0000 0.82375  0.03820  0.77022  Biso   1.000  O
  O27      1.0000 0.03820  0.82375  0.22978  Biso   1.000  O
  O28      1.0000 0.77022  0.03820  0.17625  Biso   1.000  O
  O29      1.0000 0.96180  0.82375  0.77022  Biso   1.000  O
  O30      1.0000 0.82375  0.96180  0.22978  Biso   1.000  O
  O31      1.0000 0.17625  0.03820  0.22978  Biso   1.000  O
  O32      1.0000 0.77022  0.82375  0.03820  Biso   1.000  O
  O33      1.0000 0.96180  0.77022  0.17625  Biso   1.000  O
  O34      1.0000 0.22978  0.03820  0.82375  Biso   1.000  O
  O35      1.0000 0.77022  0.96180  0.82375  Biso   1.000  O
  O36      1.0000 0.17625  0.77022  0.03820  Biso   1.000  O
  O37      1.0000 0.17625  0.96180  0.77022  Biso   1.000  O
  O38      1.0000 0.96180  0.17625  0.22978  Biso   1.000  O
  O39      1.0000 0.22978  0.96180  0.17625  Biso   1.000  O
  O40      1.0000 0.22978  0.82375  0.96180  Biso   1.000  O
  O41      1.0000 0.96180  0.22978  0.82375  Biso   1.000  O
  O42      1.0000 0.77022  0.17625  0.96180  Biso   1.000  O
  O43      1.0000 0.03820  0.77022  0.82375  Biso   1.000  O
  O44      1.0000 0.22978  0.17625  0.03820  Biso   1.000  O
  O45      1.0000 0.82375  0.22978  0.03820  Biso   1.000  O
  O46      1.0000 0.17625  0.22978  0.96180  Biso   1.000  O
  O47      1.0000 0.82375  0.77022  0.96180  Biso   1.000  O
  O48      1.0000 0.03820  0.22978  0.17625  Biso   1.000  O
  O49      1.0000 0.46180  0.32375  0.72978  Biso   1.000  O
  O50      1.0000 0.67625  0.46180  0.72978  Biso   1.000  O
  O51      1.0000 0.46180  0.67625  0.27022  Biso   1.000  O
  O52      1.0000 0.72978  0.46180  0.32375  Biso   1.000  O
  O53      1.0000 0.53820  0.67625  0.72978  Biso   1.000  O
  O54      1.0000 0.67625  0.53820  0.27022  Biso   1.000  O
  O55      1.0000 0.32375  0.46180  0.27022  Biso   1.000  O
  O56      1.0000 0.72978  0.67625  0.46180  Biso   1.000  O
  O57      1.0000 0.53820  0.72978  0.32375  Biso   1.000  O
  O58      1.0000 0.27022  0.46180  0.67625  Biso   1.000  O
  O59      1.0000 0.72978  0.53820  0.67625  Biso   1.000  O
  O60      1.0000 0.32375  0.72978  0.46180  Biso   1.000  O
  O61      1.0000 0.32375  0.53820  0.72978  Biso   1.000  O
  O62      1.0000 0.53820  0.32375  0.27022  Biso   1.000  O
  O63      1.0000 0.27022  0.53820  0.32375  Biso   1.000  O
  O64      1.0000 0.27022  0.67625  0.53820  Biso   1.000  O
  O65      1.0000 0.53820  0.27022  0.67625  Biso   1.000  O
  O66      1.0000 0.72978  0.32375  0.53820  Biso   1.000  O
  O67      1.0000 0.46180  0.72978  0.67625  Biso   1.000  O
  O68      1.0000 0.27022  0.32375  0.46180  Biso   1.000  O
  O69      1.0000 0.67625  0.27022  0.46180  Biso   1.000  O
  O70      1.0000 0.32375  0.27022  0.53820  Biso   1.000  O
  O71      1.0000 0.67625  0.72978  0.53820  Biso   1.000  O
  O72      1.0000 0.46180  0.27022  0.32375  Biso   1.000  O
  O73      1.0000 0.96180  0.82375  0.22978  Biso   1.000  O
  O74      1.0000 0.17625  0.96180  0.22978  Biso   1.000  O
  O75      1.0000 0.96180  0.17625  0.77022  Biso   1.000  O
  O76      1.0000 0.22978  0.96180  0.82375  Biso   1.000  O
  O77      1.0000 0.03820  0.17625  0.22978  Biso   1.000  O
  O78      1.0000 0.17625  0.03820  0.77022  Biso   1.000  O
  O79      1.0000 0.82375  0.96180  0.77022  Biso   1.000  O
  O80      1.0000 0.22978  0.17625  0.96180  Biso   1.000  O
  O81      1.0000 0.03820  0.22978  0.82375  Biso   1.000  O
  O82      1.0000 0.77022  0.96180  0.17625  Biso   1.000  O
  O83      1.0000 0.22978  0.03820  0.17625  Biso   1.000  O
  O84      1.0000 0.82375  0.22978  0.96180  Biso   1.000  O
  O85      1.0000 0.82375  0.03820  0.22978  Biso   1.000  O
  O86      1.0000 0.03820  0.82375  0.77022  Biso   1.000  O
  O87      1.0000 0.77022  0.03820  0.82375  Biso   1.000  O
  O88      1.0000 0.77022  0.17625  0.03820  Biso   1.000  O
  O89      1.0000 0.03820  0.77022  0.17625  Biso   1.000  O
  O90      1.0000 0.22978  0.82375  0.03820  Biso   1.000  O
  O91      1.0000 0.96180  0.22978  0.17625  Biso   1.000  O
  O92      1.0000 0.77022  0.82375  0.96180  Biso   1.000  O
  O93      1.0000 0.17625  0.77022  0.96180  Biso   1.000  O
  O94      1.0000 0.82375  0.77022  0.03820  Biso   1.000  O
  O95      1.0000 0.17625  0.22978  0.03820  Biso   1.000  O
  O96      1.0000 0.96180  0.77022  0.82375  Biso   1.000  O
  O97      1.0000 0.53500  0.62980  0.31040  Biso   1.000  O
  O98      1.0000 0.37020  0.53500  0.31040  Biso   1.000  O
  O99      1.0000 0.53500  0.37020  0.68960  Biso   1.000  O
  O100     1.0000 0.31040  0.53500  0.62980  Biso   1.000  O
  O101     1.0000 0.46500  0.37020  0.31040  Biso   1.000  O
  O102     1.0000 0.37020  0.46500  0.68960  Biso   1.000  O
  O103     1.0000 0.62980  0.53500  0.68960  Biso   1.000  O
  O104     1.0000 0.31040  0.37020  0.53500  Biso   1.000  O
  O105     1.0000 0.46500  0.31040  0.62980  Biso   1.000  O
  O106     1.0000 0.68960  0.53500  0.37020  Biso   1.000  O
  O107     1.0000 0.31040  0.46500  0.37020  Biso   1.000  O
  O108     1.0000 0.62980  0.31040  0.53500  Biso   1.000  O
  O109     1.0000 0.62980  0.46500  0.31040  Biso   1.000  O
  O110     1.0000 0.46500  0.62980  0.68960  Biso   1.000  O
  O111     1.0000 0.68960  0.46500  0.62980  Biso   1.000  O
  O112     1.0000 0.68960  0.37020  0.46500  Biso   1.000  O
  O113     1.0000 0.46500  0.68960  0.37020  Biso   1.000  O
  O114     1.0000 0.31040  0.62980  0.46500  Biso   1.000  O
  O115     1.0000 0.53500  0.31040  0.37020  Biso   1.000  O
  O116     1.0000 0.68960  0.62980  0.53500  Biso   1.000  O
  O117     1.0000 0.37020  0.68960  0.53500  Biso   1.000  O
  O118     1.0000 0.62980  0.68960  0.46500  Biso   1.000  O
  O119     1.0000 0.37020  0.31040  0.46500  Biso   1.000  O
  O120     1.0000 0.53500  0.68960  0.62980  Biso   1.000  O
  O121     1.0000 0.03500  0.12980  0.81040  Biso   1.000  O
  O122     1.0000 0.87020  0.03500  0.81040  Biso   1.000  O
  O123     1.0000 0.03500  0.87020  0.18960  Biso   1.000  O
  O124     1.0000 0.81040  0.03500  0.12980  Biso   1.000  O
  O125     1.0000 0.96500  0.87020  0.81040  Biso   1.000  O
  O126     1.0000 0.87020  0.96500  0.18960  Biso   1.000  O
  O127     1.0000 0.12980  0.03500  0.18960  Biso   1.000  O
  O128     1.0000 0.81040  0.87020  0.03500  Biso   1.000  O
  O129     1.0000 0.96500  0.81040  0.12980  Biso   1.000  O
  O130     1.0000 0.18960  0.03500  0.87020  Biso   1.000  O
  O131     1.0000 0.81040  0.96500  0.87020  Biso   1.000  O
  O132     1.0000 0.12980  0.81040  0.03500  Biso   1.000  O
  O133     1.0000 0.12980  0.96500  0.81040  Biso   1.000  O
  O134     1.0000 0.96500  0.12980  0.18960  Biso   1.000  O
  O135     1.0000 0.18960  0.96500  0.12980  Biso   1.000  O
  O136     1.0000 0.18960  0.87020  0.96500  Biso   1.000  O
  O137     1.0000 0.96500  0.18960  0.87020  Biso   1.000  O
  O138     1.0000 0.81040  0.12980  0.96500  Biso   1.000  O
  O139     1.0000 0.03500  0.81040  0.87020  Biso   1.000  O
  O140     1.0000 0.18960  0.12980  0.03500  Biso   1.000  O
  O141     1.0000 0.87020  0.18960  0.03500  Biso   1.000  O
  O142     1.0000 0.12980  0.18960  0.96500  Biso   1.000  O
  O143     1.0000 0.87020  0.81040  0.96500  Biso   1.000  O
  O144     1.0000 0.03500  0.18960  0.12980  Biso   1.000  O
  O145     1.0000 0.46500  0.37020  0.68960  Biso   1.000  O
  O146     1.0000 0.62980  0.46500  0.68960  Biso   1.000  O
  O147     1.0000 0.46500  0.62980  0.31040  Biso   1.000  O
  O148     1.0000 0.68960  0.46500  0.37020  Biso   1.000  O
  O149     1.0000 0.53500  0.62980  0.68960  Biso   1.000  O
  O150     1.0000 0.62980  0.53500  0.31040  Biso   1.000  O
  O151     1.0000 0.37020  0.46500  0.31040  Biso   1.000  O
  O152     1.0000 0.68960  0.62980  0.46500  Biso   1.000  O
  O153     1.0000 0.53500  0.68960  0.37020  Biso   1.000  O
  O154     1.0000 0.31040  0.46500  0.62980  Biso   1.000  O
  O155     1.0000 0.68960  0.53500  0.62980  Biso   1.000  O
  O156     1.0000 0.37020  0.68960  0.46500  Biso   1.000  O
  O157     1.0000 0.37020  0.53500  0.68960  Biso   1.000  O
  O158     1.0000 0.53500  0.37020  0.31040  Biso   1.000  O
  O159     1.0000 0.31040  0.53500  0.37020  Biso   1.000  O
  O160     1.0000 0.31040  0.62980  0.53500  Biso   1.000  O
  O161     1.0000 0.53500  0.31040  0.62980  Biso   1.000  O
  O162     1.0000 0.68960  0.37020  0.53500  Biso   1.000  O
  O163     1.0000 0.46500  0.68960  0.62980  Biso   1.000  O
  O164     1.0000 0.31040  0.37020  0.46500  Biso   1.000  O
  O165     1.0000 0.62980  0.31040  0.46500  Biso   1.000  O
  O166     1.0000 0.37020  0.31040  0.53500  Biso   1.000  O
  O167     1.0000 0.62980  0.68960  0.53500  Biso   1.000  O
  O168     1.0000 0.46500  0.31040  0.37020  Biso   1.000  O
  O169     1.0000 0.96500  0.87020  0.18960  Biso   1.000  O
  O170     1.0000 0.12980  0.96500  0.18960  Biso   1.000  O
  O171     1.0000 0.96500  0.12980  0.81040  Biso   1.000  O
  O172     1.0000 0.18960  0.96500  0.87020  Biso   1.000  O
  O173     1.0000 0.03500  0.12980  0.18960  Biso   1.000  O
  O174     1.0000 0.12980  0.03500  0.81040  Biso   1.000  O
  O175     1.0000 0.87020  0.96500  0.81040  Biso   1.000  O
  O176     1.0000 0.18960  0.12980  0.96500  Biso   1.000  O
  O177     1.0000 0.03500  0.18960  0.87020  Biso   1.000  O
  O178     1.0000 0.81040  0.96500  0.12980  Biso   1.000  O
  O179     1.0000 0.18960  0.03500  0.12980  Biso   1.000  O
  O180     1.0000 0.87020  0.18960  0.96500  Biso   1.000  O
  O181     1.0000 0.87020  0.03500  0.18960  Biso   1.000  O
  O182     1.0000 0.03500  0.87020  0.81040  Biso   1.000  O
  O183     1.0000 0.81040  0.03500  0.87020  Biso   1.000  O
  O184     1.0000 0.81040  0.12980  0.03500  Biso   1.000  O
  O185     1.0000 0.03500  0.81040  0.12980  Biso   1.000  O
  O186     1.0000 0.18960  0.87020  0.03500  Biso   1.000  O
  O187     1.0000 0.96500  0.18960  0.12980  Biso   1.000  O
  O188     1.0000 0.81040  0.87020  0.96500  Biso   1.000  O
  O189     1.0000 0.12980  0.81040  0.96500  Biso   1.000  O
  O190     1.0000 0.87020  0.81040  0.03500  Biso   1.000  O
  O191     1.0000 0.12980  0.18960  0.03500  Biso   1.000  O
  O192     1.0000 0.96500  0.81040  0.87020  Biso   1.000  O
  O193     1.0000 0.68280  0.74038  0.08887  Biso   1.000  O
  O194     1.0000 0.25962  0.68280  0.08887  Biso   1.000  O
  O195     1.0000 0.68280  0.25962  0.91113  Biso   1.000  O
  O196     1.0000 0.08887  0.68280  0.74038  Biso   1.000  O
  O197     1.0000 0.31720  0.25962  0.08887  Biso   1.000  O
  O198     1.0000 0.25962  0.31720  0.91113  Biso   1.000  O
  O199     1.0000 0.74038  0.68280  0.91113  Biso   1.000  O
  O200     1.0000 0.08887  0.25962  0.68280  Biso   1.000  O
  O201     1.0000 0.31720  0.08887  0.74038  Biso   1.000  O
  O202     1.0000 0.91113  0.68280  0.25962  Biso   1.000  O
  O203     1.0000 0.08887  0.31720  0.25962  Biso   1.000  O
  O204     1.0000 0.74038  0.08887  0.68280  Biso   1.000  O
  O205     1.0000 0.74038  0.31720  0.08887  Biso   1.000  O
  O206     1.0000 0.31720  0.74038  0.91113  Biso   1.000  O
  O207     1.0000 0.91113  0.31720  0.74038  Biso   1.000  O
  O208     1.0000 0.91113  0.25962  0.31720  Biso   1.000  O
  O209     1.0000 0.31720  0.91113  0.25962  Biso   1.000  O
  O210     1.0000 0.08887  0.74038  0.31720  Biso   1.000  O
  O211     1.0000 0.68280  0.08887  0.25962  Biso   1.000  O
  O212     1.0000 0.91113  0.74038  0.68280  Biso   1.000  O
  O213     1.0000 0.25962  0.91113  0.68280  Biso   1.000  O
  O214     1.0000 0.74038  0.91113  0.31720  Biso   1.000  O
  O215     1.0000 0.25962  0.08887  0.31720  Biso   1.000  O
  O216     1.0000 0.68280  0.91113  0.74038  Biso   1.000  O
  O217     1.0000 0.18280  0.24038  0.58887  Biso   1.000  O
  O218     1.0000 0.75962  0.18280  0.58887  Biso   1.000  O
  O219     1.0000 0.18280  0.75962  0.41113  Biso   1.000  O
  O220     1.0000 0.58887  0.18280  0.24038  Biso   1.000  O
  O221     1.0000 0.81720  0.75962  0.58887  Biso   1.000  O
  O222     1.0000 0.75962  0.81720  0.41113  Biso   1.000  O
  O223     1.0000 0.24038  0.18280  0.41113  Biso   1.000  O
  O224     1.0000 0.58887  0.75962  0.18280  Biso   1.000  O
  O225     1.0000 0.81720  0.58887  0.24038  Biso   1.000  O
  O226     1.0000 0.41113  0.18280  0.75962  Biso   1.000  O
  O227     1.0000 0.58887  0.81720  0.75962  Biso   1.000  O
  O228     1.0000 0.24038  0.58887  0.18280  Biso   1.000  O
  O229     1.0000 0.24038  0.81720  0.58887  Biso   1.000  O
  O230     1.0000 0.81720  0.24038  0.41113  Biso   1.000  O
  O231     1.0000 0.41113  0.81720  0.24038  Biso   1.000  O
  O232     1.0000 0.41113  0.75962  0.81720  Biso   1.000  O
  O233     1.0000 0.81720  0.41113  0.75962  Biso   1.000  O
  O234     1.0000 0.58887  0.24038  0.81720  Biso   1.000  O
  O235     1.0000 0.18280  0.58887  0.75962  Biso   1.000  O
  O236     1.0000 0.41113  0.24038  0.18280  Biso   1.000  O
  O237     1.0000 0.75962  0.41113  0.18280  Biso   1.000  O
  O238     1.0000 0.24038  0.41113  0.81720  Biso   1.000  O
  O239     1.0000 0.75962  0.58887  0.81720  Biso   1.000  O
  O240     1.0000 0.18280  0.41113  0.24038  Biso   1.000  O
  O241     1.0000 0.31720  0.25962  0.91113  Biso   1.000  O
  O242     1.0000 0.74038  0.31720  0.91113  Biso   1.000  O
  O243     1.0000 0.31720  0.74038  0.08887  Biso   1.000  O
  O244     1.0000 0.91113  0.31720  0.25962  Biso   1.000  O
  O245     1.0000 0.68280  0.74038  0.91113  Biso   1.000  O
  O246     1.0000 0.74038  0.68280  0.08887  Biso   1.000  O
  O247     1.0000 0.25962  0.31720  0.08887  Biso   1.000  O
  O248     1.0000 0.91113  0.74038  0.31720  Biso   1.000  O
  O249     1.0000 0.68280  0.91113  0.25962  Biso   1.000  O
  O250     1.0000 0.08887  0.31720  0.74038  Biso   1.000  O
  O251     1.0000 0.91113  0.68280  0.74038  Biso   1.000  O
  O252     1.0000 0.25962  0.91113  0.31720  Biso   1.000  O
  O253     1.0000 0.25962  0.68280  0.91113  Biso   1.000  O
  O254     1.0000 0.68280  0.25962  0.08887  Biso   1.000  O
  O255     1.0000 0.08887  0.68280  0.25962  Biso   1.000  O
  O256     1.0000 0.08887  0.74038  0.68280  Biso   1.000  O
  O257     1.0000 0.68280  0.08887  0.74038  Biso   1.000  O
  O258     1.0000 0.91113  0.25962  0.68280  Biso   1.000  O
  O259     1.0000 0.31720  0.91113  0.74038  Biso   1.000  O
  O260     1.0000 0.08887  0.25962  0.31720  Biso   1.000  O
  O261     1.0000 0.74038  0.08887  0.31720  Biso   1.000  O
  O262     1.0000 0.25962  0.08887  0.68280  Biso   1.000  O
  O263     1.0000 0.74038  0.91113  0.68280  Biso   1.000  O
  O264     1.0000 0.31720  0.08887  0.25962  Biso   1.000  O
  O265     1.0000 0.81720  0.75962  0.41113  Biso   1.000  O
  O266     1.0000 0.24038  0.81720  0.41113  Biso   1.000  O
  O267     1.0000 0.81720  0.24038  0.58887  Biso   1.000  O
  O268     1.0000 0.41113  0.81720  0.75962  Biso   1.000  O
  O269     1.0000 0.18280  0.24038  0.41113  Biso   1.000  O
  O270     1.0000 0.24038  0.18280  0.58887  Biso   1.000  O
  O271     1.0000 0.75962  0.81720  0.58887  Biso   1.000  O
  O272     1.0000 0.41113  0.24038  0.81720  Biso   1.000  O
  O273     1.0000 0.18280  0.41113  0.75962  Biso   1.000  O
  O274     1.0000 0.58887  0.81720  0.24038  Biso   1.000  O
  O275     1.0000 0.41113  0.18280  0.24038  Biso   1.000  O
  O276     1.0000 0.75962  0.41113  0.81720  Biso   1.000  O
  O277     1.0000 0.75962  0.18280  0.41113  Biso   1.000  O
  O278     1.0000 0.18280  0.75962  0.58887  Biso   1.000  O
  O279     1.0000 0.58887  0.18280  0.75962  Biso   1.000  O
  O280     1.0000 0.58887  0.24038  0.18280  Biso   1.000  O
  O281     1.0000 0.18280  0.58887  0.24038  Biso   1.000  O
  O282     1.0000 0.41113  0.75962  0.18280  Biso   1.000  O
  O283     1.0000 0.81720  0.41113  0.24038  Biso   1.000  O
  O284     1.0000 0.58887  0.75962  0.81720  Biso   1.000  O
  O285     1.0000 0.24038  0.58887  0.81720  Biso   1.000  O
  O286     1.0000 0.75962  0.58887  0.18280  Biso   1.000  O
  O287     1.0000 0.24038  0.41113  0.18280  Biso   1.000  O
  O288     1.0000 0.81720  0.58887  0.75962  Biso   1.000  O
  O289     1.0000 0.50000  0.61374  0.38626  Biso   1.000  O
  O290     1.0000 0.38626  0.50000  0.38626  Biso   1.000  O
  O291     1.0000 0.50000  0.38626  0.61374  Biso   1.000  O
  O292     1.0000 0.38626  0.50000  0.61374  Biso   1.000  O
  O293     1.0000 0.50000  0.38626  0.38626  Biso   1.000  O
  O294     1.0000 0.61374  0.50000  0.61374  Biso   1.000  O
  O295     1.0000 0.38626  0.38626  0.50000  Biso   1.000  O
  O296     1.0000 0.61374  0.50000  0.38626  Biso   1.000  O
  O297     1.0000 0.61374  0.38626  0.50000  Biso   1.000  O
  O298     1.0000 0.50000  0.61374  0.61374  Biso   1.000  O
  O299     1.0000 0.38626  0.61374  0.50000  Biso   1.000  O
  O300     1.0000 0.61374  0.61374  0.50000  Biso   1.000  O
  O301     1.0000 0.00000  0.11374  0.88626  Biso   1.000  O
  O302     1.0000 0.88626  0.00000  0.88626  Biso   1.000  O
  O303     1.0000 0.00000  0.88626  0.11374  Biso   1.000  O
  O304     1.0000 0.88626  0.00000  0.11374  Biso   1.000  O
  O305     1.0000 0.00000  0.88626  0.88626  Biso   1.000  O
  O306     1.0000 0.11374  0.00000  0.11374  Biso   1.000  O
  O307     1.0000 0.88626  0.88626  0.00000  Biso   1.000  O
  O308     1.0000 0.11374  0.00000  0.88626  Biso   1.000  O
  O309     1.0000 0.11374  0.88626  0.00000  Biso   1.000  O
  O310     1.0000 0.00000  0.11374  0.11374  Biso   1.000  O
  O311     1.0000 0.88626  0.11374  0.00000  Biso   1.000  O
  O312     1.0000 0.11374  0.11374  0.00000  Biso   1.000  O
  N1       1.0000 0.75109  0.75109  0.00000  Biso   1.000  N
  N2       1.0000 0.24891  0.75109  0.00000  Biso   1.000  N
  N3       1.0000 0.75109  0.24891  0.00000  Biso   1.000  N
  N4       1.0000 0.00000  0.75109  0.75109  Biso   1.000  N
  N5       1.0000 0.24891  0.24891  0.00000  Biso   1.000  N
  N6       1.0000 0.00000  0.24891  0.75109  Biso   1.000  N
  N7       1.0000 0.24891  0.00000  0.75109  Biso   1.000  N
  N8       1.0000 0.00000  0.75109  0.24891  Biso   1.000  N
  N9       1.0000 0.00000  0.24891  0.24891  Biso   1.000  N
  N10      1.0000 0.75109  0.00000  0.75109  Biso   1.000  N
  N11      1.0000 0.24891  0.00000  0.24891  Biso   1.000  N
  N12      1.0000 0.75109  0.00000  0.24891  Biso   1.000  N
  N13      1.0000 0.25109  0.25109  0.50000  Biso   1.000  N
  N14      1.0000 0.74891  0.25109  0.50000  Biso   1.000  N
  N15      1.0000 0.25109  0.74891  0.50000  Biso   1.000  N
  N16      1.0000 0.50000  0.25109  0.25109  Biso   1.000  N
  N17      1.0000 0.74891  0.74891  0.50000  Biso   1.000  N
  N18      1.0000 0.50000  0.74891  0.25109  Biso   1.000  N
  N19      1.0000 0.74891  0.50000  0.25109  Biso   1.000  N
  N20      1.0000 0.50000  0.25109  0.74891  Biso   1.000  N
  N21      1.0000 0.50000  0.74891  0.74891  Biso   1.000  N
  N22      1.0000 0.25109  0.50000  0.25109  Biso   1.000  N
  N23      1.0000 0.74891  0.50000  0.74891  Biso   1.000  N
  N24      1.0000 0.25109  0.50000  0.74891  Biso   1.000  N
  N25      1.0000 0.67734  0.67734  0.07657  Biso   1.000  N
  N26      1.0000 0.32266  0.67734  0.07657  Biso   1.000  N
  N27      1.0000 0.67734  0.32266  0.92343  Biso   1.000  N
  N28      1.0000 0.07657  0.67734  0.67734  Biso   1.000  N
  N29      1.0000 0.32266  0.32266  0.07657  Biso   1.000  N
  N30      1.0000 0.32266  0.32266  0.92343  Biso   1.000  N
  N31      1.0000 0.67734  0.67734  0.92343  Biso   1.000  N
  N32      1.0000 0.07657  0.32266  0.67734  Biso   1.000  N
  N33      1.0000 0.32266  0.07657  0.67734  Biso   1.000  N
  N34      1.0000 0.92343  0.67734  0.32266  Biso   1.000  N
  N35      1.0000 0.07657  0.32266  0.32266  Biso   1.000  N
  N36      1.0000 0.67734  0.07657  0.67734  Biso   1.000  N
  N37      1.0000 0.67734  0.32266  0.07657  Biso   1.000  N
  N38      1.0000 0.32266  0.67734  0.92343  Biso   1.000  N
  N39      1.0000 0.92343  0.32266  0.67734  Biso   1.000  N
  N40      1.0000 0.92343  0.32266  0.32266  Biso   1.000  N
  N41      1.0000 0.32266  0.92343  0.32266  Biso   1.000  N
  N42      1.0000 0.07657  0.67734  0.32266  Biso   1.000  N
  N43      1.0000 0.67734  0.07657  0.32266  Biso   1.000  N
  N44      1.0000 0.92343  0.67734  0.67734  Biso   1.000  N
  N45      1.0000 0.32266  0.92343  0.67734  Biso   1.000  N
  N46      1.0000 0.67734  0.92343  0.32266  Biso   1.000  N
  N47      1.0000 0.32266  0.07657  0.32266  Biso   1.000  N
  N48      1.0000 0.67734  0.92343  0.67734  Biso   1.000  N
  N49      1.0000 0.17734  0.17734  0.57657  Biso   1.000  N
  N50      1.0000 0.82266  0.17734  0.57657  Biso   1.000  N
  N51      1.0000 0.17734  0.82266  0.42343  Biso   1.000  N
  N52      1.0000 0.57657  0.17734  0.17734  Biso   1.000  N
  N53      1.0000 0.82266  0.82266  0.57657  Biso   1.000  N
  N54      1.0000 0.82266  0.82266  0.42343  Biso   1.000  N
  N55      1.0000 0.17734  0.17734  0.42343  Biso   1.000  N
  N56      1.0000 0.57657  0.82266  0.17734  Biso   1.000  N
  N57      1.0000 0.82266  0.57657  0.17734  Biso   1.000  N
  N58      1.0000 0.42343  0.17734  0.82266  Biso   1.000  N
  N59      1.0000 0.57657  0.82266  0.82266  Biso   1.000  N
  N60      1.0000 0.17734  0.57657  0.17734  Biso   1.000  N
  N61      1.0000 0.17734  0.82266  0.57657  Biso   1.000  N
  N62      1.0000 0.82266  0.17734  0.42343  Biso   1.000  N
  N63      1.0000 0.42343  0.82266  0.17734  Biso   1.000  N
  N64      1.0000 0.42343  0.82266  0.82266  Biso   1.000  N
  N65      1.0000 0.82266  0.42343  0.82266  Biso   1.000  N
  N66      1.0000 0.57657  0.17734  0.82266  Biso   1.000  N
  N67      1.0000 0.17734  0.57657  0.82266  Biso   1.000  N
  N68      1.0000 0.42343  0.17734  0.17734  Biso   1.000  N
  N69      1.0000 0.82266  0.42343  0.17734  Biso   1.000  N
  N70      1.0000 0.17734  0.42343  0.82266  Biso   1.000  N
  N71      1.0000 0.82266  0.57657  0.82266  Biso   1.000  N
  N72      1.0000 0.17734  0.42343  0.17734  Biso   1.000  N
  C1       1.0000 0.55008  0.64712  0.28493  Biso   1.000  C
  C2       1.0000 0.35288  0.55008  0.28493  Biso   1.000  C
  C3       1.0000 0.55008  0.35288  0.71507  Biso   1.000  C
  C4       1.0000 0.28493  0.55008  0.64712  Biso   1.000  C
  C5       1.0000 0.44992  0.35288  0.28493  Biso   1.000  C
  C6       1.0000 0.35288  0.44992  0.71507  Biso   1.000  C
  C7       1.0000 0.64712  0.55008  0.71507  Biso   1.000  C
  C8       1.0000 0.28493  0.35288  0.55008  Biso   1.000  C
  C9       1.0000 0.44992  0.28493  0.64712  Biso   1.000  C
  C10      1.0000 0.71507  0.55008  0.35288  Biso   1.000  C
  C11      1.0000 0.28493  0.44992  0.35288  Biso   1.000  C
  C12      1.0000 0.64712  0.28493  0.55008  Biso   1.000  C
  C13      1.0000 0.64712  0.44992  0.28493  Biso   1.000  C
  C14      1.0000 0.44992  0.64712  0.71507  Biso   1.000  C
  C15      1.0000 0.71507  0.44992  0.64712  Biso   1.000  C
  C16      1.0000 0.71507  0.35288  0.44992  Biso   1.000  C
  C17      1.0000 0.44992  0.71507  0.35288  Biso   1.000  C
  C18      1.0000 0.28493  0.64712  0.44992  Biso   1.000  C
  C19      1.0000 0.55008  0.28493  0.35288  Biso   1.000  C
  C20      1.0000 0.71507  0.64712  0.55008  Biso   1.000  C
  C21      1.0000 0.35288  0.71507  0.55008  Biso   1.000  C
  C22      1.0000 0.64712  0.71507  0.44992  Biso   1.000  C
  C23      1.0000 0.35288  0.28493  0.44992  Biso   1.000  C
  C24      1.0000 0.55008  0.71507  0.64712  Biso   1.000  C
  C25      1.0000 0.05008  0.14712  0.78493  Biso   1.000  C
  C26      1.0000 0.85288  0.05008  0.78493  Biso   1.000  C
  C27      1.0000 0.05008  0.85288  0.21507  Biso   1.000  C
  C28      1.0000 0.78493  0.05008  0.14712  Biso   1.000  C
  C29      1.0000 0.94992  0.85288  0.78493  Biso   1.000  C
  C30      1.0000 0.85288  0.94992  0.21507  Biso   1.000  C
  C31      1.0000 0.14712  0.05008  0.21507  Biso   1.000  C
  C32      1.0000 0.78493  0.85288  0.05008  Biso   1.000  C
  C33      1.0000 0.94992  0.78493  0.14712  Biso   1.000  C
  C34      1.0000 0.21507  0.05008  0.85288  Biso   1.000  C
  C35      1.0000 0.78493  0.94992  0.85288  Biso   1.000  C
  C36      1.0000 0.14712  0.78493  0.05008  Biso   1.000  C
  C37      1.0000 0.14712  0.94992  0.78493  Biso   1.000  C
  C38      1.0000 0.94992  0.14712  0.21507  Biso   1.000  C
  C39      1.0000 0.21507  0.94992  0.14712  Biso   1.000  C
  C40      1.0000 0.21507  0.85288  0.94992  Biso   1.000  C
  C41      1.0000 0.94992  0.21507  0.85288  Biso   1.000  C
  C42      1.0000 0.78493  0.14712  0.94992  Biso   1.000  C
  C43      1.0000 0.05008  0.78493  0.85288  Biso   1.000  C
  C44      1.0000 0.21507  0.14712  0.05008  Biso   1.000  C
  C45      1.0000 0.85288  0.21507  0.05008  Biso   1.000  C
  C46      1.0000 0.14712  0.21507  0.94992  Biso   1.000  C
  C47      1.0000 0.85288  0.78493  0.94992  Biso   1.000  C
  C48      1.0000 0.05008  0.21507  0.14712  Biso   1.000  C
  C49      1.0000 0.44992  0.35288  0.71507  Biso   1.000  C
  C50      1.0000 0.64712  0.44992  0.71507  Biso   1.000  C
  C51      1.0000 0.44992  0.64712  0.28493  Biso   1.000  C
  C52      1.0000 0.71507  0.44992  0.35288  Biso   1.000  C
  C53      1.0000 0.55008  0.64712  0.71507  Biso   1.000  C
  C54      1.0000 0.64712  0.55008  0.28493  Biso   1.000  C
  C55      1.0000 0.35288  0.44992  0.28493  Biso   1.000  C
  C56      1.0000 0.71507  0.64712  0.44992  Biso   1.000  C
  C57      1.0000 0.55008  0.71507  0.35288  Biso   1.000  C
  C58      1.0000 0.28493  0.44992  0.64712  Biso   1.000  C
  C59      1.0000 0.71507  0.55008  0.64712  Biso   1.000  C
  C60      1.0000 0.35288  0.71507  0.44992  Biso   1.000  C
  C61      1.0000 0.35288  0.55008  0.71507  Biso   1.000  C
  C62      1.0000 0.55008  0.35288  0.28493  Biso   1.000  C
  C63      1.0000 0.28493  0.55008  0.35288  Biso   1.000  C
  C64      1.0000 0.28493  0.64712  0.55008  Biso   1.000  C
  C65      1.0000 0.55008  0.28493  0.64712  Biso   1.000  C
  C66      1.0000 0.71507  0.35288  0.55008  Biso   1.000  C
  C67      1.0000 0.44992  0.71507  0.64712  Biso   1.000  C
  C68      1.0000 0.28493  0.35288  0.44992  Biso   1.000  C
  C69      1.0000 0.64712  0.28493  0.44992  Biso   1.000  C
  C70      1.0000 0.35288  0.28493  0.55008  Biso   1.000  C
  C71      1.0000 0.64712  0.71507  0.55008  Biso   1.000  C
  C72      1.0000 0.44992  0.28493  0.35288  Biso   1.000  C
  C73      1.0000 0.94992  0.85288  0.21507  Biso   1.000  C
  C74      1.0000 0.14712  0.94992  0.21507  Biso   1.000  C
  C75      1.0000 0.94992  0.14712  0.78493  Biso   1.000  C
  C76      1.0000 0.21507  0.94992  0.85288  Biso   1.000  C
  C77      1.0000 0.05008  0.14712  0.21507  Biso   1.000  C
  C78      1.0000 0.14712  0.05008  0.78493  Biso   1.000  C
  C79      1.0000 0.85288  0.94992  0.78493  Biso   1.000  C
  C80      1.0000 0.21507  0.14712  0.94992  Biso   1.000  C
  C81      1.0000 0.05008  0.21507  0.85288  Biso   1.000  C
  C82      1.0000 0.78493  0.94992  0.14712  Biso   1.000  C
  C83      1.0000 0.21507  0.05008  0.14712  Biso   1.000  C
  C84      1.0000 0.85288  0.21507  0.94992  Biso   1.000  C
  C85      1.0000 0.85288  0.05008  0.21507  Biso   1.000  C
  C86      1.0000 0.05008  0.85288  0.78493  Biso   1.000  C
  C87      1.0000 0.78493  0.05008  0.85288  Biso   1.000  C
  C88      1.0000 0.78493  0.14712  0.05008  Biso   1.000  C
  C89      1.0000 0.05008  0.78493  0.14712  Biso   1.000  C
  C90      1.0000 0.21507  0.85288  0.05008  Biso   1.000  C
  C91      1.0000 0.94992  0.21507  0.14712  Biso   1.000  C
  C92      1.0000 0.78493  0.85288  0.94992  Biso   1.000  C
  C93      1.0000 0.14712  0.78493  0.94992  Biso   1.000  C
  C94      1.0000 0.85288  0.78493  0.05008  Biso   1.000  C
  C95      1.0000 0.14712  0.21507  0.05008  Biso   1.000  C
  C96      1.0000 0.94992  0.78493  0.85288  Biso   1.000  C
  C97      1.0000 0.59770  0.59770  0.28230  Biso   1.000  C
  C98      1.0000 0.40230  0.59770  0.28230  Biso   1.000  C
  C99      1.0000 0.59770  0.40230  0.71770  Biso   1.000  C
  C100     1.0000 0.28230  0.59770  0.59770  Biso   1.000  C
  C101     1.0000 0.40230  0.40230  0.28230  Biso   1.000  C
  C102     1.0000 0.40230  0.40230  0.71770  Biso   1.000  C
  C103     1.0000 0.59770  0.59770  0.71770  Biso   1.000  C
  C104     1.0000 0.28230  0.40230  0.59770  Biso   1.000  C
  C105     1.0000 0.40230  0.28230  0.59770  Biso   1.000  C
  C106     1.0000 0.71770  0.59770  0.40230  Biso   1.000  C
  C107     1.0000 0.28230  0.40230  0.40230  Biso   1.000  C
  C108     1.0000 0.59770  0.28230  0.59770  Biso   1.000  C
  C109     1.0000 0.59770  0.40230  0.28230  Biso   1.000  C
  C110     1.0000 0.40230  0.59770  0.71770  Biso   1.000  C
  C111     1.0000 0.71770  0.40230  0.59770  Biso   1.000  C
  C112     1.0000 0.71770  0.40230  0.40230  Biso   1.000  C
  C113     1.0000 0.40230  0.71770  0.40230  Biso   1.000  C
  C114     1.0000 0.28230  0.59770  0.40230  Biso   1.000  C
  C115     1.0000 0.59770  0.28230  0.40230  Biso   1.000  C
  C116     1.0000 0.71770  0.59770  0.59770  Biso   1.000  C
  C117     1.0000 0.40230  0.71770  0.59770  Biso   1.000  C
  C118     1.0000 0.59770  0.71770  0.40230  Biso   1.000  C
  C119     1.0000 0.40230  0.28230  0.40230  Biso   1.000  C
  C120     1.0000 0.59770  0.71770  0.59770  Biso   1.000  C
  C121     1.0000 0.09770  0.09770  0.78230  Biso   1.000  C
  C122     1.0000 0.90230  0.09770  0.78230  Biso   1.000  C
  C123     1.0000 0.09770  0.90230  0.21770  Biso   1.000  C
  C124     1.0000 0.78230  0.09770  0.09770  Biso   1.000  C
  C125     1.0000 0.90230  0.90230  0.78230  Biso   1.000  C
  C126     1.0000 0.90230  0.90230  0.21770  Biso   1.000  C
  C127     1.0000 0.09770  0.09770  0.21770  Biso   1.000  C
  C128     1.0000 0.78230  0.90230  0.09770  Biso   1.000  C
  C129     1.0000 0.90230  0.78230  0.09770  Biso   1.000  C
  C130     1.0000 0.21770  0.09770  0.90230  Biso   1.000  C
  C131     1.0000 0.78230  0.90230  0.90230  Biso   1.000  C
  C132     1.0000 0.09770  0.78230  0.09770  Biso   1.000  C
  C133     1.0000 0.09770  0.90230  0.78230  Biso   1.000  C
  C134     1.0000 0.90230  0.09770  0.21770  Biso   1.000  C
  C135     1.0000 0.21770  0.90230  0.09770  Biso   1.000  C
  C136     1.0000 0.21770  0.90230  0.90230  Biso   1.000  C
  C137     1.0000 0.90230  0.21770  0.90230  Biso   1.000  C
  C138     1.0000 0.78230  0.09770  0.90230  Biso   1.000  C
  C139     1.0000 0.09770  0.78230  0.90230  Biso   1.000  C
  C140     1.0000 0.21770  0.09770  0.09770  Biso   1.000  C
  C141     1.0000 0.90230  0.21770  0.09770  Biso   1.000  C
  C142     1.0000 0.09770  0.21770  0.90230  Biso   1.000  C
  C143     1.0000 0.90230  0.78230  0.90230  Biso   1.000  C
  C144     1.0000 0.09770  0.21770  0.09770  Biso   1.000  C
  H1       1.0000 0.58870  0.58870  0.30460  Biso   1.000  H
  H2       1.0000 0.41130  0.58870  0.30460  Biso   1.000  H
  H3       1.0000 0.58870  0.41130  0.69540  Biso   1.000  H
  H4       1.0000 0.30460  0.58870  0.58870  Biso   1.000  H
  H5       1.0000 0.41130  0.41130  0.30460  Biso   1.000  H
  H6       1.0000 0.41130  0.41130  0.69540  Biso   1.000  H
  H7       1.0000 0.58870  0.58870  0.69540  Biso   1.000  H
  H8       1.0000 0.30460  0.41130  0.58870  Biso   1.000  H
  H9       1.0000 0.41130  0.30460  0.58870  Biso   1.000  H
  H10      1.0000 0.69540  0.58870  0.41130  Biso   1.000  H
  H11      1.0000 0.30460  0.41130  0.41130  Biso   1.000  H
  H12      1.0000 0.58870  0.30460  0.58870  Biso   1.000  H
  H13      1.0000 0.58870  0.41130  0.30460  Biso   1.000  H
  H14      1.0000 0.41130  0.58870  0.69540  Biso   1.000  H
  H15      1.0000 0.69540  0.41130  0.58870  Biso   1.000  H
  H16      1.0000 0.69540  0.41130  0.41130  Biso   1.000  H
  H17      1.0000 0.41130  0.69540  0.41130  Biso   1.000  H
  H18      1.0000 0.30460  0.58870  0.41130  Biso   1.000  H
  H19      1.0000 0.58870  0.30460  0.41130  Biso   1.000  H
  H20      1.0000 0.69540  0.58870  0.58870  Biso   1.000  H
  H21      1.0000 0.41130  0.69540  0.58870  Biso   1.000  H
  H22      1.0000 0.58870  0.69540  0.41130  Biso   1.000  H
  H23      1.0000 0.41130  0.30460  0.41130  Biso   1.000  H
  H24      1.0000 0.58870  0.69540  0.58870  Biso   1.000  H
  H25      1.0000 0.08870  0.08870  0.80460  Biso   1.000  H
  H26      1.0000 0.91130  0.08870  0.80460  Biso   1.000  H
  H27      1.0000 0.08870  0.91130  0.19540  Biso   1.000  H
  H28      1.0000 0.80460  0.08870  0.08870  Biso   1.000  H
  H29      1.0000 0.91130  0.91130  0.80460  Biso   1.000  H
  H30      1.0000 0.91130  0.91130  0.19540  Biso   1.000  H
  H31      1.0000 0.08870  0.08870  0.19540  Biso   1.000  H
  H32      1.0000 0.80460  0.91130  0.08870  Biso   1.000  H
  H33      1.0000 0.91130  0.80460  0.08870  Biso   1.000  H
  H34      1.0000 0.19540  0.08870  0.91130  Biso   1.000  H
  H35      1.0000 0.80460  0.91130  0.91130  Biso   1.000  H
  H36      1.0000 0.08870  0.80460  0.08870  Biso   1.000  H
  H37      1.0000 0.08870  0.91130  0.80460  Biso   1.000  H
  H38      1.0000 0.91130  0.08870  0.19540  Biso   1.000  H
  H39      1.0000 0.19540  0.91130  0.08870  Biso   1.000  H
  H40      1.0000 0.19540  0.91130  0.91130  Biso   1.000  H
  H41      1.0000 0.91130  0.19540  0.91130  Biso   1.000  H
  H42      1.0000 0.80460  0.08870  0.91130  Biso   1.000  H
  H43      1.0000 0.08870  0.80460  0.91130  Biso   1.000  H
  H44      1.0000 0.19540  0.08870  0.08870  Biso   1.000  H
  H45      1.0000 0.91130  0.19540  0.08870  Biso   1.000  H
  H46      1.0000 0.08870  0.19540  0.91130  Biso   1.000  H
  H47      1.0000 0.91130  0.80460  0.91130  Biso   1.000  H
  H48      1.0000 0.08870  0.19540  0.08870  Biso   1.000  H
  C145     1.0000 0.58090  0.62794  0.26574  Biso   1.000  C
  C146     1.0000 0.37206  0.58090  0.26574  Biso   1.000  C
  C147     1.0000 0.58090  0.37206  0.73426  Biso   1.000  C
  C148     1.0000 0.26574  0.58090  0.62794  Biso   1.000  C
  C149     1.0000 0.41910  0.37206  0.26574  Biso   1.000  C
  C150     1.0000 0.37206  0.41910  0.73426  Biso   1.000  C
  C151     1.0000 0.62794  0.58090  0.73426  Biso   1.000  C
  C152     1.0000 0.26574  0.37206  0.58090  Biso   1.000  C
  C153     1.0000 0.41910  0.26574  0.62794  Biso   1.000  C
  C154     1.0000 0.73426  0.58090  0.37206  Biso   1.000  C
  C155     1.0000 0.26574  0.41910  0.37206  Biso   1.000  C
  C156     1.0000 0.62794  0.26574  0.58090  Biso   1.000  C
  C157     1.0000 0.62794  0.41910  0.26574  Biso   1.000  C
  C158     1.0000 0.41910  0.62794  0.73426  Biso   1.000  C
  C159     1.0000 0.73426  0.41910  0.62794  Biso   1.000  C
  C160     1.0000 0.73426  0.37206  0.41910  Biso   1.000  C
  C161     1.0000 0.41910  0.73426  0.37206  Biso   1.000  C
  C162     1.0000 0.26574  0.62794  0.41910  Biso   1.000  C
  C163     1.0000 0.58090  0.26574  0.37206  Biso   1.000  C
  C164     1.0000 0.73426  0.62794  0.58090  Biso   1.000  C
  C165     1.0000 0.37206  0.73426  0.58090  Biso   1.000  C
  C166     1.0000 0.62794  0.73426  0.41910  Biso   1.000  C
  C167     1.0000 0.37206  0.26574  0.41910  Biso   1.000  C
  C168     1.0000 0.58090  0.73426  0.62794  Biso   1.000  C
  C169     1.0000 0.08090  0.12794  0.76574  Biso   1.000  C
  C170     1.0000 0.87206  0.08090  0.76574  Biso   1.000  C
  C171     1.0000 0.08090  0.87206  0.23426  Biso   1.000  C
  C172     1.0000 0.76574  0.08090  0.12794  Biso   1.000  C
  C173     1.0000 0.91910  0.87206  0.76574  Biso   1.000  C
  C174     1.0000 0.87206  0.91910  0.23426  Biso   1.000  C
  C175     1.0000 0.12794  0.08090  0.23426  Biso   1.000  C
  C176     1.0000 0.76574  0.87206  0.08090  Biso   1.000  C
  C177     1.0000 0.91910  0.76574  0.12794  Biso   1.000  C
  C178     1.0000 0.23426  0.08090  0.87206  Biso   1.000  C
  C179     1.0000 0.76574  0.91910  0.87206  Biso   1.000  C
  C180     1.0000 0.12794  0.76574  0.08090  Biso   1.000  C
  C181     1.0000 0.12794  0.91910  0.76574  Biso   1.000  C
  C182     1.0000 0.91910  0.12794  0.23426  Biso   1.000  C
  C183     1.0000 0.23426  0.91910  0.12794  Biso   1.000  C
  C184     1.0000 0.23426  0.87206  0.91910  Biso   1.000  C
  C185     1.0000 0.91910  0.23426  0.87206  Biso   1.000  C
  C186     1.0000 0.76574  0.12794  0.91910  Biso   1.000  C
  C187     1.0000 0.08090  0.76574  0.87206  Biso   1.000  C
  C188     1.0000 0.23426  0.12794  0.08090  Biso   1.000  C
  C189     1.0000 0.87206  0.23426  0.08090  Biso   1.000  C
  C190     1.0000 0.12794  0.23426  0.91910  Biso   1.000  C
  C191     1.0000 0.87206  0.76574  0.91910  Biso   1.000  C
  C192     1.0000 0.08090  0.23426  0.12794  Biso   1.000  C
  C193     1.0000 0.41910  0.37206  0.73426  Biso   1.000  C
  C194     1.0000 0.62794  0.41910  0.73426  Biso   1.000  C
  C195     1.0000 0.41910  0.62794  0.26574  Biso   1.000  C
  C196     1.0000 0.73426  0.41910  0.37206  Biso   1.000  C
  C197     1.0000 0.58090  0.62794  0.73426  Biso   1.000  C
  C198     1.0000 0.62794  0.58090  0.26574  Biso   1.000  C
  C199     1.0000 0.37206  0.41910  0.26574  Biso   1.000  C
  C200     1.0000 0.73426  0.62794  0.41910  Biso   1.000  C
  C201     1.0000 0.58090  0.73426  0.37206  Biso   1.000  C
  C202     1.0000 0.26574  0.41910  0.62794  Biso   1.000  C
  C203     1.0000 0.73426  0.58090  0.62794  Biso   1.000  C
  C204     1.0000 0.37206  0.73426  0.41910  Biso   1.000  C
  C205     1.0000 0.37206  0.58090  0.73426  Biso   1.000  C
  C206     1.0000 0.58090  0.37206  0.26574  Biso   1.000  C
  C207     1.0000 0.26574  0.58090  0.37206  Biso   1.000  C
  C208     1.0000 0.26574  0.62794  0.58090  Biso   1.000  C
  C209     1.0000 0.58090  0.26574  0.62794  Biso   1.000  C
  C210     1.0000 0.73426  0.37206  0.58090  Biso   1.000  C
  C211     1.0000 0.41910  0.73426  0.62794  Biso   1.000  C
  C212     1.0000 0.26574  0.37206  0.41910  Biso   1.000  C
  C213     1.0000 0.62794  0.26574  0.41910  Biso   1.000  C
  C214     1.0000 0.37206  0.26574  0.58090  Biso   1.000  C
  C215     1.0000 0.62794  0.73426  0.58090  Biso   1.000  C
  C216     1.0000 0.41910  0.26574  0.37206  Biso   1.000  C
  C217     1.0000 0.91910  0.87206  0.23426  Biso   1.000  C
  C218     1.0000 0.12794  0.91910  0.23426  Biso   1.000  C
  C219     1.0000 0.91910  0.12794  0.76574  Biso   1.000  C
  C220     1.0000 0.23426  0.91910  0.87206  Biso   1.000  C
  C221     1.0000 0.08090  0.12794  0.23426  Biso   1.000  C
  C222     1.0000 0.12794  0.08090  0.76574  Biso   1.000  C
  C223     1.0000 0.87206  0.91910  0.76574  Biso   1.000  C
  C224     1.0000 0.23426  0.12794  0.91910  Biso   1.000  C
  C225     1.0000 0.08090  0.23426  0.87206  Biso   1.000  C
  C226     1.0000 0.76574  0.91910  0.12794  Biso   1.000  C
  C227     1.0000 0.23426  0.08090  0.12794  Biso   1.000  C
  C228     1.0000 0.87206  0.23426  0.91910  Biso   1.000  C
  C229     1.0000 0.87206  0.08090  0.23426  Biso   1.000  C
  C230     1.0000 0.08090  0.87206  0.76574  Biso   1.000  C
  C231     1.0000 0.76574  0.08090  0.87206  Biso   1.000  C
  C232     1.0000 0.76574  0.12794  0.08090  Biso   1.000  C
  C233     1.0000 0.08090  0.76574  0.12794  Biso   1.000  C
  C234     1.0000 0.23426  0.87206  0.08090  Biso   1.000  C
  C235     1.0000 0.91910  0.23426  0.12794  Biso   1.000  C
  C236     1.0000 0.76574  0.87206  0.91910  Biso   1.000  C
  C237     1.0000 0.12794  0.76574  0.91910  Biso   1.000  C
  C238     1.0000 0.87206  0.76574  0.08090  Biso   1.000  C
  C239     1.0000 0.12794  0.23426  0.08090  Biso   1.000  C
  C240     1.0000 0.91910  0.76574  0.87206  Biso   1.000  C
  C241     1.0000 0.59425  0.64060  0.23223  Biso   1.000  C
  C242     1.0000 0.35940  0.59425  0.23223  Biso   1.000  C
  C243     1.0000 0.59425  0.35940  0.76777  Biso   1.000  C
  C244     1.0000 0.23223  0.59425  0.64060  Biso   1.000  C
  C245     1.0000 0.40575  0.35940  0.23223  Biso   1.000  C
  C246     1.0000 0.35940  0.40575  0.76777  Biso   1.000  C
  C247     1.0000 0.64060  0.59425  0.76777  Biso   1.000  C
  C248     1.0000 0.23223  0.35940  0.59425  Biso   1.000  C
  C249     1.0000 0.40575  0.23223  0.64060  Biso   1.000  C
  C250     1.0000 0.76777  0.59425  0.35940  Biso   1.000  C
  C251     1.0000 0.23223  0.40575  0.35940  Biso   1.000  C
  C252     1.0000 0.64060  0.23223  0.59425  Biso   1.000  C
  C253     1.0000 0.64060  0.40575  0.23223  Biso   1.000  C
  C254     1.0000 0.40575  0.64060  0.76777  Biso   1.000  C
  C255     1.0000 0.76777  0.40575  0.64060  Biso   1.000  C
  C256     1.0000 0.76777  0.35940  0.40575  Biso   1.000  C
  C257     1.0000 0.40575  0.76777  0.35940  Biso   1.000  C
  C258     1.0000 0.23223  0.64060  0.40575  Biso   1.000  C
  C259     1.0000 0.59425  0.23223  0.35940  Biso   1.000  C
  C260     1.0000 0.76777  0.64060  0.59425  Biso   1.000  C
  C261     1.0000 0.35940  0.76777  0.59425  Biso   1.000  C
  C262     1.0000 0.64060  0.76777  0.40575  Biso   1.000  C
  C263     1.0000 0.35940  0.23223  0.40575  Biso   1.000  C
  C264     1.0000 0.59425  0.76777  0.64060  Biso   1.000  C
  C265     1.0000 0.09425  0.14060  0.73223  Biso   1.000  C
  C266     1.0000 0.85940  0.09425  0.73223  Biso   1.000  C
  C267     1.0000 0.09425  0.85940  0.26777  Biso   1.000  C
  C268     1.0000 0.73223  0.09425  0.14060  Biso   1.000  C
  C269     1.0000 0.90575  0.85940  0.73223  Biso   1.000  C
  C270     1.0000 0.85940  0.90575  0.26777  Biso   1.000  C
  C271     1.0000 0.14060  0.09425  0.26777  Biso   1.000  C
  C272     1.0000 0.73223  0.85940  0.09425  Biso   1.000  C
  C273     1.0000 0.90575  0.73223  0.14060  Biso   1.000  C
  C274     1.0000 0.26777  0.09425  0.85940  Biso   1.000  C
  C275     1.0000 0.73223  0.90575  0.85940  Biso   1.000  C
  C276     1.0000 0.14060  0.73223  0.09425  Biso   1.000  C
  C277     1.0000 0.14060  0.90575  0.73223  Biso   1.000  C
  C278     1.0000 0.90575  0.14060  0.26777  Biso   1.000  C
  C279     1.0000 0.26777  0.90575  0.14060  Biso   1.000  C
  C280     1.0000 0.26777  0.85940  0.90575  Biso   1.000  C
  C281     1.0000 0.90575  0.26777  0.85940  Biso   1.000  C
  C282     1.0000 0.73223  0.14060  0.90575  Biso   1.000  C
  C283     1.0000 0.09425  0.73223  0.85940  Biso   1.000  C
  C284     1.0000 0.26777  0.14060  0.09425  Biso   1.000  C
  C285     1.0000 0.85940  0.26777  0.09425  Biso   1.000  C
  C286     1.0000 0.14060  0.26777  0.90575  Biso   1.000  C
  C287     1.0000 0.85940  0.73223  0.90575  Biso   1.000  C
  C288     1.0000 0.09425  0.26777  0.14060  Biso   1.000  C
  C289     1.0000 0.40575  0.35940  0.76777  Biso   1.000  C
  C290     1.0000 0.64060  0.40575  0.76777  Biso   1.000  C
  C291     1.0000 0.40575  0.64060  0.23223  Biso   1.000  C
  C292     1.0000 0.76777  0.40575  0.35940  Biso   1.000  C
  C293     1.0000 0.59425  0.64060  0.76777  Biso   1.000  C
  C294     1.0000 0.64060  0.59425  0.23223  Biso   1.000  C
  C295     1.0000 0.35940  0.40575  0.23223  Biso   1.000  C
  C296     1.0000 0.76777  0.64060  0.40575  Biso   1.000  C
  C297     1.0000 0.59425  0.76777  0.35940  Biso   1.000  C
  C298     1.0000 0.23223  0.40575  0.64060  Biso   1.000  C
  C299     1.0000 0.76777  0.59425  0.64060  Biso   1.000  C
  C300     1.0000 0.35940  0.76777  0.40575  Biso   1.000  C
  C301     1.0000 0.35940  0.59425  0.76777  Biso   1.000  C
  C302     1.0000 0.59425  0.35940  0.23223  Biso   1.000  C
  C303     1.0000 0.23223  0.59425  0.35940  Biso   1.000  C
  C304     1.0000 0.23223  0.64060  0.59425  Biso   1.000  C
  C305     1.0000 0.59425  0.23223  0.64060  Biso   1.000  C
  C306     1.0000 0.76777  0.35940  0.59425  Biso   1.000  C
  C307     1.0000 0.40575  0.76777  0.64060  Biso   1.000  C
  C308     1.0000 0.23223  0.35940  0.40575  Biso   1.000  C
  C309     1.0000 0.64060  0.23223  0.40575  Biso   1.000  C
  C310     1.0000 0.35940  0.23223  0.59425  Biso   1.000  C
  C311     1.0000 0.64060  0.76777  0.59425  Biso   1.000  C
  C312     1.0000 0.40575  0.23223  0.35940  Biso   1.000  C
  C313     1.0000 0.90575  0.85940  0.26777  Biso   1.000  C
  C314     1.0000 0.14060  0.90575  0.26777  Biso   1.000  C
  C315     1.0000 0.90575  0.14060  0.73223  Biso   1.000  C
  C316     1.0000 0.26777  0.90575  0.85940  Biso   1.000  C
  C317     1.0000 0.09425  0.14060  0.26777  Biso   1.000  C
  C318     1.0000 0.14060  0.09425  0.73223  Biso   1.000  C
  C319     1.0000 0.85940  0.90575  0.73223  Biso   1.000  C
  C320     1.0000 0.26777  0.14060  0.90575  Biso   1.000  C
  C321     1.0000 0.09425  0.26777  0.85940  Biso   1.000  C
  C322     1.0000 0.73223  0.90575  0.14060  Biso   1.000  C
  C323     1.0000 0.26777  0.09425  0.14060  Biso   1.000  C
  C324     1.0000 0.85940  0.26777  0.90575  Biso   1.000  C
  C325     1.0000 0.85940  0.09425  0.26777  Biso   1.000  C
  C326     1.0000 0.09425  0.85940  0.73223  Biso   1.000  C
  C327     1.0000 0.73223  0.09425  0.85940  Biso   1.000  C
  C328     1.0000 0.73223  0.14060  0.09425  Biso   1.000  C
  C329     1.0000 0.09425  0.73223  0.14060  Biso   1.000  C
  C330     1.0000 0.26777  0.85940  0.09425  Biso   1.000  C
  C331     1.0000 0.90575  0.26777  0.14060  Biso   1.000  C
  C332     1.0000 0.73223  0.85940  0.90575  Biso   1.000  C
  C333     1.0000 0.14060  0.73223  0.90575  Biso   1.000  C
  C334     1.0000 0.85940  0.73223  0.09425  Biso   1.000  C
  C335     1.0000 0.14060  0.26777  0.09425  Biso   1.000  C
  C336     1.0000 0.90575  0.73223  0.85940  Biso   1.000  C
  H49      1.0000 0.58310  0.66090  0.22120  Biso   1.000  H
  H50      1.0000 0.33910  0.58310  0.22120  Biso   1.000  H
  H51      1.0000 0.58310  0.33910  0.77880  Biso   1.000  H
  H52      1.0000 0.22120  0.58310  0.66090  Biso   1.000  H
  H53      1.0000 0.41690  0.33910  0.22120  Biso   1.000  H
  H54      1.0000 0.33910  0.41690  0.77880  Biso   1.000  H
  H55      1.0000 0.66090  0.58310  0.77880  Biso   1.000  H
  H56      1.0000 0.22120  0.33910  0.58310  Biso   1.000  H
  H57      1.0000 0.41690  0.22120  0.66090  Biso   1.000  H
  H58      1.0000 0.77880  0.58310  0.33910  Biso   1.000  H
  H59      1.0000 0.22120  0.41690  0.33910  Biso   1.000  H
  H60      1.0000 0.66090  0.22120  0.58310  Biso   1.000  H
  H61      1.0000 0.66090  0.41690  0.22120  Biso   1.000  H
  H62      1.0000 0.41690  0.66090  0.77880  Biso   1.000  H
  H63      1.0000 0.77880  0.41690  0.66090  Biso   1.000  H
  H64      1.0000 0.77880  0.33910  0.41690  Biso   1.000  H
  H65      1.0000 0.41690  0.77880  0.33910  Biso   1.000  H
  H66      1.0000 0.22120  0.66090  0.41690  Biso   1.000  H
  H67      1.0000 0.58310  0.22120  0.33910  Biso   1.000  H
  H68      1.0000 0.77880  0.66090  0.58310  Biso   1.000  H
  H69      1.0000 0.33910  0.77880  0.58310  Biso   1.000  H
  H70      1.0000 0.66090  0.77880  0.41690  Biso   1.000  H
  H71      1.0000 0.33910  0.22120  0.41690  Biso   1.000  H
  H72      1.0000 0.58310  0.77880  0.66090  Biso   1.000  H
  H73      1.0000 0.08310  0.16090  0.72120  Biso   1.000  H
  H74      1.0000 0.83910  0.08310  0.72120  Biso   1.000  H
  H75      1.0000 0.08310  0.83910  0.27880  Biso   1.000  H
  H76      1.0000 0.72120  0.08310  0.16090  Biso   1.000  H
  H77      1.0000 0.91690  0.83910  0.72120  Biso   1.000  H
  H78      1.0000 0.83910  0.91690  0.27880  Biso   1.000  H
  H79      1.0000 0.16090  0.08310  0.27880  Biso   1.000  H
  H80      1.0000 0.72120  0.83910  0.08310  Biso   1.000  H
  H81      1.0000 0.91690  0.72120  0.16090  Biso   1.000  H
  H82      1.0000 0.27880  0.08310  0.83910  Biso   1.000  H
  H83      1.0000 0.72120  0.91690  0.83910  Biso   1.000  H
  H84      1.0000 0.16090  0.72120  0.08310  Biso   1.000  H
  H85      1.0000 0.16090  0.91690  0.72120  Biso   1.000  H
  H86      1.0000 0.91690  0.16090  0.27880  Biso   1.000  H
  H87      1.0000 0.27880  0.91690  0.16090  Biso   1.000  H
  H88      1.0000 0.27880  0.83910  0.91690  Biso   1.000  H
  H89      1.0000 0.91690  0.27880  0.83910  Biso   1.000  H
  H90      1.0000 0.72120  0.16090  0.91690  Biso   1.000  H
  H91      1.0000 0.08310  0.72120  0.83910  Biso   1.000  H
  H92      1.0000 0.27880  0.16090  0.08310  Biso   1.000  H
  H93      1.0000 0.83910  0.27880  0.08310  Biso   1.000  H
  H94      1.0000 0.16090  0.27880  0.91690  Biso   1.000  H
  H95      1.0000 0.83910  0.72120  0.91690  Biso   1.000  H
  H96      1.0000 0.08310  0.27880  0.16090  Biso   1.000  H
  H97      1.0000 0.41690  0.33910  0.77880  Biso   1.000  H
  H98      1.0000 0.66090  0.41690  0.77880  Biso   1.000  H
  H99      1.0000 0.41690  0.66090  0.22120  Biso   1.000  H
  H100     1.0000 0.77880  0.41690  0.33910  Biso   1.000  H
  H101     1.0000 0.58310  0.66090  0.77880  Biso   1.000  H
  H102     1.0000 0.66090  0.58310  0.22120  Biso   1.000  H
  H103     1.0000 0.33910  0.41690  0.22120  Biso   1.000  H
  H104     1.0000 0.77880  0.66090  0.41690  Biso   1.000  H
  H105     1.0000 0.58310  0.77880  0.33910  Biso   1.000  H
  H106     1.0000 0.22120  0.41690  0.66090  Biso   1.000  H
  H107     1.0000 0.77880  0.58310  0.66090  Biso   1.000  H
  H108     1.0000 0.33910  0.77880  0.41690  Biso   1.000  H
  H109     1.0000 0.33910  0.58310  0.77880  Biso   1.000  H
  H110     1.0000 0.58310  0.33910  0.22120  Biso   1.000  H
  H111     1.0000 0.22120  0.58310  0.33910  Biso   1.000  H
  H112     1.0000 0.22120  0.66090  0.58310  Biso   1.000  H
  H113     1.0000 0.58310  0.22120  0.66090  Biso   1.000  H
  H114     1.0000 0.77880  0.33910  0.58310  Biso   1.000  H
  H115     1.0000 0.41690  0.77880  0.66090  Biso   1.000  H
  H116     1.0000 0.22120  0.33910  0.41690  Biso   1.000  H
  H117     1.0000 0.66090  0.22120  0.41690  Biso   1.000  H
  H118     1.0000 0.33910  0.22120  0.58310  Biso   1.000  H
  H119     1.0000 0.66090  0.77880  0.58310  Biso   1.000  H
  H120     1.0000 0.41690  0.22120  0.33910  Biso   1.000  H
  H121     1.0000 0.91690  0.83910  0.27880  Biso   1.000  H
  H122     1.0000 0.16090  0.91690  0.27880  Biso   1.000  H
  H123     1.0000 0.91690  0.16090  0.72120  Biso   1.000  H
  H124     1.0000 0.27880  0.91690  0.83910  Biso   1.000  H
  H125     1.0000 0.08310  0.16090  0.27880  Biso   1.000  H
  H126     1.0000 0.16090  0.08310  0.72120  Biso   1.000  H
  H127     1.0000 0.83910  0.91690  0.72120  Biso   1.000  H
  H128     1.0000 0.27880  0.16090  0.91690  Biso   1.000  H
  H129     1.0000 0.08310  0.27880  0.83910  Biso   1.000  H
  H130     1.0000 0.72120  0.91690  0.16090  Biso   1.000  H
  H131     1.0000 0.27880  0.08310  0.16090  Biso   1.000  H
  H132     1.0000 0.83910  0.27880  0.91690  Biso   1.000  H
  H133     1.0000 0.83910  0.08310  0.27880  Biso   1.000  H
  H134     1.0000 0.08310  0.83910  0.72120  Biso   1.000  H
  H135     1.0000 0.72120  0.08310  0.83910  Biso   1.000  H
  H136     1.0000 0.72120  0.16090  0.08310  Biso   1.000  H
  H137     1.0000 0.08310  0.72120  0.16090  Biso   1.000  H
  H138     1.0000 0.27880  0.83910  0.08310  Biso   1.000  H
  H139     1.0000 0.91690  0.27880  0.16090  Biso   1.000  H
  H140     1.0000 0.72120  0.83910  0.91690  Biso   1.000  H
  H141     1.0000 0.16090  0.72120  0.91690  Biso   1.000  H
  H142     1.0000 0.83910  0.72120  0.08310  Biso   1.000  H
  H143     1.0000 0.16090  0.27880  0.08310  Biso   1.000  H
  H144     1.0000 0.91690  0.72120  0.83910  Biso   1.000  H
  C337     1.0000 0.62373  0.62373  0.21484  Biso   1.000  C
  C338     1.0000 0.37627  0.62373  0.21484  Biso   1.000  C
  C339     1.0000 0.62373  0.37627  0.78516  Biso   1.000  C
  C340     1.0000 0.21484  0.62373  0.62373  Biso   1.000  C
  C341     1.0000 0.37627  0.37627  0.21484  Biso   1.000  C
  C342     1.0000 0.37627  0.37627  0.78516  Biso   1.000  C
  C343     1.0000 0.62373  0.62373  0.78516  Biso   1.000  C
  C344     1.0000 0.21484  0.37627  0.62373  Biso   1.000  C
  C345     1.0000 0.37627  0.21484  0.62373  Biso   1.000  C
  C346     1.0000 0.78516  0.62373  0.37627  Biso   1.000  C
  C347     1.0000 0.21484  0.37627  0.37627  Biso   1.000  C
  C348     1.0000 0.62373  0.21484  0.62373  Biso   1.000  C
  C349     1.0000 0.62373  0.37627  0.21484  Biso   1.000  C
  C350     1.0000 0.37627  0.62373  0.78516  Biso   1.000  C
  C351     1.0000 0.78516  0.37627  0.62373  Biso   1.000  C
  C352     1.0000 0.78516  0.37627  0.37627  Biso   1.000  C
  C353     1.0000 0.37627  0.78516  0.37627  Biso   1.000  C
  C354     1.0000 0.21484  0.62373  0.37627  Biso   1.000  C
  C355     1.0000 0.62373  0.21484  0.37627  Biso   1.000  C
  C356     1.0000 0.78516  0.62373  0.62373  Biso   1.000  C
  C357     1.0000 0.37627  0.78516  0.62373  Biso   1.000  C
  C358     1.0000 0.62373  0.78516  0.37627  Biso   1.000  C
  C359     1.0000 0.37627  0.21484  0.37627  Biso   1.000  C
  C360     1.0000 0.62373  0.78516  0.62373  Biso   1.000  C
  C361     1.0000 0.12373  0.12373  0.71484  Biso   1.000  C
  C362     1.0000 0.87627  0.12373  0.71484  Biso   1.000  C
  C363     1.0000 0.12373  0.87627  0.28516  Biso   1.000  C
  C364     1.0000 0.71484  0.12373  0.12373  Biso   1.000  C
  C365     1.0000 0.87627  0.87627  0.71484  Biso   1.000  C
  C366     1.0000 0.87627  0.87627  0.28516  Biso   1.000  C
  C367     1.0000 0.12373  0.12373  0.28516  Biso   1.000  C
  C368     1.0000 0.71484  0.87627  0.12373  Biso   1.000  C
  C369     1.0000 0.87627  0.71484  0.12373  Biso   1.000  C
  C370     1.0000 0.28516  0.12373  0.87627  Biso   1.000  C
  C371     1.0000 0.71484  0.87627  0.87627  Biso   1.000  C
  C372     1.0000 0.12373  0.71484  0.12373  Biso   1.000  C
  C373     1.0000 0.12373  0.87627  0.71484  Biso   1.000  C
  C374     1.0000 0.87627  0.12373  0.28516  Biso   1.000  C
  C375     1.0000 0.28516  0.87627  0.12373  Biso   1.000  C
  C376     1.0000 0.28516  0.87627  0.87627  Biso   1.000  C
  C377     1.0000 0.87627  0.28516  0.87627  Biso   1.000  C
  C378     1.0000 0.71484  0.12373  0.87627  Biso   1.000  C
  C379     1.0000 0.12373  0.71484  0.87627  Biso   1.000  C
  C380     1.0000 0.28516  0.12373  0.12373  Biso   1.000  C
  C381     1.0000 0.87627  0.28516  0.12373  Biso   1.000  C
  C382     1.0000 0.12373  0.28516  0.87627  Biso   1.000  C
  C383     1.0000 0.87627  0.71484  0.87627  Biso   1.000  C
  C384     1.0000 0.12373  0.28516  0.12373  Biso   1.000  C
  C385     1.0000 0.63759  0.63759  0.17856  Biso   1.000  C
  C386     1.0000 0.36241  0.63759  0.17856  Biso   1.000  C
  C387     1.0000 0.63759  0.36241  0.82144  Biso   1.000  C
  C388     1.0000 0.17856  0.63759  0.63759  Biso   1.000  C
  C389     1.0000 0.36241  0.36241  0.17856  Biso   1.000  C
  C390     1.0000 0.36241  0.36241  0.82144  Biso   1.000  C
  C391     1.0000 0.63759  0.63759  0.82144  Biso   1.000  C
  C392     1.0000 0.17856  0.36241  0.63759  Biso   1.000  C
  C393     1.0000 0.36241  0.17856  0.63759  Biso   1.000  C
  C394     1.0000 0.82144  0.63759  0.36241  Biso   1.000  C
  C395     1.0000 0.17856  0.36241  0.36241  Biso   1.000  C
  C396     1.0000 0.63759  0.17856  0.63759  Biso   1.000  C
  C397     1.0000 0.63759  0.36241  0.17856  Biso   1.000  C
  C398     1.0000 0.36241  0.63759  0.82144  Biso   1.000  C
  C399     1.0000 0.82144  0.36241  0.63759  Biso   1.000  C
  C400     1.0000 0.82144  0.36241  0.36241  Biso   1.000  C
  C401     1.0000 0.36241  0.82144  0.36241  Biso   1.000  C
  C402     1.0000 0.17856  0.63759  0.36241  Biso   1.000  C
  C403     1.0000 0.63759  0.17856  0.36241  Biso   1.000  C
  C404     1.0000 0.82144  0.63759  0.63759  Biso   1.000  C
  C405     1.0000 0.36241  0.82144  0.63759  Biso   1.000  C
  C406     1.0000 0.63759  0.82144  0.36241  Biso   1.000  C
  C407     1.0000 0.36241  0.17856  0.36241  Biso   1.000  C
  C408     1.0000 0.63759  0.82144  0.63759  Biso   1.000  C
  C409     1.0000 0.13759  0.13759  0.67856  Biso   1.000  C
  C410     1.0000 0.86241  0.13759  0.67856  Biso   1.000  C
  C411     1.0000 0.13759  0.86241  0.32144  Biso   1.000  C
  C412     1.0000 0.67856  0.13759  0.13759  Biso   1.000  C
  C413     1.0000 0.86241  0.86241  0.67856  Biso   1.000  C
  C414     1.0000 0.86241  0.86241  0.32144  Biso   1.000  C
  C415     1.0000 0.13759  0.13759  0.32144  Biso   1.000  C
  C416     1.0000 0.67856  0.86241  0.13759  Biso   1.000  C
  C417     1.0000 0.86241  0.67856  0.13759  Biso   1.000  C
  C418     1.0000 0.32144  0.13759  0.86241  Biso   1.000  C
  C419     1.0000 0.67856  0.86241  0.86241  Biso   1.000  C
  C420     1.0000 0.13759  0.67856  0.13759  Biso   1.000  C
  C421     1.0000 0.13759  0.86241  0.67856  Biso   1.000  C
  C422     1.0000 0.86241  0.13759  0.32144  Biso   1.000  C
  C423     1.0000 0.32144  0.86241  0.13759  Biso   1.000  C
  C424     1.0000 0.32144  0.86241  0.86241  Biso   1.000  C
  C425     1.0000 0.86241  0.32144  0.86241  Biso   1.000  C
  C426     1.0000 0.67856  0.13759  0.86241  Biso   1.000  C
  C427     1.0000 0.13759  0.67856  0.86241  Biso   1.000  C
  C428     1.0000 0.32144  0.13759  0.13759  Biso   1.000  C
  C429     1.0000 0.86241  0.32144  0.13759  Biso   1.000  C
  C430     1.0000 0.13759  0.32144  0.86241  Biso   1.000  C
  C431     1.0000 0.86241  0.67856  0.86241  Biso   1.000  C
  C432     1.0000 0.13759  0.32144  0.13759  Biso   1.000  C
  C433     1.0000 0.67628  0.63340  0.16974  Biso   1.000  C
  C434     1.0000 0.36660  0.67628  0.16974  Biso   1.000  C
  C435     1.0000 0.67628  0.36660  0.83026  Biso   1.000  C
  C436     1.0000 0.16974  0.67628  0.63340  Biso   1.000  C
  C437     1.0000 0.32372  0.36660  0.16974  Biso   1.000  C
  C438     1.0000 0.36660  0.32372  0.83026  Biso   1.000  C
  C439     1.0000 0.63340  0.67628  0.83026  Biso   1.000  C
  C440     1.0000 0.16974  0.36660  0.67628  Biso   1.000  C
  C441     1.0000 0.32372  0.16974  0.63340  Biso   1.000  C
  C442     1.0000 0.83026  0.67628  0.36660  Biso   1.000  C
  C443     1.0000 0.16974  0.32372  0.36660  Biso   1.000  C
  C444     1.0000 0.63340  0.16974  0.67628  Biso   1.000  C
  C445     1.0000 0.63340  0.32372  0.16974  Biso   1.000  C
  C446     1.0000 0.32372  0.63340  0.83026  Biso   1.000  C
  C447     1.0000 0.83026  0.32372  0.63340  Biso   1.000  C
  C448     1.0000 0.83026  0.36660  0.32372  Biso   1.000  C
  C449     1.0000 0.32372  0.83026  0.36660  Biso   1.000  C
  C450     1.0000 0.16974  0.63340  0.32372  Biso   1.000  C
  C451     1.0000 0.67628  0.16974  0.36660  Biso   1.000  C
  C452     1.0000 0.83026  0.63340  0.67628  Biso   1.000  C
  C453     1.0000 0.36660  0.83026  0.67628  Biso   1.000  C
  C454     1.0000 0.63340  0.83026  0.32372  Biso   1.000  C
  C455     1.0000 0.36660  0.16974  0.32372  Biso   1.000  C
  C456     1.0000 0.67628  0.83026  0.63340  Biso   1.000  C
  C457     1.0000 0.17628  0.13340  0.66974  Biso   1.000  C
  C458     1.0000 0.86660  0.17628  0.66974  Biso   1.000  C
  C459     1.0000 0.17628  0.86660  0.33026  Biso   1.000  C
  C460     1.0000 0.66974  0.17628  0.13340  Biso   1.000  C
  C461     1.0000 0.82372  0.86660  0.66974  Biso   1.000  C
  C462     1.0000 0.86660  0.82372  0.33026  Biso   1.000  C
  C463     1.0000 0.13340  0.17628  0.33026  Biso   1.000  C
  C464     1.0000 0.66974  0.86660  0.17628  Biso   1.000  C
  C465     1.0000 0.82372  0.66974  0.13340  Biso   1.000  C
  C466     1.0000 0.33026  0.17628  0.86660  Biso   1.000  C
  C467     1.0000 0.66974  0.82372  0.86660  Biso   1.000  C
  C468     1.0000 0.13340  0.66974  0.17628  Biso   1.000  C
  C469     1.0000 0.13340  0.82372  0.66974  Biso   1.000  C
  C470     1.0000 0.82372  0.13340  0.33026  Biso   1.000  C
  C471     1.0000 0.33026  0.82372  0.13340  Biso   1.000  C
  C472     1.0000 0.33026  0.86660  0.82372  Biso   1.000  C
  C473     1.0000 0.82372  0.33026  0.86660  Biso   1.000  C
  C474     1.0000 0.66974  0.13340  0.82372  Biso   1.000  C
  C475     1.0000 0.17628  0.66974  0.86660  Biso   1.000  C
  C476     1.0000 0.33026  0.13340  0.17628  Biso   1.000  C
  C477     1.0000 0.86660  0.33026  0.17628  Biso   1.000  C
  C478     1.0000 0.13340  0.33026  0.82372  Biso   1.000  C
  C479     1.0000 0.86660  0.66974  0.82372  Biso   1.000  C
  C480     1.0000 0.17628  0.33026  0.13340  Biso   1.000  C
  C481     1.0000 0.32372  0.36660  0.83026  Biso   1.000  C
  C482     1.0000 0.63340  0.32372  0.83026  Biso   1.000  C
  C483     1.0000 0.32372  0.63340  0.16974  Biso   1.000  C
  C484     1.0000 0.83026  0.32372  0.36660  Biso   1.000  C
  C485     1.0000 0.67628  0.63340  0.83026  Biso   1.000  C
  C486     1.0000 0.63340  0.67628  0.16974  Biso   1.000  C
  C487     1.0000 0.36660  0.32372  0.16974  Biso   1.000  C
  C488     1.0000 0.83026  0.63340  0.32372  Biso   1.000  C
  C489     1.0000 0.67628  0.83026  0.36660  Biso   1.000  C
  C490     1.0000 0.16974  0.32372  0.63340  Biso   1.000  C
  C491     1.0000 0.83026  0.67628  0.63340  Biso   1.000  C
  C492     1.0000 0.36660  0.83026  0.32372  Biso   1.000  C
  C493     1.0000 0.36660  0.67628  0.83026  Biso   1.000  C
  C494     1.0000 0.67628  0.36660  0.16974  Biso   1.000  C
  C495     1.0000 0.16974  0.67628  0.36660  Biso   1.000  C
  C496     1.0000 0.16974  0.63340  0.67628  Biso   1.000  C
  C497     1.0000 0.67628  0.16974  0.63340  Biso   1.000  C
  C498     1.0000 0.83026  0.36660  0.67628  Biso   1.000  C
  C499     1.0000 0.32372  0.83026  0.63340  Biso   1.000  C
  C500     1.0000 0.16974  0.36660  0.32372  Biso   1.000  C
  C501     1.0000 0.63340  0.16974  0.32372  Biso   1.000  C
  C502     1.0000 0.36660  0.16974  0.67628  Biso   1.000  C
  C503     1.0000 0.63340  0.83026  0.67628  Biso   1.000  C
  C504     1.0000 0.32372  0.16974  0.36660  Biso   1.000  C
  C505     1.0000 0.82372  0.86660  0.33026  Biso   1.000  C
  C506     1.0000 0.13340  0.82372  0.33026  Biso   1.000  C
  C507     1.0000 0.82372  0.13340  0.66974  Biso   1.000  C
  C508     1.0000 0.33026  0.82372  0.86660  Biso   1.000  C
  C509     1.0000 0.17628  0.13340  0.33026  Biso   1.000  C
  C510     1.0000 0.13340  0.17628  0.66974  Biso   1.000  C
  C511     1.0000 0.86660  0.82372  0.66974  Biso   1.000  C
  C512     1.0000 0.33026  0.13340  0.82372  Biso   1.000  C
  C513     1.0000 0.17628  0.33026  0.86660  Biso   1.000  C
  C514     1.0000 0.66974  0.82372  0.13340  Biso   1.000  C
  C515     1.0000 0.33026  0.17628  0.13340  Biso   1.000  C
  C516     1.0000 0.86660  0.33026  0.82372  Biso   1.000  C
  C517     1.0000 0.86660  0.17628  0.33026  Biso   1.000  C
  C518     1.0000 0.17628  0.86660  0.66974  Biso   1.000  C
  C519     1.0000 0.66974  0.17628  0.86660  Biso   1.000  C
  C520     1.0000 0.66974  0.13340  0.17628  Biso   1.000  C
  C521     1.0000 0.17628  0.66974  0.13340  Biso   1.000  C
  C522     1.0000 0.33026  0.86660  0.17628  Biso   1.000  C
  C523     1.0000 0.82372  0.33026  0.13340  Biso   1.000  C
  C524     1.0000 0.66974  0.86660  0.82372  Biso   1.000  C
  C525     1.0000 0.13340  0.66974  0.82372  Biso   1.000  C
  C526     1.0000 0.86660  0.66974  0.17628  Biso   1.000  C
  C527     1.0000 0.13340  0.33026  0.17628  Biso   1.000  C
  C528     1.0000 0.82372  0.66974  0.86660  Biso   1.000  C
  H145     1.0000 0.69180  0.62180  0.18660  Biso   1.000  H
  H146     1.0000 0.37820  0.69180  0.18660  Biso   1.000  H
  H147     1.0000 0.69180  0.37820  0.81340  Biso   1.000  H
  H148     1.0000 0.18660  0.69180  0.62180  Biso   1.000  H
  H149     1.0000 0.30820  0.37820  0.18660  Biso   1.000  H
  H150     1.0000 0.37820  0.30820  0.81340  Biso   1.000  H
  H151     1.0000 0.62180  0.69180  0.81340  Biso   1.000  H
  H152     1.0000 0.18660  0.37820  0.69180  Biso   1.000  H
  H153     1.0000 0.30820  0.18660  0.62180  Biso   1.000  H
  H154     1.0000 0.81340  0.69180  0.37820  Biso   1.000  H
  H155     1.0000 0.18660  0.30820  0.37820  Biso   1.000  H
  H156     1.0000 0.62180  0.18660  0.69180  Biso   1.000  H
  H157     1.0000 0.62180  0.30820  0.18660  Biso   1.000  H
  H158     1.0000 0.30820  0.62180  0.81340  Biso   1.000  H
  H159     1.0000 0.81340  0.30820  0.62180  Biso   1.000  H
  H160     1.0000 0.81340  0.37820  0.30820  Biso   1.000  H
  H161     1.0000 0.30820  0.81340  0.37820  Biso   1.000  H
  H162     1.0000 0.18660  0.62180  0.30820  Biso   1.000  H
  H163     1.0000 0.69180  0.18660  0.37820  Biso   1.000  H
  H164     1.0000 0.81340  0.62180  0.69180  Biso   1.000  H
  H165     1.0000 0.37820  0.81340  0.69180  Biso   1.000  H
  H166     1.0000 0.62180  0.81340  0.30820  Biso   1.000  H
  H167     1.0000 0.37820  0.18660  0.30820  Biso   1.000  H
  H168     1.0000 0.69180  0.81340  0.62180  Biso   1.000  H
  H169     1.0000 0.19180  0.12180  0.68660  Biso   1.000  H
  H170     1.0000 0.87820  0.19180  0.68660  Biso   1.000  H
  H171     1.0000 0.19180  0.87820  0.31340  Biso   1.000  H
  H172     1.0000 0.68660  0.19180  0.12180  Biso   1.000  H
  H173     1.0000 0.80820  0.87820  0.68660  Biso   1.000  H
  H174     1.0000 0.87820  0.80820  0.31340  Biso   1.000  H
  H175     1.0000 0.12180  0.19180  0.31340  Biso   1.000  H
  H176     1.0000 0.68660  0.87820  0.19180  Biso   1.000  H
  H177     1.0000 0.80820  0.68660  0.12180  Biso   1.000  H
  H178     1.0000 0.31340  0.19180  0.87820  Biso   1.000  H
  H179     1.0000 0.68660  0.80820  0.87820  Biso   1.000  H
  H180     1.0000 0.12180  0.68660  0.19180  Biso   1.000  H
  H181     1.0000 0.12180  0.80820  0.68660  Biso   1.000  H
  H182     1.0000 0.80820  0.12180  0.31340  Biso   1.000  H
  H183     1.0000 0.31340  0.80820  0.12180  Biso   1.000  H
  H184     1.0000 0.31340  0.87820  0.80820  Biso   1.000  H
  H185     1.0000 0.80820  0.31340  0.87820  Biso   1.000  H
  H186     1.0000 0.68660  0.12180  0.80820  Biso   1.000  H
  H187     1.0000 0.19180  0.68660  0.87820  Biso   1.000  H
  H188     1.0000 0.31340  0.12180  0.19180  Biso   1.000  H
  H189     1.0000 0.87820  0.31340  0.19180  Biso   1.000  H
  H190     1.0000 0.12180  0.31340  0.80820  Biso   1.000  H
  H191     1.0000 0.87820  0.68660  0.80820  Biso   1.000  H
  H192     1.0000 0.19180  0.31340  0.12180  Biso   1.000  H
  H193     1.0000 0.30820  0.37820  0.81340  Biso   1.000  H
  H194     1.0000 0.62180  0.30820  0.81340  Biso   1.000  H
  H195     1.0000 0.30820  0.62180  0.18660  Biso   1.000  H
  H196     1.0000 0.81340  0.30820  0.37820  Biso   1.000  H
  H197     1.0000 0.69180  0.62180  0.81340  Biso   1.000  H
  H198     1.0000 0.62180  0.69180  0.18660  Biso   1.000  H
  H199     1.0000 0.37820  0.30820  0.18660  Biso   1.000  H
  H200     1.0000 0.81340  0.62180  0.30820  Biso   1.000  H
  H201     1.0000 0.69180  0.81340  0.37820  Biso   1.000  H
  H202     1.0000 0.18660  0.30820  0.62180  Biso   1.000  H
  H203     1.0000 0.81340  0.69180  0.62180  Biso   1.000  H
  H204     1.0000 0.37820  0.81340  0.30820  Biso   1.000  H
  H205     1.0000 0.37820  0.69180  0.81340  Biso   1.000  H
  H206     1.0000 0.69180  0.37820  0.18660  Biso   1.000  H
  H207     1.0000 0.18660  0.69180  0.37820  Biso   1.000  H
  H208     1.0000 0.18660  0.62180  0.69180  Biso   1.000  H
  H209     1.0000 0.69180  0.18660  0.62180  Biso   1.000  H
  H210     1.0000 0.81340  0.37820  0.69180  Biso   1.000  H
  H211     1.0000 0.30820  0.81340  0.62180  Biso   1.000  H
  H212     1.0000 0.18660  0.37820  0.30820  Biso   1.000  H
  H213     1.0000 0.62180  0.18660  0.30820  Biso   1.000  H
  H214     1.0000 0.37820  0.18660  0.69180  Biso   1.000  H
  H215     1.0000 0.62180  0.81340  0.69180  Biso   1.000  H
  H216     1.0000 0.30820  0.18660  0.37820  Biso   1.000  H
  H217     1.0000 0.80820  0.87820  0.31340  Biso   1.000  H
  H218     1.0000 0.12180  0.80820  0.31340  Biso   1.000  H
  H219     1.0000 0.80820  0.12180  0.68660  Biso   1.000  H
  H220     1.0000 0.31340  0.80820  0.87820  Biso   1.000  H
  H221     1.0000 0.19180  0.12180  0.31340  Biso   1.000  H
  H222     1.0000 0.12180  0.19180  0.68660  Biso   1.000  H
  H223     1.0000 0.87820  0.80820  0.68660  Biso   1.000  H
  H224     1.0000 0.31340  0.12180  0.80820  Biso   1.000  H
  H225     1.0000 0.19180  0.31340  0.87820  Biso   1.000  H
  H226     1.0000 0.68660  0.80820  0.12180  Biso   1.000  H
  H227     1.0000 0.31340  0.19180  0.12180  Biso   1.000  H
  H228     1.0000 0.87820  0.31340  0.80820  Biso   1.000  H
  H229     1.0000 0.87820  0.19180  0.31340  Biso   1.000  H
  H230     1.0000 0.19180  0.87820  0.68660  Biso   1.000  H
  H231     1.0000 0.68660  0.19180  0.87820  Biso   1.000  H
  H232     1.0000 0.68660  0.12180  0.19180  Biso   1.000  H
  H233     1.0000 0.19180  0.68660  0.12180  Biso   1.000  H
  H234     1.0000 0.31340  0.87820  0.19180  Biso   1.000  H
  H235     1.0000 0.80820  0.31340  0.12180  Biso   1.000  H
  H236     1.0000 0.68660  0.87820  0.80820  Biso   1.000  H
  H237     1.0000 0.12180  0.68660  0.80820  Biso   1.000  H
  H238     1.0000 0.87820  0.68660  0.19180  Biso   1.000  H
  H239     1.0000 0.12180  0.31340  0.19180  Biso   1.000  H
  H240     1.0000 0.80820  0.68660  0.87820  Biso   1.000  H
  C529     1.0000 0.69020  0.64590  0.13760  Biso   1.000  C
  C530     1.0000 0.35410  0.69020  0.13760  Biso   1.000  C
  C531     1.0000 0.69020  0.35410  0.86240  Biso   1.000  C
  C532     1.0000 0.13760  0.69020  0.64590  Biso   1.000  C
  C533     1.0000 0.30980  0.35410  0.13760  Biso   1.000  C
  C534     1.0000 0.35410  0.30980  0.86240  Biso   1.000  C
  C535     1.0000 0.64590  0.69020  0.86240  Biso   1.000  C
  C536     1.0000 0.13760  0.35410  0.69020  Biso   1.000  C
  C537     1.0000 0.30980  0.13760  0.64590  Biso   1.000  C
  C538     1.0000 0.86240  0.69020  0.35410  Biso   1.000  C
  C539     1.0000 0.13760  0.30980  0.35410  Biso   1.000  C
  C540     1.0000 0.64590  0.13760  0.69020  Biso   1.000  C
  C541     1.0000 0.64590  0.30980  0.13760  Biso   1.000  C
  C542     1.0000 0.30980  0.64590  0.86240  Biso   1.000  C
  C543     1.0000 0.86240  0.30980  0.64590  Biso   1.000  C
  C544     1.0000 0.86240  0.35410  0.30980  Biso   1.000  C
  C545     1.0000 0.30980  0.86240  0.35410  Biso   1.000  C
  C546     1.0000 0.13760  0.64590  0.30980  Biso   1.000  C
  C547     1.0000 0.69020  0.13760  0.35410  Biso   1.000  C
  C548     1.0000 0.86240  0.64590  0.69020  Biso   1.000  C
  C549     1.0000 0.35410  0.86240  0.69020  Biso   1.000  C
  C550     1.0000 0.64590  0.86240  0.30980  Biso   1.000  C
  C551     1.0000 0.35410  0.13760  0.30980  Biso   1.000  C
  C552     1.0000 0.69020  0.86240  0.64590  Biso   1.000  C
  C553     1.0000 0.19020  0.14590  0.63760  Biso   1.000  C
  C554     1.0000 0.85410  0.19020  0.63760  Biso   1.000  C
  C555     1.0000 0.19020  0.85410  0.36240  Biso   1.000  C
  C556     1.0000 0.63760  0.19020  0.14590  Biso   1.000  C
  C557     1.0000 0.80980  0.85410  0.63760  Biso   1.000  C
  C558     1.0000 0.85410  0.80980  0.36240  Biso   1.000  C
  C559     1.0000 0.14590  0.19020  0.36240  Biso   1.000  C
  C560     1.0000 0.63760  0.85410  0.19020  Biso   1.000  C
  C561     1.0000 0.80980  0.63760  0.14590  Biso   1.000  C
  C562     1.0000 0.36240  0.19020  0.85410  Biso   1.000  C
  C563     1.0000 0.63760  0.80980  0.85410  Biso   1.000  C
  C564     1.0000 0.14590  0.63760  0.19020  Biso   1.000  C
  C565     1.0000 0.14590  0.80980  0.63760  Biso   1.000  C
  C566     1.0000 0.80980  0.14590  0.36240  Biso   1.000  C
  C567     1.0000 0.36240  0.80980  0.14590  Biso   1.000  C
  C568     1.0000 0.36240  0.85410  0.80980  Biso   1.000  C
  C569     1.0000 0.80980  0.36240  0.85410  Biso   1.000  C
  C570     1.0000 0.63760  0.14590  0.80980  Biso   1.000  C
  C571     1.0000 0.19020  0.63760  0.85410  Biso   1.000  C
  C572     1.0000 0.36240  0.14590  0.19020  Biso   1.000  C
  C573     1.0000 0.85410  0.36240  0.19020  Biso   1.000  C
  C574     1.0000 0.14590  0.36240  0.80980  Biso   1.000  C
  C575     1.0000 0.85410  0.63760  0.80980  Biso   1.000  C
  C576     1.0000 0.19020  0.36240  0.14590  Biso   1.000  C
  C577     1.0000 0.30980  0.35410  0.86240  Biso   1.000  C
  C578     1.0000 0.64590  0.30980  0.86240  Biso   1.000  C
  C579     1.0000 0.30980  0.64590  0.13760  Biso   1.000  C
  C580     1.0000 0.86240  0.30980  0.35410  Biso   1.000  C
  C581     1.0000 0.69020  0.64590  0.86240  Biso   1.000  C
  C582     1.0000 0.64590  0.69020  0.13760  Biso   1.000  C
  C583     1.0000 0.35410  0.30980  0.13760  Biso   1.000  C
  C584     1.0000 0.86240  0.64590  0.30980  Biso   1.000  C
  C585     1.0000 0.69020  0.86240  0.35410  Biso   1.000  C
  C586     1.0000 0.13760  0.30980  0.64590  Biso   1.000  C
  C587     1.0000 0.86240  0.69020  0.64590  Biso   1.000  C
  C588     1.0000 0.35410  0.86240  0.30980  Biso   1.000  C
  C589     1.0000 0.35410  0.69020  0.86240  Biso   1.000  C
  C590     1.0000 0.69020  0.35410  0.13760  Biso   1.000  C
  C591     1.0000 0.13760  0.69020  0.35410  Biso   1.000  C
  C592     1.0000 0.13760  0.64590  0.69020  Biso   1.000  C
  C593     1.0000 0.69020  0.13760  0.64590  Biso   1.000  C
  C594     1.0000 0.86240  0.35410  0.69020  Biso   1.000  C
  C595     1.0000 0.30980  0.86240  0.64590  Biso   1.000  C
  C596     1.0000 0.13760  0.35410  0.30980  Biso   1.000  C
  C597     1.0000 0.64590  0.13760  0.30980  Biso   1.000  C
  C598     1.0000 0.35410  0.13760  0.69020  Biso   1.000  C
  C599     1.0000 0.64590  0.86240  0.69020  Biso   1.000  C
  C600     1.0000 0.30980  0.13760  0.35410  Biso   1.000  C
  C601     1.0000 0.80980  0.85410  0.36240  Biso   1.000  C
  C602     1.0000 0.14590  0.80980  0.36240  Biso   1.000  C
  C603     1.0000 0.80980  0.14590  0.63760  Biso   1.000  C
  C604     1.0000 0.36240  0.80980  0.85410  Biso   1.000  C
  C605     1.0000 0.19020  0.14590  0.36240  Biso   1.000  C
  C606     1.0000 0.14590  0.19020  0.63760  Biso   1.000  C
  C607     1.0000 0.85410  0.80980  0.63760  Biso   1.000  C
  C608     1.0000 0.36240  0.14590  0.80980  Biso   1.000  C
  C609     1.0000 0.19020  0.36240  0.85410  Biso   1.000  C
  C610     1.0000 0.63760  0.80980  0.14590  Biso   1.000  C
  C611     1.0000 0.36240  0.19020  0.14590  Biso   1.000  C
  C612     1.0000 0.85410  0.36240  0.80980  Biso   1.000  C
  C613     1.0000 0.85410  0.19020  0.36240  Biso   1.000  C
  C614     1.0000 0.19020  0.85410  0.63760  Biso   1.000  C
  C615     1.0000 0.63760  0.19020  0.85410  Biso   1.000  C
  C616     1.0000 0.63760  0.14590  0.19020  Biso   1.000  C
  C617     1.0000 0.19020  0.63760  0.14590  Biso   1.000  C
  C618     1.0000 0.36240  0.85410  0.19020  Biso   1.000  C
  C619     1.0000 0.80980  0.36240  0.14590  Biso   1.000  C
  C620     1.0000 0.63760  0.85410  0.80980  Biso   1.000  C
  C621     1.0000 0.14590  0.63760  0.80980  Biso   1.000  C
  C622     1.0000 0.85410  0.63760  0.19020  Biso   1.000  C
  C623     1.0000 0.14590  0.36240  0.19020  Biso   1.000  C
  C624     1.0000 0.80980  0.63760  0.85410  Biso   1.000  C
  H241     1.0000 0.71510  0.64310  0.13180  Biso   1.000  H
  H242     1.0000 0.35690  0.71510  0.13180  Biso   1.000  H
  H243     1.0000 0.71510  0.35690  0.86820  Biso   1.000  H
  H244     1.0000 0.13180  0.71510  0.64310  Biso   1.000  H
  H245     1.0000 0.28490  0.35690  0.13180  Biso   1.000  H
  H246     1.0000 0.35690  0.28490  0.86820  Biso   1.000  H
  H247     1.0000 0.64310  0.71510  0.86820  Biso   1.000  H
  H248     1.0000 0.13180  0.35690  0.71510  Biso   1.000  H
  H249     1.0000 0.28490  0.13180  0.64310  Biso   1.000  H
  H250     1.0000 0.86820  0.71510  0.35690  Biso   1.000  H
  H251     1.0000 0.13180  0.28490  0.35690  Biso   1.000  H
  H252     1.0000 0.64310  0.13180  0.71510  Biso   1.000  H
  H253     1.0000 0.64310  0.28490  0.13180  Biso   1.000  H
  H254     1.0000 0.28490  0.64310  0.86820  Biso   1.000  H
  H255     1.0000 0.86820  0.28490  0.64310  Biso   1.000  H
  H256     1.0000 0.86820  0.35690  0.28490  Biso   1.000  H
  H257     1.0000 0.28490  0.86820  0.35690  Biso   1.000  H
  H258     1.0000 0.13180  0.64310  0.28490  Biso   1.000  H
  H259     1.0000 0.71510  0.13180  0.35690  Biso   1.000  H
  H260     1.0000 0.86820  0.64310  0.71510  Biso   1.000  H
  H261     1.0000 0.35690  0.86820  0.71510  Biso   1.000  H
  H262     1.0000 0.64310  0.86820  0.28490  Biso   1.000  H
  H263     1.0000 0.35690  0.13180  0.28490  Biso   1.000  H
  H264     1.0000 0.71510  0.86820  0.64310  Biso   1.000  H
  H265     1.0000 0.21510  0.14310  0.63180  Biso   1.000  H
  H266     1.0000 0.85690  0.21510  0.63180  Biso   1.000  H
  H267     1.0000 0.21510  0.85690  0.36820  Biso   1.000  H
  H268     1.0000 0.63180  0.21510  0.14310  Biso   1.000  H
  H269     1.0000 0.78490  0.85690  0.63180  Biso   1.000  H
  H270     1.0000 0.85690  0.78490  0.36820  Biso   1.000  H
  H271     1.0000 0.14310  0.21510  0.36820  Biso   1.000  H
  H272     1.0000 0.63180  0.85690  0.21510  Biso   1.000  H
  H273     1.0000 0.78490  0.63180  0.14310  Biso   1.000  H
  H274     1.0000 0.36820  0.21510  0.85690  Biso   1.000  H
  H275     1.0000 0.63180  0.78490  0.85690  Biso   1.000  H
  H276     1.0000 0.14310  0.63180  0.21510  Biso   1.000  H
  H277     1.0000 0.14310  0.78490  0.63180  Biso   1.000  H
  H278     1.0000 0.78490  0.14310  0.36820  Biso   1.000  H
  H279     1.0000 0.36820  0.78490  0.14310  Biso   1.000  H
  H280     1.0000 0.36820  0.85690  0.78490  Biso   1.000  H
  H281     1.0000 0.78490  0.36820  0.85690  Biso   1.000  H
  H282     1.0000 0.63180  0.14310  0.78490  Biso   1.000  H
  H283     1.0000 0.21510  0.63180  0.85690  Biso   1.000  H
  H284     1.0000 0.36820  0.14310  0.21510  Biso   1.000  H
  H285     1.0000 0.85690  0.36820  0.21510  Biso   1.000  H
  H286     1.0000 0.14310  0.36820  0.78490  Biso   1.000  H
  H287     1.0000 0.85690  0.63180  0.78490  Biso   1.000  H
  H288     1.0000 0.21510  0.36820  0.14310  Biso   1.000  H
  H289     1.0000 0.28490  0.35690  0.86820  Biso   1.000  H
  H290     1.0000 0.64310  0.28490  0.86820  Biso   1.000  H
  H291     1.0000 0.28490  0.64310  0.13180  Biso   1.000  H
  H292     1.0000 0.86820  0.28490  0.35690  Biso   1.000  H
  H293     1.0000 0.71510  0.64310  0.86820  Biso   1.000  H
  H294     1.0000 0.64310  0.71510  0.13180  Biso   1.000  H
  H295     1.0000 0.35690  0.28490  0.13180  Biso   1.000  H
  H296     1.0000 0.86820  0.64310  0.28490  Biso   1.000  H
  H297     1.0000 0.71510  0.86820  0.35690  Biso   1.000  H
  H298     1.0000 0.13180  0.28490  0.64310  Biso   1.000  H
  H299     1.0000 0.86820  0.71510  0.64310  Biso   1.000  H
  H300     1.0000 0.35690  0.86820  0.28490  Biso   1.000  H
  H301     1.0000 0.35690  0.71510  0.86820  Biso   1.000  H
  H302     1.0000 0.71510  0.35690  0.13180  Biso   1.000  H
  H303     1.0000 0.13180  0.71510  0.35690  Biso   1.000  H
  H304     1.0000 0.13180  0.64310  0.71510  Biso   1.000  H
  H305     1.0000 0.71510  0.13180  0.64310  Biso   1.000  H
  H306     1.0000 0.86820  0.35690  0.71510  Biso   1.000  H
  H307     1.0000 0.28490  0.86820  0.64310  Biso   1.000  H
  H308     1.0000 0.13180  0.35690  0.28490  Biso   1.000  H
  H309     1.0000 0.64310  0.13180  0.28490  Biso   1.000  H
  H310     1.0000 0.35690  0.13180  0.71510  Biso   1.000  H
  H311     1.0000 0.64310  0.86820  0.71510  Biso   1.000  H
  H312     1.0000 0.28490  0.13180  0.35690  Biso   1.000  H
  H313     1.0000 0.78490  0.85690  0.36820  Biso   1.000  H
  H314     1.0000 0.14310  0.78490  0.36820  Biso   1.000  H
  H315     1.0000 0.78490  0.14310  0.63180  Biso   1.000  H
  H316     1.0000 0.36820  0.78490  0.85690  Biso   1.000  H
  H317     1.0000 0.21510  0.14310  0.36820  Biso   1.000  H
  H318     1.0000 0.14310  0.21510  0.63180  Biso   1.000  H
  H319     1.0000 0.85690  0.78490  0.63180  Biso   1.000  H
  H320     1.0000 0.36820  0.14310  0.78490  Biso   1.000  H
  H321     1.0000 0.21510  0.36820  0.85690  Biso   1.000  H
  H322     1.0000 0.63180  0.78490  0.14310  Biso   1.000  H
  H323     1.0000 0.36820  0.21510  0.14310  Biso   1.000  H
  H324     1.0000 0.85690  0.36820  0.78490  Biso   1.000  H
  H325     1.0000 0.85690  0.21510  0.36820  Biso   1.000  H
  H326     1.0000 0.21510  0.85690  0.63180  Biso   1.000  H
  H327     1.0000 0.63180  0.21510  0.85690  Biso   1.000  H
  H328     1.0000 0.63180  0.14310  0.21510  Biso   1.000  H
  H329     1.0000 0.21510  0.63180  0.14310  Biso   1.000  H
  H330     1.0000 0.36820  0.85690  0.21510  Biso   1.000  H
  H331     1.0000 0.78490  0.36820  0.14310  Biso   1.000  H
  H332     1.0000 0.63180  0.85690  0.78490  Biso   1.000  H
  H333     1.0000 0.14310  0.63180  0.78490  Biso   1.000  H
  H334     1.0000 0.85690  0.63180  0.21510  Biso   1.000  H
  H335     1.0000 0.14310  0.36820  0.21510  Biso   1.000  H
  H336     1.0000 0.78490  0.63180  0.85690  Biso   1.000  H
  C625     1.0000 0.66443  0.66443  0.11189  Biso   1.000  C
  C626     1.0000 0.33557  0.66443  0.11189  Biso   1.000  C
  C627     1.0000 0.66443  0.33557  0.88811  Biso   1.000  C
  C628     1.0000 0.11189  0.66443  0.66443  Biso   1.000  C
  C629     1.0000 0.33557  0.33557  0.11189  Biso   1.000  C
  C630     1.0000 0.33557  0.33557  0.88811  Biso   1.000  C
  C631     1.0000 0.66443  0.66443  0.88811  Biso   1.000  C
  C632     1.0000 0.11189  0.33557  0.66443  Biso   1.000  C
  C633     1.0000 0.33557  0.11189  0.66443  Biso   1.000  C
  C634     1.0000 0.88811  0.66443  0.33557  Biso   1.000  C
  C635     1.0000 0.11189  0.33557  0.33557  Biso   1.000  C
  C636     1.0000 0.66443  0.11189  0.66443  Biso   1.000  C
  C637     1.0000 0.66443  0.33557  0.11189  Biso   1.000  C
  C638     1.0000 0.33557  0.66443  0.88811  Biso   1.000  C
  C639     1.0000 0.88811  0.33557  0.66443  Biso   1.000  C
  C640     1.0000 0.88811  0.33557  0.33557  Biso   1.000  C
  C641     1.0000 0.33557  0.88811  0.33557  Biso   1.000  C
  C642     1.0000 0.11189  0.66443  0.33557  Biso   1.000  C
  C643     1.0000 0.66443  0.11189  0.33557  Biso   1.000  C
  C644     1.0000 0.88811  0.66443  0.66443  Biso   1.000  C
  C645     1.0000 0.33557  0.88811  0.66443  Biso   1.000  C
  C646     1.0000 0.66443  0.88811  0.33557  Biso   1.000  C
  C647     1.0000 0.33557  0.11189  0.33557  Biso   1.000  C
  C648     1.0000 0.66443  0.88811  0.66443  Biso   1.000  C
  C649     1.0000 0.16443  0.16443  0.61189  Biso   1.000  C
  C650     1.0000 0.83557  0.16443  0.61189  Biso   1.000  C
  C651     1.0000 0.16443  0.83557  0.38811  Biso   1.000  C
  C652     1.0000 0.61189  0.16443  0.16443  Biso   1.000  C
  C653     1.0000 0.83557  0.83557  0.61189  Biso   1.000  C
  C654     1.0000 0.83557  0.83557  0.38811  Biso   1.000  C
  C655     1.0000 0.16443  0.16443  0.38811  Biso   1.000  C
  C656     1.0000 0.61189  0.83557  0.16443  Biso   1.000  C
  C657     1.0000 0.83557  0.61189  0.16443  Biso   1.000  C
  C658     1.0000 0.38811  0.16443  0.83557  Biso   1.000  C
  C659     1.0000 0.61189  0.83557  0.83557  Biso   1.000  C
  C660     1.0000 0.16443  0.61189  0.16443  Biso   1.000  C
  C661     1.0000 0.16443  0.83557  0.61189  Biso   1.000  C
  C662     1.0000 0.83557  0.16443  0.38811  Biso   1.000  C
  C663     1.0000 0.38811  0.83557  0.16443  Biso   1.000  C
  C664     1.0000 0.38811  0.83557  0.83557  Biso   1.000  C
  C665     1.0000 0.83557  0.38811  0.83557  Biso   1.000  C
  C666     1.0000 0.61189  0.16443  0.83557  Biso   1.000  C
  C667     1.0000 0.16443  0.61189  0.83557  Biso   1.000  C
  C668     1.0000 0.38811  0.16443  0.16443  Biso   1.000  C
  C669     1.0000 0.83557  0.38811  0.16443  Biso   1.000  C
  C670     1.0000 0.16443  0.38811  0.83557  Biso   1.000  C
  C671     1.0000 0.83557  0.61189  0.83557  Biso   1.000  C
  C672     1.0000 0.16443  0.38811  0.16443  Biso   1.000  C
  C673     1.0000 0.63020  0.66110  0.11840  Biso   1.000  C
  C674     1.0000 0.33890  0.63020  0.11840  Biso   1.000  C
  C675     1.0000 0.63020  0.33890  0.88160  Biso   1.000  C
  C676     1.0000 0.11840  0.63020  0.66110  Biso   1.000  C
  C677     1.0000 0.36980  0.33890  0.11840  Biso   1.000  C
  C678     1.0000 0.33890  0.36980  0.88160  Biso   1.000  C
  C679     1.0000 0.66110  0.63020  0.88160  Biso   1.000  C
  C680     1.0000 0.11840  0.33890  0.63020  Biso   1.000  C
  C681     1.0000 0.36980  0.11840  0.66110  Biso   1.000  C
  C682     1.0000 0.88160  0.63020  0.33890  Biso   1.000  C
  C683     1.0000 0.11840  0.36980  0.33890  Biso   1.000  C
  C684     1.0000 0.66110  0.11840  0.63020  Biso   1.000  C
  C685     1.0000 0.66110  0.36980  0.11840  Biso   1.000  C
  C686     1.0000 0.36980  0.66110  0.88160  Biso   1.000  C
  C687     1.0000 0.88160  0.36980  0.66110  Biso   1.000  C
  C688     1.0000 0.88160  0.33890  0.36980  Biso   1.000  C
  C689     1.0000 0.36980  0.88160  0.33890  Biso   1.000  C
  C690     1.0000 0.11840  0.66110  0.36980  Biso   1.000  C
  C691     1.0000 0.63020  0.11840  0.33890  Biso   1.000  C
  C692     1.0000 0.88160  0.66110  0.63020  Biso   1.000  C
  C693     1.0000 0.33890  0.88160  0.63020  Biso   1.000  C
  C694     1.0000 0.66110  0.88160  0.36980  Biso   1.000  C
  C695     1.0000 0.33890  0.11840  0.36980  Biso   1.000  C
  C696     1.0000 0.63020  0.88160  0.66110  Biso   1.000  C
  C697     1.0000 0.13020  0.16110  0.61840  Biso   1.000  C
  C698     1.0000 0.83890  0.13020  0.61840  Biso   1.000  C
  C699     1.0000 0.13020  0.83890  0.38160  Biso   1.000  C
  C700     1.0000 0.61840  0.13020  0.16110  Biso   1.000  C
  C701     1.0000 0.86980  0.83890  0.61840  Biso   1.000  C
  C702     1.0000 0.83890  0.86980  0.38160  Biso   1.000  C
  C703     1.0000 0.16110  0.13020  0.38160  Biso   1.000  C
  C704     1.0000 0.61840  0.83890  0.13020  Biso   1.000  C
  C705     1.0000 0.86980  0.61840  0.16110  Biso   1.000  C
  C706     1.0000 0.38160  0.13020  0.83890  Biso   1.000  C
  C707     1.0000 0.61840  0.86980  0.83890  Biso   1.000  C
  C708     1.0000 0.16110  0.61840  0.13020  Biso   1.000  C
  C709     1.0000 0.16110  0.86980  0.61840  Biso   1.000  C
  C710     1.0000 0.86980  0.16110  0.38160  Biso   1.000  C
  C711     1.0000 0.38160  0.86980  0.16110  Biso   1.000  C
  C712     1.0000 0.38160  0.83890  0.86980  Biso   1.000  C
  C713     1.0000 0.86980  0.38160  0.83890  Biso   1.000  C
  C714     1.0000 0.61840  0.16110  0.86980  Biso   1.000  C
  C715     1.0000 0.13020  0.61840  0.83890  Biso   1.000  C
  C716     1.0000 0.38160  0.16110  0.13020  Biso   1.000  C
  C717     1.0000 0.83890  0.38160  0.13020  Biso   1.000  C
  C718     1.0000 0.16110  0.38160  0.86980  Biso   1.000  C
  C719     1.0000 0.83890  0.61840  0.86980  Biso   1.000  C
  C720     1.0000 0.13020  0.38160  0.16110  Biso   1.000  C
  C721     1.0000 0.36980  0.33890  0.88160  Biso   1.000  C
  C722     1.0000 0.66110  0.36980  0.88160  Biso   1.000  C
  C723     1.0000 0.36980  0.66110  0.11840  Biso   1.000  C
  C724     1.0000 0.88160  0.36980  0.33890  Biso   1.000  C
  C725     1.0000 0.63020  0.66110  0.88160  Biso   1.000  C
  C726     1.0000 0.66110  0.63020  0.11840  Biso   1.000  C
  C727     1.0000 0.33890  0.36980  0.11840  Biso   1.000  C
  C728     1.0000 0.88160  0.66110  0.36980  Biso   1.000  C
  C729     1.0000 0.63020  0.88160  0.33890  Biso   1.000  C
  C730     1.0000 0.11840  0.36980  0.66110  Biso   1.000  C
  C731     1.0000 0.88160  0.63020  0.66110  Biso   1.000  C
  C732     1.0000 0.33890  0.88160  0.36980  Biso   1.000  C
  C733     1.0000 0.33890  0.63020  0.88160  Biso   1.000  C
  C734     1.0000 0.63020  0.33890  0.11840  Biso   1.000  C
  C735     1.0000 0.11840  0.63020  0.33890  Biso   1.000  C
  C736     1.0000 0.11840  0.66110  0.63020  Biso   1.000  C
  C737     1.0000 0.63020  0.11840  0.66110  Biso   1.000  C
  C738     1.0000 0.88160  0.33890  0.63020  Biso   1.000  C
  C739     1.0000 0.36980  0.88160  0.66110  Biso   1.000  C
  C740     1.0000 0.11840  0.33890  0.36980  Biso   1.000  C
  C741     1.0000 0.66110  0.11840  0.36980  Biso   1.000  C
  C742     1.0000 0.33890  0.11840  0.63020  Biso   1.000  C
  C743     1.0000 0.66110  0.88160  0.63020  Biso   1.000  C
  C744     1.0000 0.36980  0.11840  0.33890  Biso   1.000  C
  C745     1.0000 0.86980  0.83890  0.38160  Biso   1.000  C
  C746     1.0000 0.16110  0.86980  0.38160  Biso   1.000  C
  C747     1.0000 0.86980  0.16110  0.61840  Biso   1.000  C
  C748     1.0000 0.38160  0.86980  0.83890  Biso   1.000  C
  C749     1.0000 0.13020  0.16110  0.38160  Biso   1.000  C
  C750     1.0000 0.16110  0.13020  0.61840  Biso   1.000  C
  C751     1.0000 0.83890  0.86980  0.61840  Biso   1.000  C
  C752     1.0000 0.38160  0.16110  0.86980  Biso   1.000  C
  C753     1.0000 0.13020  0.38160  0.83890  Biso   1.000  C
  C754     1.0000 0.61840  0.86980  0.16110  Biso   1.000  C
  C755     1.0000 0.38160  0.13020  0.16110  Biso   1.000  C
  C756     1.0000 0.83890  0.38160  0.86980  Biso   1.000  C
  C757     1.0000 0.83890  0.13020  0.38160  Biso   1.000  C
  C758     1.0000 0.13020  0.83890  0.61840  Biso   1.000  C
  C759     1.0000 0.61840  0.13020  0.83890  Biso   1.000  C
  C760     1.0000 0.61840  0.16110  0.13020  Biso   1.000  C
  C761     1.0000 0.13020  0.61840  0.16110  Biso   1.000  C
  C762     1.0000 0.38160  0.83890  0.13020  Biso   1.000  C
  C763     1.0000 0.86980  0.38160  0.16110  Biso   1.000  C
  C764     1.0000 0.61840  0.83890  0.86980  Biso   1.000  C
  C765     1.0000 0.16110  0.61840  0.86980  Biso   1.000  C
  C766     1.0000 0.83890  0.61840  0.13020  Biso   1.000  C
  C767     1.0000 0.16110  0.38160  0.13020  Biso   1.000  C
  C768     1.0000 0.86980  0.61840  0.83890  Biso   1.000  C
  H337     1.0000 0.61350  0.66740  0.10000  Biso   1.000  H
  H338     1.0000 0.33260  0.61350  0.10000  Biso   1.000  H
  H339     1.0000 0.61350  0.33260  0.90000  Biso   1.000  H
  H340     1.0000 0.10000  0.61350  0.66740  Biso   1.000  H
  H341     1.0000 0.38650  0.33260  0.10000  Biso   1.000  H
  H342     1.0000 0.33260  0.38650  0.90000  Biso   1.000  H
  H343     1.0000 0.66740  0.61350  0.90000  Biso   1.000  H
  H344     1.0000 0.10000  0.33260  0.61350  Biso   1.000  H
  H345     1.0000 0.38650  0.10000  0.66740  Biso   1.000  H
  H346     1.0000 0.90000  0.61350  0.33260  Biso   1.000  H
  H347     1.0000 0.10000  0.38650  0.33260  Biso   1.000  H
  H348     1.0000 0.66740  0.10000  0.61350  Biso   1.000  H
  H349     1.0000 0.66740  0.38650  0.10000  Biso   1.000  H
  H350     1.0000 0.38650  0.66740  0.90000  Biso   1.000  H
  H351     1.0000 0.90000  0.38650  0.66740  Biso   1.000  H
  H352     1.0000 0.90000  0.33260  0.38650  Biso   1.000  H
  H353     1.0000 0.38650  0.90000  0.33260  Biso   1.000  H
  H354     1.0000 0.10000  0.66740  0.38650  Biso   1.000  H
  H355     1.0000 0.61350  0.10000  0.33260  Biso   1.000  H
  H356     1.0000 0.90000  0.66740  0.61350  Biso   1.000  H
  H357     1.0000 0.33260  0.90000  0.61350  Biso   1.000  H
  H358     1.0000 0.66740  0.90000  0.38650  Biso   1.000  H
  H359     1.0000 0.33260  0.10000  0.38650  Biso   1.000  H
  H360     1.0000 0.61350  0.90000  0.66740  Biso   1.000  H
  H361     1.0000 0.11350  0.16740  0.60000  Biso   1.000  H
  H362     1.0000 0.83260  0.11350  0.60000  Biso   1.000  H
  H363     1.0000 0.11350  0.83260  0.40000  Biso   1.000  H
  H364     1.0000 0.60000  0.11350  0.16740  Biso   1.000  H
  H365     1.0000 0.88650  0.83260  0.60000  Biso   1.000  H
  H366     1.0000 0.83260  0.88650  0.40000  Biso   1.000  H
  H367     1.0000 0.16740  0.11350  0.40000  Biso   1.000  H
  H368     1.0000 0.60000  0.83260  0.11350  Biso   1.000  H
  H369     1.0000 0.88650  0.60000  0.16740  Biso   1.000  H
  H370     1.0000 0.40000  0.11350  0.83260  Biso   1.000  H
  H371     1.0000 0.60000  0.88650  0.83260  Biso   1.000  H
  H372     1.0000 0.16740  0.60000  0.11350  Biso   1.000  H
  H373     1.0000 0.16740  0.88650  0.60000  Biso   1.000  H
  H374     1.0000 0.88650  0.16740  0.40000  Biso   1.000  H
  H375     1.0000 0.40000  0.88650  0.16740  Biso   1.000  H
  H376     1.0000 0.40000  0.83260  0.88650  Biso   1.000  H
  H377     1.0000 0.88650  0.40000  0.83260  Biso   1.000  H
  H378     1.0000 0.60000  0.16740  0.88650  Biso   1.000  H
  H379     1.0000 0.11350  0.60000  0.83260  Biso   1.000  H
  H380     1.0000 0.40000  0.16740  0.11350  Biso   1.000  H
  H381     1.0000 0.83260  0.40000  0.11350  Biso   1.000  H
  H382     1.0000 0.16740  0.40000  0.88650  Biso   1.000  H
  H383     1.0000 0.83260  0.60000  0.88650  Biso   1.000  H
  H384     1.0000 0.11350  0.40000  0.16740  Biso   1.000  H
  H385     1.0000 0.38650  0.33260  0.90000  Biso   1.000  H
  H386     1.0000 0.66740  0.38650  0.90000  Biso   1.000  H
  H387     1.0000 0.38650  0.66740  0.10000  Biso   1.000  H
  H388     1.0000 0.90000  0.38650  0.33260  Biso   1.000  H
  H389     1.0000 0.61350  0.66740  0.90000  Biso   1.000  H
  H390     1.0000 0.66740  0.61350  0.10000  Biso   1.000  H
  H391     1.0000 0.33260  0.38650  0.10000  Biso   1.000  H
  H392     1.0000 0.90000  0.66740  0.38650  Biso   1.000  H
  H393     1.0000 0.61350  0.90000  0.33260  Biso   1.000  H
  H394     1.0000 0.10000  0.38650  0.66740  Biso   1.000  H
  H395     1.0000 0.90000  0.61350  0.66740  Biso   1.000  H
  H396     1.0000 0.33260  0.90000  0.38650  Biso   1.000  H
  H397     1.0000 0.33260  0.61350  0.90000  Biso   1.000  H
  H398     1.0000 0.61350  0.33260  0.10000  Biso   1.000  H
  H399     1.0000 0.10000  0.61350  0.33260  Biso   1.000  H
  H400     1.0000 0.10000  0.66740  0.61350  Biso   1.000  H
  H401     1.0000 0.61350  0.10000  0.66740  Biso   1.000  H
  H402     1.0000 0.90000  0.33260  0.61350  Biso   1.000  H
  H403     1.0000 0.38650  0.90000  0.66740  Biso   1.000  H
  H404     1.0000 0.10000  0.33260  0.38650  Biso   1.000  H
  H405     1.0000 0.66740  0.10000  0.38650  Biso   1.000  H
  H406     1.0000 0.33260  0.10000  0.61350  Biso   1.000  H
  H407     1.0000 0.66740  0.90000  0.61350  Biso   1.000  H
  H408     1.0000 0.38650  0.10000  0.33260  Biso   1.000  H
  H409     1.0000 0.88650  0.83260  0.40000  Biso   1.000  H
  H410     1.0000 0.16740  0.88650  0.40000  Biso   1.000  H
  H411     1.0000 0.88650  0.16740  0.60000  Biso   1.000  H
  H412     1.0000 0.40000  0.88650  0.83260  Biso   1.000  H
  H413     1.0000 0.11350  0.16740  0.40000  Biso   1.000  H
  H414     1.0000 0.16740  0.11350  0.60000  Biso   1.000  H
  H415     1.0000 0.83260  0.88650  0.60000  Biso   1.000  H
  H416     1.0000 0.40000  0.16740  0.88650  Biso   1.000  H
  H417     1.0000 0.11350  0.40000  0.83260  Biso   1.000  H
  H418     1.0000 0.60000  0.88650  0.16740  Biso   1.000  H
  H419     1.0000 0.40000  0.11350  0.16740  Biso   1.000  H
  H420     1.0000 0.83260  0.40000  0.88650  Biso   1.000  H
  H421     1.0000 0.83260  0.11350  0.40000  Biso   1.000  H
  H422     1.0000 0.11350  0.83260  0.60000  Biso   1.000  H
  H423     1.0000 0.60000  0.11350  0.83260  Biso   1.000  H
  H424     1.0000 0.60000  0.16740  0.11350  Biso   1.000  H
  H425     1.0000 0.11350  0.60000  0.16740  Biso   1.000  H
  H426     1.0000 0.40000  0.83260  0.11350  Biso   1.000  H
  H427     1.0000 0.88650  0.40000  0.16740  Biso   1.000  H
  H428     1.0000 0.60000  0.83260  0.88650  Biso   1.000  H
  H429     1.0000 0.16740  0.60000  0.88650  Biso   1.000  H
  H430     1.0000 0.83260  0.60000  0.11350  Biso   1.000  H
  H431     1.0000 0.16740  0.40000  0.11350  Biso   1.000  H
  H432     1.0000 0.88650  0.60000  0.83260  Biso   1.000  H
  C769     1.0000 0.61710  0.64850  0.15170  Biso   1.000  C
  C770     1.0000 0.35150  0.61710  0.15170  Biso   1.000  C
  C771     1.0000 0.61710  0.35150  0.84830  Biso   1.000  C
  C772     1.0000 0.15170  0.61710  0.64850  Biso   1.000  C
  C773     1.0000 0.38290  0.35150  0.15170  Biso   1.000  C
  C774     1.0000 0.35150  0.38290  0.84830  Biso   1.000  C
  C775     1.0000 0.64850  0.61710  0.84830  Biso   1.000  C
  C776     1.0000 0.15170  0.35150  0.61710  Biso   1.000  C
  C777     1.0000 0.38290  0.15170  0.64850  Biso   1.000  C
  C778     1.0000 0.84830  0.61710  0.35150  Biso   1.000  C
  C779     1.0000 0.15170  0.38290  0.35150  Biso   1.000  C
  C780     1.0000 0.64850  0.15170  0.61710  Biso   1.000  C
  C781     1.0000 0.64850  0.38290  0.15170  Biso   1.000  C
  C782     1.0000 0.38290  0.64850  0.84830  Biso   1.000  C
  C783     1.0000 0.84830  0.38290  0.64850  Biso   1.000  C
  C784     1.0000 0.84830  0.35150  0.38290  Biso   1.000  C
  C785     1.0000 0.38290  0.84830  0.35150  Biso   1.000  C
  C786     1.0000 0.15170  0.64850  0.38290  Biso   1.000  C
  C787     1.0000 0.61710  0.15170  0.35150  Biso   1.000  C
  C788     1.0000 0.84830  0.64850  0.61710  Biso   1.000  C
  C789     1.0000 0.35150  0.84830  0.61710  Biso   1.000  C
  C790     1.0000 0.64850  0.84830  0.38290  Biso   1.000  C
  C791     1.0000 0.35150  0.15170  0.38290  Biso   1.000  C
  C792     1.0000 0.61710  0.84830  0.64850  Biso   1.000  C
  C793     1.0000 0.11710  0.14850  0.65170  Biso   1.000  C
  C794     1.0000 0.85150  0.11710  0.65170  Biso   1.000  C
  C795     1.0000 0.11710  0.85150  0.34830  Biso   1.000  C
  C796     1.0000 0.65170  0.11710  0.14850  Biso   1.000  C
  C797     1.0000 0.88290  0.85150  0.65170  Biso   1.000  C
  C798     1.0000 0.85150  0.88290  0.34830  Biso   1.000  C
  C799     1.0000 0.14850  0.11710  0.34830  Biso   1.000  C
  C800     1.0000 0.65170  0.85150  0.11710  Biso   1.000  C
  C801     1.0000 0.88290  0.65170  0.14850  Biso   1.000  C
  C802     1.0000 0.34830  0.11710  0.85150  Biso   1.000  C
  C803     1.0000 0.65170  0.88290  0.85150  Biso   1.000  C
  C804     1.0000 0.14850  0.65170  0.11710  Biso   1.000  C
  C805     1.0000 0.14850  0.88290  0.65170  Biso   1.000  C
  C806     1.0000 0.88290  0.14850  0.34830  Biso   1.000  C
  C807     1.0000 0.34830  0.88290  0.14850  Biso   1.000  C
  C808     1.0000 0.34830  0.85150  0.88290  Biso   1.000  C
  C809     1.0000 0.88290  0.34830  0.85150  Biso   1.000  C
  C810     1.0000 0.65170  0.14850  0.88290  Biso   1.000  C
  C811     1.0000 0.11710  0.65170  0.85150  Biso   1.000  C
  C812     1.0000 0.34830  0.14850  0.11710  Biso   1.000  C
  C813     1.0000 0.85150  0.34830  0.11710  Biso   1.000  C
  C814     1.0000 0.14850  0.34830  0.88290  Biso   1.000  C
  C815     1.0000 0.85150  0.65170  0.88290  Biso   1.000  C
  C816     1.0000 0.11710  0.34830  0.14850  Biso   1.000  C
  C817     1.0000 0.38290  0.35150  0.84830  Biso   1.000  C
  C818     1.0000 0.64850  0.38290  0.84830  Biso   1.000  C
  C819     1.0000 0.38290  0.64850  0.15170  Biso   1.000  C
  C820     1.0000 0.84830  0.38290  0.35150  Biso   1.000  C
  C821     1.0000 0.61710  0.64850  0.84830  Biso   1.000  C
  C822     1.0000 0.64850  0.61710  0.15170  Biso   1.000  C
  C823     1.0000 0.35150  0.38290  0.15170  Biso   1.000  C
  C824     1.0000 0.84830  0.64850  0.38290  Biso   1.000  C
  C825     1.0000 0.61710  0.84830  0.35150  Biso   1.000  C
  C826     1.0000 0.15170  0.38290  0.64850  Biso   1.000  C
  C827     1.0000 0.84830  0.61710  0.64850  Biso   1.000  C
  C828     1.0000 0.35150  0.84830  0.38290  Biso   1.000  C
  C829     1.0000 0.35150  0.61710  0.84830  Biso   1.000  C
  C830     1.0000 0.61710  0.35150  0.15170  Biso   1.000  C
  C831     1.0000 0.15170  0.61710  0.35150  Biso   1.000  C
  C832     1.0000 0.15170  0.64850  0.61710  Biso   1.000  C
  C833     1.0000 0.61710  0.15170  0.64850  Biso   1.000  C
  C834     1.0000 0.84830  0.35150  0.61710  Biso   1.000  C
  C835     1.0000 0.38290  0.84830  0.64850  Biso   1.000  C
  C836     1.0000 0.15170  0.35150  0.38290  Biso   1.000  C
  C837     1.0000 0.64850  0.15170  0.38290  Biso   1.000  C
  C838     1.0000 0.35150  0.15170  0.61710  Biso   1.000  C
  C839     1.0000 0.64850  0.84830  0.61710  Biso   1.000  C
  C840     1.0000 0.38290  0.15170  0.35150  Biso   1.000  C
  C841     1.0000 0.88290  0.85150  0.34830  Biso   1.000  C
  C842     1.0000 0.14850  0.88290  0.34830  Biso   1.000  C
  C843     1.0000 0.88290  0.14850  0.65170  Biso   1.000  C
  C844     1.0000 0.34830  0.88290  0.85150  Biso   1.000  C
  C845     1.0000 0.11710  0.14850  0.34830  Biso   1.000  C
  C846     1.0000 0.14850  0.11710  0.65170  Biso   1.000  C
  C847     1.0000 0.85150  0.88290  0.65170  Biso   1.000  C
  C848     1.0000 0.34830  0.14850  0.88290  Biso   1.000  C
  C849     1.0000 0.11710  0.34830  0.85150  Biso   1.000  C
  C850     1.0000 0.65170  0.88290  0.14850  Biso   1.000  C
  C851     1.0000 0.34830  0.11710  0.14850  Biso   1.000  C
  C852     1.0000 0.85150  0.34830  0.88290  Biso   1.000  C
  C853     1.0000 0.85150  0.11710  0.34830  Biso   1.000  C
  C854     1.0000 0.11710  0.85150  0.65170  Biso   1.000  C
  C855     1.0000 0.65170  0.11710  0.85150  Biso   1.000  C
  C856     1.0000 0.65170  0.14850  0.11710  Biso   1.000  C
  C857     1.0000 0.11710  0.65170  0.14850  Biso   1.000  C
  C858     1.0000 0.34830  0.85150  0.11710  Biso   1.000  C
  C859     1.0000 0.88290  0.34830  0.14850  Biso   1.000  C
  C860     1.0000 0.65170  0.85150  0.88290  Biso   1.000  C
  C861     1.0000 0.14850  0.65170  0.88290  Biso   1.000  C
  C862     1.0000 0.85150  0.65170  0.11710  Biso   1.000  C
  C863     1.0000 0.14850  0.34830  0.11710  Biso   1.000  C
  C864     1.0000 0.88290  0.65170  0.85150  Biso   1.000  C
  H433     1.0000 0.59160  0.64780  0.15510  Biso   1.000  H
  H434     1.0000 0.35220  0.59160  0.15510  Biso   1.000  H
  H435     1.0000 0.59160  0.35220  0.84490  Biso   1.000  H
  H436     1.0000 0.15510  0.59160  0.64780  Biso   1.000  H
  H437     1.0000 0.40840  0.35220  0.15510  Biso   1.000  H
  H438     1.0000 0.35220  0.40840  0.84490  Biso   1.000  H
  H439     1.0000 0.64780  0.59160  0.84490  Biso   1.000  H
  H440     1.0000 0.15510  0.35220  0.59160  Biso   1.000  H
  H441     1.0000 0.40840  0.15510  0.64780  Biso   1.000  H
  H442     1.0000 0.84490  0.59160  0.35220  Biso   1.000  H
  H443     1.0000 0.15510  0.40840  0.35220  Biso   1.000  H
  H444     1.0000 0.64780  0.15510  0.59160  Biso   1.000  H
  H445     1.0000 0.64780  0.40840  0.15510  Biso   1.000  H
  H446     1.0000 0.40840  0.64780  0.84490  Biso   1.000  H
  H447     1.0000 0.84490  0.40840  0.64780  Biso   1.000  H
  H448     1.0000 0.84490  0.35220  0.40840  Biso   1.000  H
  H449     1.0000 0.40840  0.84490  0.35220  Biso   1.000  H
  H450     1.0000 0.15510  0.64780  0.40840  Biso   1.000  H
  H451     1.0000 0.59160  0.15510  0.35220  Biso   1.000  H
  H452     1.0000 0.84490  0.64780  0.59160  Biso   1.000  H
  H453     1.0000 0.35220  0.84490  0.59160  Biso   1.000  H
  H454     1.0000 0.64780  0.84490  0.40840  Biso   1.000  H
  H455     1.0000 0.35220  0.15510  0.40840  Biso   1.000  H
  H456     1.0000 0.59160  0.84490  0.64780  Biso   1.000  H
  H457     1.0000 0.09160  0.14780  0.65510  Biso   1.000  H
  H458     1.0000 0.85220  0.09160  0.65510  Biso   1.000  H
  H459     1.0000 0.09160  0.85220  0.34490  Biso   1.000  H
  H460     1.0000 0.65510  0.09160  0.14780  Biso   1.000  H
  H461     1.0000 0.90840  0.85220  0.65510  Biso   1.000  H
  H462     1.0000 0.85220  0.90840  0.34490  Biso   1.000  H
  H463     1.0000 0.14780  0.09160  0.34490  Biso   1.000  H
  H464     1.0000 0.65510  0.85220  0.09160  Biso   1.000  H
  H465     1.0000 0.90840  0.65510  0.14780  Biso   1.000  H
  H466     1.0000 0.34490  0.09160  0.85220  Biso   1.000  H
  H467     1.0000 0.65510  0.90840  0.85220  Biso   1.000  H
  H468     1.0000 0.14780  0.65510  0.09160  Biso   1.000  H
  H469     1.0000 0.14780  0.90840  0.65510  Biso   1.000  H
  H470     1.0000 0.90840  0.14780  0.34490  Biso   1.000  H
  H471     1.0000 0.34490  0.90840  0.14780  Biso   1.000  H
  H472     1.0000 0.34490  0.85220  0.90840  Biso   1.000  H
  H473     1.0000 0.90840  0.34490  0.85220  Biso   1.000  H
  H474     1.0000 0.65510  0.14780  0.90840  Biso   1.000  H
  H475     1.0000 0.09160  0.65510  0.85220  Biso   1.000  H
  H476     1.0000 0.34490  0.14780  0.09160  Biso   1.000  H
  H477     1.0000 0.85220  0.34490  0.09160  Biso   1.000  H
  H478     1.0000 0.14780  0.34490  0.90840  Biso   1.000  H
  H479     1.0000 0.85220  0.65510  0.90840  Biso   1.000  H
  H480     1.0000 0.09160  0.34490  0.14780  Biso   1.000  H
  H481     1.0000 0.40840  0.35220  0.84490  Biso   1.000  H
  H482     1.0000 0.64780  0.40840  0.84490  Biso   1.000  H
  H483     1.0000 0.40840  0.64780  0.15510  Biso   1.000  H
  H484     1.0000 0.84490  0.40840  0.35220  Biso   1.000  H
  H485     1.0000 0.59160  0.64780  0.84490  Biso   1.000  H
  H486     1.0000 0.64780  0.59160  0.15510  Biso   1.000  H
  H487     1.0000 0.35220  0.40840  0.15510  Biso   1.000  H
  H488     1.0000 0.84490  0.64780  0.40840  Biso   1.000  H
  H489     1.0000 0.59160  0.84490  0.35220  Biso   1.000  H
  H490     1.0000 0.15510  0.40840  0.64780  Biso   1.000  H
  H491     1.0000 0.84490  0.59160  0.64780  Biso   1.000  H
  H492     1.0000 0.35220  0.84490  0.40840  Biso   1.000  H
  H493     1.0000 0.35220  0.59160  0.84490  Biso   1.000  H
  H494     1.0000 0.59160  0.35220  0.15510  Biso   1.000  H
  H495     1.0000 0.15510  0.59160  0.35220  Biso   1.000  H
  H496     1.0000 0.15510  0.64780  0.59160  Biso   1.000  H
  H497     1.0000 0.59160  0.15510  0.64780  Biso   1.000  H
  H498     1.0000 0.84490  0.35220  0.59160  Biso   1.000  H
  H499     1.0000 0.40840  0.84490  0.64780  Biso   1.000  H
  H500     1.0000 0.15510  0.35220  0.40840  Biso   1.000  H
  H501     1.0000 0.64780  0.15510  0.40840  Biso   1.000  H
  H502     1.0000 0.35220  0.15510  0.59160  Biso   1.000  H
  H503     1.0000 0.64780  0.84490  0.59160  Biso   1.000  H
  H504     1.0000 0.40840  0.15510  0.35220  Biso   1.000  H
  H505     1.0000 0.90840  0.85220  0.34490  Biso   1.000  H
  H506     1.0000 0.14780  0.90840  0.34490  Biso   1.000  H
  H507     1.0000 0.90840  0.14780  0.65510  Biso   1.000  H
  H508     1.0000 0.34490  0.90840  0.85220  Biso   1.000  H
  H509     1.0000 0.09160  0.14780  0.34490  Biso   1.000  H
  H510     1.0000 0.14780  0.09160  0.65510  Biso   1.000  H
  H511     1.0000 0.85220  0.90840  0.65510  Biso   1.000  H
  H512     1.0000 0.34490  0.14780  0.90840  Biso   1.000  H
  H513     1.0000 0.09160  0.34490  0.85220  Biso   1.000  H
  H514     1.0000 0.65510  0.90840  0.14780  Biso   1.000  H
  H515     1.0000 0.34490  0.09160  0.14780  Biso   1.000  H
  H516     1.0000 0.85220  0.34490  0.90840  Biso   1.000  H
  H517     1.0000 0.85220  0.09160  0.34490  Biso   1.000  H
  H518     1.0000 0.09160  0.85220  0.65510  Biso   1.000  H
  H519     1.0000 0.65510  0.09160  0.85220  Biso   1.000  H
  H520     1.0000 0.65510  0.14780  0.09160  Biso   1.000  H
  H521     1.0000 0.09160  0.65510  0.14780  Biso   1.000  H
  H522     1.0000 0.34490  0.85220  0.09160  Biso   1.000  H
  H523     1.0000 0.90840  0.34490  0.14780  Biso   1.000  H
  H524     1.0000 0.65510  0.85220  0.90840  Biso   1.000  H
  H525     1.0000 0.14780  0.65510  0.90840  Biso   1.000  H
  H526     1.0000 0.85220  0.65510  0.09160  Biso   1.000  H
  H527     1.0000 0.14780  0.34490  0.09160  Biso   1.000  H
  H528     1.0000 0.90840  0.65510  0.85220  Biso   1.000  H
  C865     1.0000 0.68590  0.71254  0.06816  Biso   1.000  C
  C866     1.0000 0.28746  0.68590  0.06816  Biso   1.000  C
  C867     1.0000 0.68590  0.28746  0.93184  Biso   1.000  C
  C868     1.0000 0.06816  0.68590  0.71254  Biso   1.000  C
  C869     1.0000 0.31410  0.28746  0.06816  Biso   1.000  C
  C870     1.0000 0.28746  0.31410  0.93184  Biso   1.000  C
  C871     1.0000 0.71254  0.68590  0.93184  Biso   1.000  C
  C872     1.0000 0.06816  0.28746  0.68590  Biso   1.000  C
  C873     1.0000 0.31410  0.06816  0.71254  Biso   1.000  C
  C874     1.0000 0.93184  0.68590  0.28746  Biso   1.000  C
  C875     1.0000 0.06816  0.31410  0.28746  Biso   1.000  C
  C876     1.0000 0.71254  0.06816  0.68590  Biso   1.000  C
  C877     1.0000 0.71254  0.31410  0.06816  Biso   1.000  C
  C878     1.0000 0.31410  0.71254  0.93184  Biso   1.000  C
  C879     1.0000 0.93184  0.31410  0.71254  Biso   1.000  C
  C880     1.0000 0.93184  0.28746  0.31410  Biso   1.000  C
  C881     1.0000 0.31410  0.93184  0.28746  Biso   1.000  C
  C882     1.0000 0.06816  0.71254  0.31410  Biso   1.000  C
  C883     1.0000 0.68590  0.06816  0.28746  Biso   1.000  C
  C884     1.0000 0.93184  0.71254  0.68590  Biso   1.000  C
  C885     1.0000 0.28746  0.93184  0.68590  Biso   1.000  C
  C886     1.0000 0.71254  0.93184  0.31410  Biso   1.000  C
  C887     1.0000 0.28746  0.06816  0.31410  Biso   1.000  C
  C888     1.0000 0.68590  0.93184  0.71254  Biso   1.000  C
  C889     1.0000 0.18590  0.21254  0.56816  Biso   1.000  C
  C890     1.0000 0.78746  0.18590  0.56816  Biso   1.000  C
  C891     1.0000 0.18590  0.78746  0.43184  Biso   1.000  C
  C892     1.0000 0.56816  0.18590  0.21254  Biso   1.000  C
  C893     1.0000 0.81410  0.78746  0.56816  Biso   1.000  C
  C894     1.0000 0.78746  0.81410  0.43184  Biso   1.000  C
  C895     1.0000 0.21254  0.18590  0.43184  Biso   1.000  C
  C896     1.0000 0.56816  0.78746  0.18590  Biso   1.000  C
  C897     1.0000 0.81410  0.56816  0.21254  Biso   1.000  C
  C898     1.0000 0.43184  0.18590  0.78746  Biso   1.000  C
  C899     1.0000 0.56816  0.81410  0.78746  Biso   1.000  C
  C900     1.0000 0.21254  0.56816  0.18590  Biso   1.000  C
  C901     1.0000 0.21254  0.81410  0.56816  Biso   1.000  C
  C902     1.0000 0.81410  0.21254  0.43184  Biso   1.000  C
  C903     1.0000 0.43184  0.81410  0.21254  Biso   1.000  C
  C904     1.0000 0.43184  0.78746  0.81410  Biso   1.000  C
  C905     1.0000 0.81410  0.43184  0.78746  Biso   1.000  C
  C906     1.0000 0.56816  0.21254  0.81410  Biso   1.000  C
  C907     1.0000 0.18590  0.56816  0.78746  Biso   1.000  C
  C908     1.0000 0.43184  0.21254  0.18590  Biso   1.000  C
  C909     1.0000 0.78746  0.43184  0.18590  Biso   1.000  C
  C910     1.0000 0.21254  0.43184  0.81410  Biso   1.000  C
  C911     1.0000 0.78746  0.56816  0.81410  Biso   1.000  C
  C912     1.0000 0.18590  0.43184  0.21254  Biso   1.000  C
  C913     1.0000 0.31410  0.28746  0.93184  Biso   1.000  C
  C914     1.0000 0.71254  0.31410  0.93184  Biso   1.000  C
  C915     1.0000 0.31410  0.71254  0.06816  Biso   1.000  C
  C916     1.0000 0.93184  0.31410  0.28746  Biso   1.000  C
  C917     1.0000 0.68590  0.71254  0.93184  Biso   1.000  C
  C918     1.0000 0.71254  0.68590  0.06816  Biso   1.000  C
  C919     1.0000 0.28746  0.31410  0.06816  Biso   1.000  C
  C920     1.0000 0.93184  0.71254  0.31410  Biso   1.000  C
  C921     1.0000 0.68590  0.93184  0.28746  Biso   1.000  C
  C922     1.0000 0.06816  0.31410  0.71254  Biso   1.000  C
  C923     1.0000 0.93184  0.68590  0.71254  Biso   1.000  C
  C924     1.0000 0.28746  0.93184  0.31410  Biso   1.000  C
  C925     1.0000 0.28746  0.68590  0.93184  Biso   1.000  C
  C926     1.0000 0.68590  0.28746  0.06816  Biso   1.000  C
  C927     1.0000 0.06816  0.68590  0.28746  Biso   1.000  C
  C928     1.0000 0.06816  0.71254  0.68590  Biso   1.000  C
  C929     1.0000 0.68590  0.06816  0.71254  Biso   1.000  C
  C930     1.0000 0.93184  0.28746  0.68590  Biso   1.000  C
  C931     1.0000 0.31410  0.93184  0.71254  Biso   1.000  C
  C932     1.0000 0.06816  0.28746  0.31410  Biso   1.000  C
  C933     1.0000 0.71254  0.06816  0.31410  Biso   1.000  C
  C934     1.0000 0.28746  0.06816  0.68590  Biso   1.000  C
  C935     1.0000 0.71254  0.93184  0.68590  Biso   1.000  C
  C936     1.0000 0.31410  0.06816  0.28746  Biso   1.000  C
  C937     1.0000 0.81410  0.78746  0.43184  Biso   1.000  C
  C938     1.0000 0.21254  0.81410  0.43184  Biso   1.000  C
  C939     1.0000 0.81410  0.21254  0.56816  Biso   1.000  C
  C940     1.0000 0.43184  0.81410  0.78746  Biso   1.000  C
  C941     1.0000 0.18590  0.21254  0.43184  Biso   1.000  C
  C942     1.0000 0.21254  0.18590  0.56816  Biso   1.000  C
  C943     1.0000 0.78746  0.81410  0.56816  Biso   1.000  C
  C944     1.0000 0.43184  0.21254  0.81410  Biso   1.000  C
  C945     1.0000 0.18590  0.43184  0.78746  Biso   1.000  C
  C946     1.0000 0.56816  0.81410  0.21254  Biso   1.000  C
  C947     1.0000 0.43184  0.18590  0.21254  Biso   1.000  C
  C948     1.0000 0.78746  0.43184  0.81410  Biso   1.000  C
  C949     1.0000 0.78746  0.18590  0.43184  Biso   1.000  C
  C950     1.0000 0.18590  0.78746  0.56816  Biso   1.000  C
  C951     1.0000 0.56816  0.18590  0.78746  Biso   1.000  C
  C952     1.0000 0.56816  0.21254  0.18590  Biso   1.000  C
  C953     1.0000 0.18590  0.56816  0.21254  Biso   1.000  C
  C954     1.0000 0.43184  0.78746  0.18590  Biso   1.000  C
  C955     1.0000 0.81410  0.43184  0.21254  Biso   1.000  C
  C956     1.0000 0.56816  0.78746  0.81410  Biso   1.000  C
  C957     1.0000 0.21254  0.56816  0.81410  Biso   1.000  C
  C958     1.0000 0.78746  0.56816  0.18590  Biso   1.000  C
  C959     1.0000 0.21254  0.43184  0.18590  Biso   1.000  C
  C960     1.0000 0.81410  0.56816  0.78746  Biso   1.000  C
  C961     1.0000 0.73821  0.73821  0.03064  Biso   1.000  C
  C962     1.0000 0.26179  0.73821  0.03064  Biso   1.000  C
  C963     1.0000 0.73821  0.26179  0.96936  Biso   1.000  C
  C964     1.0000 0.03064  0.73821  0.73821  Biso   1.000  C
  C965     1.0000 0.26179  0.26179  0.03064  Biso   1.000  C
  C966     1.0000 0.26179  0.26179  0.96936  Biso   1.000  C
  C967     1.0000 0.73821  0.73821  0.96936  Biso   1.000  C
  C968     1.0000 0.03064  0.26179  0.73821  Biso   1.000  C
  C969     1.0000 0.26179  0.03064  0.73821  Biso   1.000  C
  C970     1.0000 0.96936  0.73821  0.26179  Biso   1.000  C
  C971     1.0000 0.03064  0.26179  0.26179  Biso   1.000  C
  C972     1.0000 0.73821  0.03064  0.73821  Biso   1.000  C
  C973     1.0000 0.73821  0.26179  0.03064  Biso   1.000  C
  C974     1.0000 0.26179  0.73821  0.96936  Biso   1.000  C
  C975     1.0000 0.96936  0.26179  0.73821  Biso   1.000  C
  C976     1.0000 0.96936  0.26179  0.26179  Biso   1.000  C
  C977     1.0000 0.26179  0.96936  0.26179  Biso   1.000  C
  C978     1.0000 0.03064  0.73821  0.26179  Biso   1.000  C
  C979     1.0000 0.73821  0.03064  0.26179  Biso   1.000  C
  C980     1.0000 0.96936  0.73821  0.73821  Biso   1.000  C
  C981     1.0000 0.26179  0.96936  0.73821  Biso   1.000  C
  C982     1.0000 0.73821  0.96936  0.26179  Biso   1.000  C
  C983     1.0000 0.26179  0.03064  0.26179  Biso   1.000  C
  C984     1.0000 0.73821  0.96936  0.73821  Biso   1.000  C
  C985     1.0000 0.23821  0.23821  0.53064  Biso   1.000  C
  C986     1.0000 0.76179  0.23821  0.53064  Biso   1.000  C
  C987     1.0000 0.23821  0.76179  0.46936  Biso   1.000  C
  C988     1.0000 0.53064  0.23821  0.23821  Biso   1.000  C
  C989     1.0000 0.76179  0.76179  0.53064  Biso   1.000  C
  C990     1.0000 0.76179  0.76179  0.46936  Biso   1.000  C
  C991     1.0000 0.23821  0.23821  0.46936  Biso   1.000  C
  C992     1.0000 0.53064  0.76179  0.23821  Biso   1.000  C
  C993     1.0000 0.76179  0.53064  0.23821  Biso   1.000  C
  C994     1.0000 0.46936  0.23821  0.76179  Biso   1.000  C
  C995     1.0000 0.53064  0.76179  0.76179  Biso   1.000  C
  C996     1.0000 0.23821  0.53064  0.23821  Biso   1.000  C
  C997     1.0000 0.23821  0.76179  0.53064  Biso   1.000  C
  C998     1.0000 0.76179  0.23821  0.46936  Biso   1.000  C
  C999     1.0000 0.46936  0.76179  0.23821  Biso   1.000  C
  C1000    1.0000 0.46936  0.76179  0.76179  Biso   1.000  C
  C1001    1.0000 0.76179  0.46936  0.76179  Biso   1.000  C
  C1002    1.0000 0.53064  0.23821  0.76179  Biso   1.000  C
  C1003    1.0000 0.23821  0.53064  0.76179  Biso   1.000  C
  C1004    1.0000 0.46936  0.23821  0.23821  Biso   1.000  C
  C1005    1.0000 0.76179  0.46936  0.23821  Biso   1.000  C
  C1006    1.0000 0.23821  0.46936  0.76179  Biso   1.000  C
  C1007    1.0000 0.76179  0.53064  0.76179  Biso   1.000  C
  C1008    1.0000 0.23821  0.46936  0.23821  Biso   1.000  C
  H529     1.0000 0.74750  0.74750  0.05270  Biso   1.000  H
  H530     1.0000 0.25250  0.74750  0.05270  Biso   1.000  H
  H531     1.0000 0.74750  0.25250  0.94730  Biso   1.000  H
  H532     1.0000 0.05270  0.74750  0.74750  Biso   1.000  H
  H533     1.0000 0.25250  0.25250  0.05270  Biso   1.000  H
  H534     1.0000 0.25250  0.25250  0.94730  Biso   1.000  H
  H535     1.0000 0.74750  0.74750  0.94730  Biso   1.000  H
  H536     1.0000 0.05270  0.25250  0.74750  Biso   1.000  H
  H537     1.0000 0.25250  0.05270  0.74750  Biso   1.000  H
  H538     1.0000 0.94730  0.74750  0.25250  Biso   1.000  H
  H539     1.0000 0.05270  0.25250  0.25250  Biso   1.000  H
  H540     1.0000 0.74750  0.05270  0.74750  Biso   1.000  H
  H541     1.0000 0.74750  0.25250  0.05270  Biso   1.000  H
  H542     1.0000 0.25250  0.74750  0.94730  Biso   1.000  H
  H543     1.0000 0.94730  0.25250  0.74750  Biso   1.000  H
  H544     1.0000 0.94730  0.25250  0.25250  Biso   1.000  H
  H545     1.0000 0.25250  0.94730  0.25250  Biso   1.000  H
  H546     1.0000 0.05270  0.74750  0.25250  Biso   1.000  H
  H547     1.0000 0.74750  0.05270  0.25250  Biso   1.000  H
  H548     1.0000 0.94730  0.74750  0.74750  Biso   1.000  H
  H549     1.0000 0.25250  0.94730  0.74750  Biso   1.000  H
  H550     1.0000 0.74750  0.94730  0.25250  Biso   1.000  H
  H551     1.0000 0.25250  0.05270  0.25250  Biso   1.000  H
  H552     1.0000 0.74750  0.94730  0.74750  Biso   1.000  H
  H553     1.0000 0.24750  0.24750  0.55270  Biso   1.000  H
  H554     1.0000 0.75250  0.24750  0.55270  Biso   1.000  H
  H555     1.0000 0.24750  0.75250  0.44730  Biso   1.000  H
  H556     1.0000 0.55270  0.24750  0.24750  Biso   1.000  H
  H557     1.0000 0.75250  0.75250  0.55270  Biso   1.000  H
  H558     1.0000 0.75250  0.75250  0.44730  Biso   1.000  H
  H559     1.0000 0.24750  0.24750  0.44730  Biso   1.000  H
  H560     1.0000 0.55270  0.75250  0.24750  Biso   1.000  H
  H561     1.0000 0.75250  0.55270  0.24750  Biso   1.000  H
  H562     1.0000 0.44730  0.24750  0.75250  Biso   1.000  H
  H563     1.0000 0.55270  0.75250  0.75250  Biso   1.000  H
  H564     1.0000 0.24750  0.55270  0.24750  Biso   1.000  H
  H565     1.0000 0.24750  0.75250  0.55270  Biso   1.000  H
  H566     1.0000 0.75250  0.24750  0.44730  Biso   1.000  H
  H567     1.0000 0.44730  0.75250  0.24750  Biso   1.000  H
  H568     1.0000 0.44730  0.75250  0.75250  Biso   1.000  H
  H569     1.0000 0.75250  0.44730  0.75250  Biso   1.000  H
  H570     1.0000 0.55270  0.24750  0.75250  Biso   1.000  H
  H571     1.0000 0.24750  0.55270  0.75250  Biso   1.000  H
  H572     1.0000 0.44730  0.24750  0.24750  Biso   1.000  H
  H573     1.0000 0.75250  0.44730  0.24750  Biso   1.000  H
  H574     1.0000 0.24750  0.44730  0.75250  Biso   1.000  H
  H575     1.0000 0.75250  0.55270  0.75250  Biso   1.000  H
  H576     1.0000 0.24750  0.44730  0.24750  Biso   1.000  H
  C1009    1.0000 0.71163  0.71163  0.03215  Biso   1.000  C
  C1010    1.0000 0.28837  0.71163  0.03215  Biso   1.000  C
  C1011    1.0000 0.71163  0.28837  0.96785  Biso   1.000  C
  C1012    1.0000 0.03215  0.71163  0.71163  Biso   1.000  C
  C1013    1.0000 0.28837  0.28837  0.03215  Biso   1.000  C
  C1014    1.0000 0.28837  0.28837  0.96785  Biso   1.000  C
  C1015    1.0000 0.71163  0.71163  0.96785  Biso   1.000  C
  C1016    1.0000 0.03215  0.28837  0.71163  Biso   1.000  C
  C1017    1.0000 0.28837  0.03215  0.71163  Biso   1.000  C
  C1018    1.0000 0.96785  0.71163  0.28837  Biso   1.000  C
  C1019    1.0000 0.03215  0.28837  0.28837  Biso   1.000  C
  C1020    1.0000 0.71163  0.03215  0.71163  Biso   1.000  C
  C1021    1.0000 0.71163  0.28837  0.03215  Biso   1.000  C
  C1022    1.0000 0.28837  0.71163  0.96785  Biso   1.000  C
  C1023    1.0000 0.96785  0.28837  0.71163  Biso   1.000  C
  C1024    1.0000 0.96785  0.28837  0.28837  Biso   1.000  C
  C1025    1.0000 0.28837  0.96785  0.28837  Biso   1.000  C
  C1026    1.0000 0.03215  0.71163  0.28837  Biso   1.000  C
  C1027    1.0000 0.71163  0.03215  0.28837  Biso   1.000  C
  C1028    1.0000 0.96785  0.71163  0.71163  Biso   1.000  C
  C1029    1.0000 0.28837  0.96785  0.71163  Biso   1.000  C
  C1030    1.0000 0.71163  0.96785  0.28837  Biso   1.000  C
  C1031    1.0000 0.28837  0.03215  0.28837  Biso   1.000  C
  C1032    1.0000 0.71163  0.96785  0.71163  Biso   1.000  C
  C1033    1.0000 0.21163  0.21163  0.53215  Biso   1.000  C
  C1034    1.0000 0.78837  0.21163  0.53215  Biso   1.000  C
  C1035    1.0000 0.21163  0.78837  0.46785  Biso   1.000  C
  C1036    1.0000 0.53215  0.21163  0.21163  Biso   1.000  C
  C1037    1.0000 0.78837  0.78837  0.53215  Biso   1.000  C
  C1038    1.0000 0.78837  0.78837  0.46785  Biso   1.000  C
  C1039    1.0000 0.21163  0.21163  0.46785  Biso   1.000  C
  C1040    1.0000 0.53215  0.78837  0.21163  Biso   1.000  C
  C1041    1.0000 0.78837  0.53215  0.21163  Biso   1.000  C
  C1042    1.0000 0.46785  0.21163  0.78837  Biso   1.000  C
  C1043    1.0000 0.53215  0.78837  0.78837  Biso   1.000  C
  C1044    1.0000 0.21163  0.53215  0.21163  Biso   1.000  C
  C1045    1.0000 0.21163  0.78837  0.53215  Biso   1.000  C
  C1046    1.0000 0.78837  0.21163  0.46785  Biso   1.000  C
  C1047    1.0000 0.46785  0.78837  0.21163  Biso   1.000  C
  C1048    1.0000 0.46785  0.78837  0.78837  Biso   1.000  C
  C1049    1.0000 0.78837  0.46785  0.78837  Biso   1.000  C
  C1050    1.0000 0.53215  0.21163  0.78837  Biso   1.000  C
  C1051    1.0000 0.21163  0.53215  0.78837  Biso   1.000  C
  C1052    1.0000 0.46785  0.21163  0.21163  Biso   1.000  C
  C1053    1.0000 0.78837  0.46785  0.21163  Biso   1.000  C
  C1054    1.0000 0.21163  0.46785  0.78837  Biso   1.000  C
  C1055    1.0000 0.78837  0.53215  0.78837  Biso   1.000  C
  C1056    1.0000 0.21163  0.46785  0.21163  Biso   1.000  C
  C1057    1.0000 0.69780  0.69780  0.00000  Biso   1.000  C
  C1058    1.0000 0.30220  0.69780  0.00000  Biso   1.000  C
  C1059    1.0000 0.69780  0.30220  0.00000  Biso   1.000  C
  C1060    1.0000 0.00000  0.69780  0.69780  Biso   1.000  C
  C1061    1.0000 0.30220  0.30220  0.00000  Biso   1.000  C
  C1062    1.0000 0.00000  0.30220  0.69780  Biso   1.000  C
  C1063    1.0000 0.30220  0.00000  0.69780  Biso   1.000  C
  C1064    1.0000 0.00000  0.69780  0.30220  Biso   1.000  C
  C1065    1.0000 0.00000  0.30220  0.30220  Biso   1.000  C
  C1066    1.0000 0.69780  0.00000  0.69780  Biso   1.000  C
  C1067    1.0000 0.30220  0.00000  0.30220  Biso   1.000  C
  C1068    1.0000 0.69780  0.00000  0.30220  Biso   1.000  C
  C1069    1.0000 0.19780  0.19780  0.50000  Biso   1.000  C
  C1070    1.0000 0.80220  0.19780  0.50000  Biso   1.000  C
  C1071    1.0000 0.19780  0.80220  0.50000  Biso   1.000  C
  C1072    1.0000 0.50000  0.19780  0.19780  Biso   1.000  C
  C1073    1.0000 0.80220  0.80220  0.50000  Biso   1.000  C
  C1074    1.0000 0.50000  0.80220  0.19780  Biso   1.000  C
  C1075    1.0000 0.80220  0.50000  0.19780  Biso   1.000  C
  C1076    1.0000 0.50000  0.19780  0.80220  Biso   1.000  C
  C1077    1.0000 0.50000  0.80220  0.80220  Biso   1.000  C
  C1078    1.0000 0.19780  0.50000  0.19780  Biso   1.000  C
  C1079    1.0000 0.80220  0.50000  0.80220  Biso   1.000  C
  C1080    1.0000 0.19780  0.50000  0.80220  Biso   1.000  C
  H577     1.0000 0.67970  0.67970  0.00000  Biso   1.000  H
  H578     1.0000 0.32030  0.67970  0.00000  Biso   1.000  H
  H579     1.0000 0.67970  0.32030  0.00000  Biso   1.000  H
  H580     1.0000 0.00000  0.67970  0.67970  Biso   1.000  H
  H581     1.0000 0.32030  0.32030  0.00000  Biso   1.000  H
  H582     1.0000 0.00000  0.32030  0.67970  Biso   1.000  H
  H583     1.0000 0.32030  0.00000  0.67970  Biso   1.000  H
  H584     1.0000 0.00000  0.67970  0.32030  Biso   1.000  H
  H585     1.0000 0.00000  0.32030  0.32030  Biso   1.000  H
  H586     1.0000 0.67970  0.00000  0.67970  Biso   1.000  H
  H587     1.0000 0.32030  0.00000  0.32030  Biso   1.000  H
  H588     1.0000 0.67970  0.00000  0.32030  Biso   1.000  H
  H589     1.0000 0.17970  0.17970  0.50000  Biso   1.000  H
  H590     1.0000 0.82030  0.17970  0.50000  Biso   1.000  H
  H591     1.0000 0.17970  0.82030  0.50000  Biso   1.000  H
  H592     1.0000 0.50000  0.17970  0.17970  Biso   1.000  H
  H593     1.0000 0.82030  0.82030  0.50000  Biso   1.000  H
  H594     1.0000 0.50000  0.82030  0.17970  Biso   1.000  H
  H595     1.0000 0.82030  0.50000  0.17970  Biso   1.000  H
  H596     1.0000 0.50000  0.17970  0.82030  Biso   1.000  H
  H597     1.0000 0.50000  0.82030  0.82030  Biso   1.000  H
  H598     1.0000 0.17970  0.50000  0.17970  Biso   1.000  H
  H599     1.0000 0.82030  0.50000  0.82030  Biso   1.000  H
  H600     1.0000 0.17970  0.50000  0.82030  Biso   1.000  H
  O313     1.0000 0.54140  0.63580  0.31760  Biso   1.000  O
  O314     1.0000 0.36420  0.54140  0.31760  Biso   1.000  O
  O315     1.0000 0.54140  0.36420  0.68240  Biso   1.000  O
  O316     1.0000 0.31760  0.54140  0.63580  Biso   1.000  O
  O317     1.0000 0.45860  0.36420  0.31760  Biso   1.000  O
  O318     1.0000 0.36420  0.45860  0.68240  Biso   1.000  O
  O319     1.0000 0.63580  0.54140  0.68240  Biso   1.000  O
  O320     1.0000 0.31760  0.36420  0.54140  Biso   1.000  O
  O321     1.0000 0.45860  0.31760  0.63580  Biso   1.000  O
  O322     1.0000 0.68240  0.54140  0.36420  Biso   1.000  O
  O323     1.0000 0.31760  0.45860  0.36420  Biso   1.000  O
  O324     1.0000 0.63580  0.31760  0.54140  Biso   1.000  O
  O325     1.0000 0.63580  0.45860  0.31760  Biso   1.000  O
  O326     1.0000 0.45860  0.63580  0.68240  Biso   1.000  O
  O327     1.0000 0.68240  0.45860  0.63580  Biso   1.000  O
  O328     1.0000 0.68240  0.36420  0.45860  Biso   1.000  O
  O329     1.0000 0.45860  0.68240  0.36420  Biso   1.000  O
  O330     1.0000 0.31760  0.63580  0.45860  Biso   1.000  O
  O331     1.0000 0.54140  0.31760  0.36420  Biso   1.000  O
  O332     1.0000 0.68240  0.63580  0.54140  Biso   1.000  O
  O333     1.0000 0.36420  0.68240  0.54140  Biso   1.000  O
  O334     1.0000 0.63580  0.68240  0.45860  Biso   1.000  O
  O335     1.0000 0.36420  0.31760  0.45860  Biso   1.000  O
  O336     1.0000 0.54140  0.68240  0.63580  Biso   1.000  O
  O337     1.0000 0.04140  0.13580  0.81760  Biso   1.000  O
  O338     1.0000 0.86420  0.04140  0.81760  Biso   1.000  O
  O339     1.0000 0.04140  0.86420  0.18240  Biso   1.000  O
  O340     1.0000 0.81760  0.04140  0.13580  Biso   1.000  O
  O341     1.0000 0.95860  0.86420  0.81760  Biso   1.000  O
  O342     1.0000 0.86420  0.95860  0.18240  Biso   1.000  O
  O343     1.0000 0.13580  0.04140  0.18240  Biso   1.000  O
  O344     1.0000 0.81760  0.86420  0.04140  Biso   1.000  O
  O345     1.0000 0.95860  0.81760  0.13580  Biso   1.000  O
  O346     1.0000 0.18240  0.04140  0.86420  Biso   1.000  O
  O347     1.0000 0.81760  0.95860  0.86420  Biso   1.000  O
  O348     1.0000 0.13580  0.81760  0.04140  Biso   1.000  O
  O349     1.0000 0.13580  0.95860  0.81760  Biso   1.000  O
  O350     1.0000 0.95860  0.13580  0.18240  Biso   1.000  O
  O351     1.0000 0.18240  0.95860  0.13580  Biso   1.000  O
  O352     1.0000 0.18240  0.86420  0.95860  Biso   1.000  O
  O353     1.0000 0.95860  0.18240  0.86420  Biso   1.000  O
  O354     1.0000 0.81760  0.13580  0.95860  Biso   1.000  O
  O355     1.0000 0.04140  0.81760  0.86420  Biso   1.000  O
  O356     1.0000 0.18240  0.13580  0.04140  Biso   1.000  O
  O357     1.0000 0.86420  0.18240  0.04140  Biso   1.000  O
  O358     1.0000 0.13580  0.18240  0.95860  Biso   1.000  O
  O359     1.0000 0.86420  0.81760  0.95860  Biso   1.000  O
  O360     1.0000 0.04140  0.18240  0.13580  Biso   1.000  O
  O361     1.0000 0.45860  0.36420  0.68240  Biso   1.000  O
  O362     1.0000 0.63580  0.45860  0.68240  Biso   1.000  O
  O363     1.0000 0.45860  0.63580  0.31760  Biso   1.000  O
  O364     1.0000 0.68240  0.45860  0.36420  Biso   1.000  O
  O365     1.0000 0.54140  0.63580  0.68240  Biso   1.000  O
  O366     1.0000 0.63580  0.54140  0.31760  Biso   1.000  O
  O367     1.0000 0.36420  0.45860  0.31760  Biso   1.000  O
  O368     1.0000 0.68240  0.63580  0.45860  Biso   1.000  O
  O369     1.0000 0.54140  0.68240  0.36420  Biso   1.000  O
  O370     1.0000 0.31760  0.45860  0.63580  Biso   1.000  O
  O371     1.0000 0.68240  0.54140  0.63580  Biso   1.000  O
  O372     1.0000 0.36420  0.68240  0.45860  Biso   1.000  O
  O373     1.0000 0.36420  0.54140  0.68240  Biso   1.000  O
  O374     1.0000 0.54140  0.36420  0.31760  Biso   1.000  O
  O375     1.0000 0.31760  0.54140  0.36420  Biso   1.000  O
  O376     1.0000 0.31760  0.63580  0.54140  Biso   1.000  O
  O377     1.0000 0.54140  0.31760  0.63580  Biso   1.000  O
  O378     1.0000 0.68240  0.36420  0.54140  Biso   1.000  O
  O379     1.0000 0.45860  0.68240  0.63580  Biso   1.000  O
  O380     1.0000 0.31760  0.36420  0.45860  Biso   1.000  O
  O381     1.0000 0.63580  0.31760  0.45860  Biso   1.000  O
  O382     1.0000 0.36420  0.31760  0.54140  Biso   1.000  O
  O383     1.0000 0.63580  0.68240  0.54140  Biso   1.000  O
  O384     1.0000 0.45860  0.31760  0.36420  Biso   1.000  O
  O385     1.0000 0.95860  0.86420  0.18240  Biso   1.000  O
  O386     1.0000 0.13580  0.95860  0.18240  Biso   1.000  O
  O387     1.0000 0.95860  0.13580  0.81760  Biso   1.000  O
  O388     1.0000 0.18240  0.95860  0.86420  Biso   1.000  O
  O389     1.0000 0.04140  0.13580  0.18240  Biso   1.000  O
  O390     1.0000 0.13580  0.04140  0.81760  Biso   1.000  O
  O391     1.0000 0.86420  0.95860  0.81760  Biso   1.000  O
  O392     1.0000 0.18240  0.13580  0.95860  Biso   1.000  O
  O393     1.0000 0.04140  0.18240  0.86420  Biso   1.000  O
  O394     1.0000 0.81760  0.95860  0.13580  Biso   1.000  O
  O395     1.0000 0.18240  0.04140  0.13580  Biso   1.000  O
  O396     1.0000 0.86420  0.18240  0.95860  Biso   1.000  O
  O397     1.0000 0.86420  0.04140  0.18240  Biso   1.000  O
  O398     1.0000 0.04140  0.86420  0.81760  Biso   1.000  O
  O399     1.0000 0.81760  0.04140  0.86420  Biso   1.000  O
  O400     1.0000 0.81760  0.13580  0.04140  Biso   1.000  O
  O401     1.0000 0.04140  0.81760  0.13580  Biso   1.000  O
  O402     1.0000 0.18240  0.86420  0.04140  Biso   1.000  O
  O403     1.0000 0.95860  0.18240  0.13580  Biso   1.000  O
  O404     1.0000 0.81760  0.86420  0.95860  Biso   1.000  O
  O405     1.0000 0.13580  0.81760  0.95860  Biso   1.000  O
  O406     1.0000 0.86420  0.81760  0.04140  Biso   1.000  O
  O407     1.0000 0.13580  0.18240  0.04140  Biso   1.000  O
  O408     1.0000 0.95860  0.81760  0.86420  Biso   1.000  O
