data_image0
_cell_length_a       20.293
_cell_length_b       20.293
_cell_length_c       13.758
_cell_angle_alpha    90
_cell_angle_beta     90
_cell_angle_gamma    90

_symmetry_space_group_name_H-M    "P 1"
_symmetry_int_tables_number       1

loop_
  _symmetry_equiv_pos_as_xyz
  'x, y, z'

loop_
  _atom_site_label
  _atom_site_occupancy
  _atom_site_fract_x
  _atom_site_fract_y
  _atom_site_fract_z
  _atom_site_thermal_displace_type
  _atom_site_B_iso_or_equiv
  _atom_site_type_symbol
  Cu1      1.0000 0.15240  0.36608  0.04433  Biso   1.000  Cu
  Cu2      1.0000 0.34760  0.13392  0.54433  Biso   1.000  Cu
  Cu3      1.0000 0.63392  0.65240  0.29433  Biso   1.000  Cu
  Cu4      1.0000 0.86608  0.84760  0.79433  Biso   1.000  Cu
  Cu5      1.0000 0.65240  0.86608  0.54433  Biso   1.000  Cu
  Cu6      1.0000 0.84760  0.63392  0.04433  Biso   1.000  Cu
  Cu7      1.0000 0.13392  0.15240  0.79433  Biso   1.000  Cu
  Cu8      1.0000 0.36608  0.34760  0.29433  Biso   1.000  Cu
  O1       1.0000 0.23501  0.38766  0.14320  Biso   1.000  O
  O2       1.0000 0.26499  0.11234  0.64320  Biso   1.000  O
  O3       1.0000 0.61234  0.73501  0.39320  Biso   1.000  O
  O4       1.0000 0.88766  0.76499  0.89320  Biso   1.000  O
  O5       1.0000 0.73501  0.88766  0.64320  Biso   1.000  O
  O6       1.0000 0.76499  0.61234  0.14320  Biso   1.000  O
  O7       1.0000 0.11234  0.23501  0.89320  Biso   1.000  O
  O8       1.0000 0.38766  0.26499  0.39320  Biso   1.000  O
  O9       1.0000 0.33060  0.42619  0.20470  Biso   1.000  O
  O10      1.0000 0.16940  0.07381  0.70470  Biso   1.000  O
  O11      1.0000 0.57381  0.83060  0.45470  Biso   1.000  O
  O12      1.0000 0.92619  0.66940  0.95470  Biso   1.000  O
  O13      1.0000 0.83060  0.92619  0.70470  Biso   1.000  O
  O14      1.0000 0.66940  0.57381  0.20470  Biso   1.000  O
  O15      1.0000 0.07381  0.33060  0.95470  Biso   1.000  O
  O16      1.0000 0.42619  0.16940  0.45470  Biso   1.000  O
  O17      1.0000 0.08933  0.37538  0.15670  Biso   1.000  O
  O18      1.0000 0.41067  0.12462  0.65670  Biso   1.000  O
  O19      1.0000 0.62462  0.58933  0.40670  Biso   1.000  O
  O20      1.0000 0.87538  0.91067  0.90670  Biso   1.000  O
  O21      1.0000 0.58933  0.87538  0.65670  Biso   1.000  O
  O22      1.0000 0.91067  0.62462  0.15670  Biso   1.000  O
  O23      1.0000 0.12462  0.08933  0.90670  Biso   1.000  O
  O24      1.0000 0.37538  0.41067  0.40670  Biso   1.000  O
  O25      1.0000 0.09560  0.27630  0.22380  Biso   1.000  O
  O26      1.0000 0.40440  0.22370  0.72380  Biso   1.000  O
  O27      1.0000 0.72370  0.59560  0.47380  Biso   1.000  O
  O28      1.0000 0.77630  0.90440  0.97380  Biso   1.000  O
  O29      1.0000 0.59560  0.77630  0.72380  Biso   1.000  O
  O30      1.0000 0.90440  0.72370  0.22380  Biso   1.000  O
  O31      1.0000 0.22370  0.09560  0.97380  Biso   1.000  O
  O32      1.0000 0.27630  0.40440  0.47380  Biso   1.000  O
  O33      1.0000 0.17428  0.26816  0.07060  Biso   1.000  O
  O34      1.0000 0.32572  0.23184  0.57060  Biso   1.000  O
  O35      1.0000 0.73184  0.67428  0.32060  Biso   1.000  O
  O36      1.0000 0.76816  0.82572  0.82060  Biso   1.000  O
  O37      1.0000 0.67428  0.76816  0.57060  Biso   1.000  O
  O38      1.0000 0.82572  0.73184  0.07060  Biso   1.000  O
  O39      1.0000 0.23184  0.17428  0.82060  Biso   1.000  O
  O40      1.0000 0.26816  0.32572  0.32060  Biso   1.000  O
  H1       1.0000 0.15470  0.24630  0.12260  Biso   1.000  H
  H2       1.0000 0.34530  0.25370  0.62260  Biso   1.000  H
  H3       1.0000 0.75370  0.65470  0.37260  Biso   1.000  H
  H4       1.0000 0.74630  0.84530  0.87260  Biso   1.000  H
  H5       1.0000 0.65470  0.74630  0.62260  Biso   1.000  H
  H6       1.0000 0.84530  0.75370  0.12260  Biso   1.000  H
  H7       1.0000 0.25370  0.15470  0.87260  Biso   1.000  H
  H8       1.0000 0.24630  0.34530  0.37260  Biso   1.000  H
  H9       1.0000 0.20370  0.24590  0.03050  Biso   1.000  H
  H10      1.0000 0.29630  0.25410  0.53050  Biso   1.000  H
  H11      1.0000 0.75410  0.70370  0.28050  Biso   1.000  H
  H12      1.0000 0.74590  0.79630  0.78050  Biso   1.000  H
  H13      1.0000 0.70370  0.74590  0.53050  Biso   1.000  H
  H14      1.0000 0.79630  0.75410  0.03050  Biso   1.000  H
  H15      1.0000 0.25410  0.20370  0.78050  Biso   1.000  H
  H16      1.0000 0.24590  0.29630  0.28050  Biso   1.000  H
  N1       1.0000 0.12513  0.46091  0.00080  Biso   1.000  N
  N2       1.0000 0.37487  0.03909  0.50080  Biso   1.000  N
  N3       1.0000 0.53909  0.62513  0.25080  Biso   1.000  N
  N4       1.0000 0.96091  0.87487  0.75080  Biso   1.000  N
  N5       1.0000 0.62513  0.96091  0.50080  Biso   1.000  N
  N6       1.0000 0.87487  0.53909  0.00080  Biso   1.000  N
  N7       1.0000 0.03909  0.12513  0.75080  Biso   1.000  N
  N8       1.0000 0.46091  0.37487  0.25080  Biso   1.000  N
  N9       1.0000 0.20686  0.37375  0.91770  Biso   1.000  N
  N10      1.0000 0.29314  0.12625  0.41770  Biso   1.000  N
  N11      1.0000 0.62625  0.70686  0.16770  Biso   1.000  N
  N12      1.0000 0.87375  0.79314  0.66770  Biso   1.000  N
  N13      1.0000 0.70686  0.87375  0.41770  Biso   1.000  N
  N14      1.0000 0.79314  0.62625  0.91770  Biso   1.000  N
  N15      1.0000 0.12625  0.20686  0.66770  Biso   1.000  N
  N16      1.0000 0.37375  0.29314  0.16770  Biso   1.000  N
  C1       1.0000 0.28050  0.42960  0.14950  Biso   1.000  C
  C2       1.0000 0.21950  0.07040  0.64950  Biso   1.000  C
  C3       1.0000 0.57040  0.78050  0.39950  Biso   1.000  C
  C4       1.0000 0.92960  0.71950  0.89950  Biso   1.000  C
  C5       1.0000 0.78050  0.92960  0.64950  Biso   1.000  C
  C6       1.0000 0.71950  0.57040  0.14950  Biso   1.000  C
  C7       1.0000 0.07040  0.28050  0.89950  Biso   1.000  C
  C8       1.0000 0.42960  0.21950  0.39950  Biso   1.000  C
  C9       1.0000 0.27670  0.49160  0.08740  Biso   1.000  C
  C10      1.0000 0.22330  0.00840  0.58740  Biso   1.000  C
  C11      1.0000 0.50840  0.77670  0.33740  Biso   1.000  C
  C12      1.0000 0.99160  0.72330  0.83740  Biso   1.000  C
  C13      1.0000 0.77670  0.99160  0.58740  Biso   1.000  C
  C14      1.0000 0.72330  0.50840  0.08740  Biso   1.000  C
  C15      1.0000 0.00840  0.27670  0.83740  Biso   1.000  C
  C16      1.0000 0.49160  0.22330  0.33740  Biso   1.000  C
  C17      1.0000 0.31180  0.49700  0.00200  Biso   1.000  C
  C18      1.0000 0.18820  0.00300  0.50200  Biso   1.000  C
  C19      1.0000 0.50300  0.81180  0.25200  Biso   1.000  C
  C20      1.0000 0.99700  0.68820  0.75200  Biso   1.000  C
  C21      1.0000 0.81180  0.99700  0.50200  Biso   1.000  C
  C22      1.0000 0.68820  0.50300  0.00200  Biso   1.000  C
  C23      1.0000 0.00300  0.31180  0.75200  Biso   1.000  C
  C24      1.0000 0.49700  0.18820  0.25200  Biso   1.000  C
  C25      1.0000 0.30380  0.55230  0.94440  Biso   1.000  C
  C26      1.0000 0.19620  0.94770  0.44440  Biso   1.000  C
  C27      1.0000 0.44770  0.80380  0.19440  Biso   1.000  C
  C28      1.0000 0.05230  0.69620  0.69440  Biso   1.000  C
  C29      1.0000 0.80380  0.05230  0.44440  Biso   1.000  C
  C30      1.0000 0.69620  0.44770  0.94440  Biso   1.000  C
  C31      1.0000 0.94770  0.30380  0.69440  Biso   1.000  C
  C32      1.0000 0.55230  0.19620  0.19440  Biso   1.000  C
  H17      1.0000 0.32480  0.55440  0.88440  Biso   1.000  H
  H18      1.0000 0.17520  0.94560  0.38440  Biso   1.000  H
  H19      1.0000 0.44560  0.82480  0.13440  Biso   1.000  H
  H20      1.0000 0.05440  0.67520  0.63440  Biso   1.000  H
  H21      1.0000 0.82480  0.05440  0.38440  Biso   1.000  H
  H22      1.0000 0.67520  0.44560  0.88440  Biso   1.000  H
  H23      1.0000 0.94560  0.32480  0.63440  Biso   1.000  H
  H24      1.0000 0.55440  0.17520  0.13440  Biso   1.000  H
  C33      1.0000 0.26510  0.60440  0.97450  Biso   1.000  C
  C34      1.0000 0.23490  0.89560  0.47450  Biso   1.000  C
  C35      1.0000 0.39560  0.76510  0.22450  Biso   1.000  C
  C36      1.0000 0.10440  0.73490  0.72450  Biso   1.000  C
  C37      1.0000 0.76510  0.10440  0.47450  Biso   1.000  C
  C38      1.0000 0.73490  0.39560  0.97450  Biso   1.000  C
  C39      1.0000 0.89560  0.26510  0.72450  Biso   1.000  C
  C40      1.0000 0.60440  0.23490  0.22450  Biso   1.000  C
  C41      1.0000 0.23350  0.59900  0.06230  Biso   1.000  C
  C42      1.0000 0.26650  0.90100  0.56230  Biso   1.000  C
  C43      1.0000 0.40100  0.73350  0.31230  Biso   1.000  C
  C44      1.0000 0.09900  0.76650  0.81230  Biso   1.000  C
  C45      1.0000 0.73350  0.09900  0.56230  Biso   1.000  C
  C46      1.0000 0.76650  0.40100  0.06230  Biso   1.000  C
  C47      1.0000 0.90100  0.23350  0.81230  Biso   1.000  C
  C48      1.0000 0.59900  0.26650  0.31230  Biso   1.000  C
  H25      1.0000 0.20840  0.63430  0.08420  Biso   1.000  H
  H26      1.0000 0.29160  0.86570  0.58420  Biso   1.000  H
  H27      1.0000 0.36570  0.70840  0.33420  Biso   1.000  H
  H28      1.0000 0.13430  0.79160  0.83420  Biso   1.000  H
  H29      1.0000 0.70840  0.13430  0.58420  Biso   1.000  H
  H30      1.0000 0.79160  0.36570  0.08420  Biso   1.000  H
  H31      1.0000 0.86570  0.20840  0.83420  Biso   1.000  H
  H32      1.0000 0.63430  0.29160  0.33420  Biso   1.000  H
  C49      1.0000 0.23770  0.54310  0.11950  Biso   1.000  C
  C50      1.0000 0.26230  0.95690  0.61950  Biso   1.000  C
  C51      1.0000 0.45690  0.73770  0.36950  Biso   1.000  C
  C52      1.0000 0.04310  0.76230  0.86950  Biso   1.000  C
  C53      1.0000 0.73770  0.04310  0.61950  Biso   1.000  C
  C54      1.0000 0.76230  0.45690  0.11950  Biso   1.000  C
  C55      1.0000 0.95690  0.23770  0.86950  Biso   1.000  C
  C56      1.0000 0.54310  0.26230  0.36950  Biso   1.000  C
  C57      1.0000 0.35960  0.44320  0.97150  Biso   1.000  C
  C58      1.0000 0.14040  0.05680  0.47150  Biso   1.000  C
  C59      1.0000 0.55680  0.85960  0.22150  Biso   1.000  C
  C60      1.0000 0.94320  0.64040  0.72150  Biso   1.000  C
  C61      1.0000 0.85960  0.94320  0.47150  Biso   1.000  C
  C62      1.0000 0.64040  0.55680  0.97150  Biso   1.000  C
  C63      1.0000 0.05680  0.35960  0.72150  Biso   1.000  C
  C64      1.0000 0.44320  0.14040  0.22150  Biso   1.000  C
  H33      1.0000 0.35900  0.40840  0.01860  Biso   1.000  H
  H34      1.0000 0.14100  0.09160  0.51860  Biso   1.000  H
  H35      1.0000 0.59160  0.85900  0.26860  Biso   1.000  H
  H36      1.0000 0.90840  0.64100  0.76860  Biso   1.000  H
  H37      1.0000 0.85900  0.90840  0.51860  Biso   1.000  H
  H38      1.0000 0.64100  0.59160  0.01860  Biso   1.000  H
  H39      1.0000 0.09160  0.35900  0.76860  Biso   1.000  H
  H40      1.0000 0.40840  0.14100  0.26860  Biso   1.000  H
  H41      1.0000 0.40330  0.46120  0.96720  Biso   1.000  H
  H42      1.0000 0.09670  0.03880  0.46720  Biso   1.000  H
  H43      1.0000 0.53880  0.90330  0.21720  Biso   1.000  H
  H44      1.0000 0.96120  0.59670  0.71720  Biso   1.000  H
  H45      1.0000 0.90330  0.96120  0.46720  Biso   1.000  H
  H46      1.0000 0.59670  0.53880  0.96720  Biso   1.000  H
  H47      1.0000 0.03880  0.40330  0.71720  Biso   1.000  H
  H48      1.0000 0.46120  0.09670  0.21720  Biso   1.000  H
  H49      1.0000 0.34670  0.42610  0.90920  Biso   1.000  H
  H50      1.0000 0.15330  0.07390  0.40920  Biso   1.000  H
  H51      1.0000 0.57390  0.84670  0.15920  Biso   1.000  H
  H52      1.0000 0.92610  0.65330  0.65920  Biso   1.000  H
  H53      1.0000 0.84670  0.92610  0.40920  Biso   1.000  H
  H54      1.0000 0.65330  0.57390  0.90920  Biso   1.000  H
  H55      1.0000 0.07390  0.34670  0.65920  Biso   1.000  H
  H56      1.0000 0.42610  0.15330  0.15920  Biso   1.000  H
  C65      1.0000 0.25810  0.66630  0.91050  Biso   1.000  C
  C66      1.0000 0.24190  0.83370  0.41050  Biso   1.000  C
  C67      1.0000 0.33370  0.75810  0.16050  Biso   1.000  C
  C68      1.0000 0.16630  0.74190  0.66050  Biso   1.000  C
  C69      1.0000 0.75810  0.16630  0.41050  Biso   1.000  C
  C70      1.0000 0.74190  0.33370  0.91050  Biso   1.000  C
  C71      1.0000 0.83370  0.25810  0.66050  Biso   1.000  C
  C72      1.0000 0.66630  0.24190  0.16050  Biso   1.000  C
  H57      1.0000 0.22960  0.69740  0.94200  Biso   1.000  H
  H58      1.0000 0.27040  0.80260  0.44200  Biso   1.000  H
  H59      1.0000 0.30260  0.72960  0.19200  Biso   1.000  H
  H60      1.0000 0.19740  0.77040  0.69200  Biso   1.000  H
  H61      1.0000 0.72960  0.19740  0.44200  Biso   1.000  H
  H62      1.0000 0.77040  0.30260  0.94200  Biso   1.000  H
  H63      1.0000 0.80260  0.22960  0.69200  Biso   1.000  H
  H64      1.0000 0.69740  0.27040  0.19200  Biso   1.000  H
  H65      1.0000 0.23970  0.65420  0.84880  Biso   1.000  H
  H66      1.0000 0.26030  0.84580  0.34880  Biso   1.000  H
  H67      1.0000 0.34580  0.73970  0.09880  Biso   1.000  H
  H68      1.0000 0.15420  0.76030  0.59880  Biso   1.000  H
  H69      1.0000 0.73970  0.15420  0.34880  Biso   1.000  H
  H70      1.0000 0.76030  0.34580  0.84880  Biso   1.000  H
  H71      1.0000 0.84580  0.23970  0.59880  Biso   1.000  H
  H72      1.0000 0.65420  0.26030  0.09880  Biso   1.000  H
  H73      1.0000 0.30070  0.68580  0.90080  Biso   1.000  H
  H74      1.0000 0.19930  0.81420  0.40080  Biso   1.000  H
  H75      1.0000 0.31420  0.80070  0.15080  Biso   1.000  H
  H76      1.0000 0.18580  0.69930  0.65080  Biso   1.000  H
  H77      1.0000 0.80070  0.18580  0.40080  Biso   1.000  H
  H78      1.0000 0.69930  0.31420  0.90080  Biso   1.000  H
  H79      1.0000 0.81420  0.30070  0.65080  Biso   1.000  H
  H80      1.0000 0.68580  0.19930  0.15080  Biso   1.000  H
  C73      1.0000 0.19970  0.53880  0.21270  Biso   1.000  C
  C74      1.0000 0.30030  0.96120  0.71270  Biso   1.000  C
  C75      1.0000 0.46120  0.69970  0.46270  Biso   1.000  C
  C76      1.0000 0.03880  0.80030  0.96270  Biso   1.000  C
  C77      1.0000 0.69970  0.03880  0.71270  Biso   1.000  C
  C78      1.0000 0.80030  0.46120  0.21270  Biso   1.000  C
  C79      1.0000 0.96120  0.19970  0.96270  Biso   1.000  C
  C80      1.0000 0.53880  0.30030  0.46270  Biso   1.000  C
  H81      1.0000 0.20820  0.49710  0.24310  Biso   1.000  H
  H82      1.0000 0.29180  0.00290  0.74310  Biso   1.000  H
  H83      1.0000 0.50290  0.70820  0.49310  Biso   1.000  H
  H84      1.0000 0.99710  0.79180  0.99310  Biso   1.000  H
  H85      1.0000 0.70820  0.99710  0.74310  Biso   1.000  H
  H86      1.0000 0.79180  0.50290  0.24310  Biso   1.000  H
  H87      1.0000 0.00290  0.20820  0.99310  Biso   1.000  H
  H88      1.0000 0.49710  0.29180  0.49310  Biso   1.000  H
  H89      1.0000 0.15350  0.54270  0.19930  Biso   1.000  H
  H90      1.0000 0.34650  0.95730  0.69930  Biso   1.000  H
  H91      1.0000 0.45730  0.65350  0.44930  Biso   1.000  H
  H92      1.0000 0.04270  0.84650  0.94930  Biso   1.000  H
  H93      1.0000 0.65350  0.04270  0.69930  Biso   1.000  H
  H94      1.0000 0.84650  0.45730  0.19930  Biso   1.000  H
  H95      1.0000 0.95730  0.15350  0.94930  Biso   1.000  H
  H96      1.0000 0.54270  0.34650  0.44930  Biso   1.000  H
  H97      1.0000 0.21320  0.57370  0.25530  Biso   1.000  H
  H98      1.0000 0.28680  0.92630  0.75530  Biso   1.000  H
  H99      1.0000 0.42630  0.71320  0.50530  Biso   1.000  H
  H100     1.0000 0.07370  0.78680  0.00530  Biso   1.000  H
  H101     1.0000 0.71320  0.07370  0.75530  Biso   1.000  H
  H102     1.0000 0.78680  0.42630  0.25530  Biso   1.000  H
  H103     1.0000 0.92630  0.21320  0.00530  Biso   1.000  H
  H104     1.0000 0.57370  0.28680  0.50530  Biso   1.000  H
  C81      1.0000 0.07340  0.33390  0.22010  Biso   1.000  C
  C82      1.0000 0.42660  0.16610  0.72010  Biso   1.000  C
  C83      1.0000 0.66610  0.57340  0.47010  Biso   1.000  C
  C84      1.0000 0.83390  0.92660  0.97010  Biso   1.000  C
  C85      1.0000 0.57340  0.83390  0.72010  Biso   1.000  C
  C86      1.0000 0.92660  0.66610  0.22010  Biso   1.000  C
  C87      1.0000 0.16610  0.07340  0.97010  Biso   1.000  C
  C88      1.0000 0.33390  0.42660  0.47010  Biso   1.000  C
  C89      1.0000 0.01400  0.34280  0.27720  Biso   1.000  C
  C90      1.0000 0.48600  0.15720  0.77720  Biso   1.000  C
  C91      1.0000 0.65720  0.51400  0.52720  Biso   1.000  C
  C92      1.0000 0.84280  0.98600  0.02720  Biso   1.000  C
  C93      1.0000 0.51400  0.84280  0.77720  Biso   1.000  C
  C94      1.0000 0.98600  0.65720  0.27720  Biso   1.000  C
  C95      1.0000 0.15720  0.01400  0.02720  Biso   1.000  C
  C96      1.0000 0.34280  0.48600  0.52720  Biso   1.000  C
  C97      1.0000 0.02890  0.38300  0.35600  Biso   1.000  C
  C98      1.0000 0.47110  0.11700  0.85600  Biso   1.000  C
  C99      1.0000 0.61700  0.52890  0.60600  Biso   1.000  C
  C100     1.0000 0.88300  0.97110  0.10600  Biso   1.000  C
  C101     1.0000 0.52890  0.88300  0.85600  Biso   1.000  C
  C102     1.0000 0.97110  0.61700  0.35600  Biso   1.000  C
  C103     1.0000 0.11700  0.02890  0.10600  Biso   1.000  C
  C104     1.0000 0.38300  0.47110  0.60600  Biso   1.000  C
  C105     1.0000 0.98040  0.39840  0.42360  Biso   1.000  C
  C106     1.0000 0.51960  0.10160  0.92360  Biso   1.000  C
  C107     1.0000 0.60160  0.48040  0.67360  Biso   1.000  C
  C108     1.0000 0.89840  0.01960  0.17360  Biso   1.000  C
  C109     1.0000 0.48040  0.89840  0.92360  Biso   1.000  C
  C110     1.0000 0.01960  0.60160  0.42360  Biso   1.000  C
  C111     1.0000 0.10160  0.98040  0.17360  Biso   1.000  C
  C112     1.0000 0.39840  0.51960  0.67360  Biso   1.000  C
  H105     1.0000 0.99030  0.42530  0.47630  Biso   1.000  H
  H106     1.0000 0.50970  0.07470  0.97630  Biso   1.000  H
  H107     1.0000 0.57470  0.49030  0.72630  Biso   1.000  H
  H108     1.0000 0.92530  0.00970  0.22630  Biso   1.000  H
  H109     1.0000 0.49030  0.92530  0.97630  Biso   1.000  H
  H110     1.0000 0.00970  0.57470  0.47630  Biso   1.000  H
  H111     1.0000 0.07470  0.99030  0.22630  Biso   1.000  H
  H112     1.0000 0.42530  0.50970  0.72630  Biso   1.000  H
  C113     1.0000 0.91700  0.37360  0.41240  Biso   1.000  C
  C114     1.0000 0.58300  0.12640  0.91240  Biso   1.000  C
  C115     1.0000 0.62640  0.41700  0.66240  Biso   1.000  C
  C116     1.0000 0.87360  0.08300  0.16240  Biso   1.000  C
  C117     1.0000 0.41700  0.87360  0.91240  Biso   1.000  C
  C118     1.0000 0.08300  0.62640  0.41240  Biso   1.000  C
  C119     1.0000 0.12640  0.91700  0.16240  Biso   1.000  C
  C120     1.0000 0.37360  0.58300  0.66240  Biso   1.000  C
  C121     1.0000 0.90200  0.33340  0.33370  Biso   1.000  C
  C122     1.0000 0.59800  0.16660  0.83370  Biso   1.000  C
  C123     1.0000 0.66660  0.40200  0.58370  Biso   1.000  C
  C124     1.0000 0.83340  0.09800  0.08370  Biso   1.000  C
  C125     1.0000 0.40200  0.83340  0.83370  Biso   1.000  C
  C126     1.0000 0.09800  0.66660  0.33370  Biso   1.000  C
  C127     1.0000 0.16660  0.90200  0.08370  Biso   1.000  C
  C128     1.0000 0.33340  0.59800  0.58370  Biso   1.000  C
  H113     1.0000 0.85960  0.31690  0.32620  Biso   1.000  H
  H114     1.0000 0.64040  0.18310  0.82620  Biso   1.000  H
  H115     1.0000 0.68310  0.35960  0.57620  Biso   1.000  H
  H116     1.0000 0.81690  0.14040  0.07620  Biso   1.000  H
  H117     1.0000 0.35960  0.81690  0.82620  Biso   1.000  H
  H118     1.0000 0.14040  0.68310  0.32620  Biso   1.000  H
  H119     1.0000 0.18310  0.85960  0.07620  Biso   1.000  H
  H120     1.0000 0.31690  0.64040  0.57620  Biso   1.000  H
  C129     1.0000 0.95050  0.31800  0.26600  Biso   1.000  C
  C130     1.0000 0.54950  0.18200  0.76600  Biso   1.000  C
  C131     1.0000 0.68200  0.45050  0.51600  Biso   1.000  C
  C132     1.0000 0.81800  0.04950  0.01600  Biso   1.000  C
  C133     1.0000 0.45050  0.81800  0.76600  Biso   1.000  C
  C134     1.0000 0.04950  0.68200  0.26600  Biso   1.000  C
  C135     1.0000 0.18200  0.95050  0.01600  Biso   1.000  C
  C136     1.0000 0.31800  0.54950  0.51600  Biso   1.000  C
  C137     1.0000 0.09730  0.41300  0.37080  Biso   1.000  C
  C138     1.0000 0.40270  0.08700  0.87080  Biso   1.000  C
  C139     1.0000 0.58700  0.59730  0.62080  Biso   1.000  C
  C140     1.0000 0.91300  0.90270  0.12080  Biso   1.000  C
  C141     1.0000 0.59730  0.91300  0.87080  Biso   1.000  C
  C142     1.0000 0.90270  0.58700  0.37080  Biso   1.000  C
  C143     1.0000 0.08700  0.09730  0.12080  Biso   1.000  C
  C144     1.0000 0.41300  0.40270  0.62080  Biso   1.000  C
  H121     1.0000 0.09740  0.43920  0.42880  Biso   1.000  H
  H122     1.0000 0.40260  0.06080  0.92880  Biso   1.000  H
  H123     1.0000 0.56080  0.59740  0.67880  Biso   1.000  H
  H124     1.0000 0.93920  0.90260  0.17880  Biso   1.000  H
  H125     1.0000 0.59740  0.93920  0.92880  Biso   1.000  H
  H126     1.0000 0.90260  0.56080  0.42880  Biso   1.000  H
  H127     1.0000 0.06080  0.09740  0.17880  Biso   1.000  H
  H128     1.0000 0.43920  0.40260  0.67880  Biso   1.000  H
  H129     1.0000 0.10820  0.44010  0.31600  Biso   1.000  H
  H130     1.0000 0.39180  0.05990  0.81600  Biso   1.000  H
  H131     1.0000 0.55990  0.60820  0.56600  Biso   1.000  H
  H132     1.0000 0.94010  0.89180  0.06600  Biso   1.000  H
  H133     1.0000 0.60820  0.94010  0.81600  Biso   1.000  H
  H134     1.0000 0.89180  0.55990  0.31600  Biso   1.000  H
  H135     1.0000 0.05990  0.10820  0.06600  Biso   1.000  H
  H136     1.0000 0.44010  0.39180  0.56600  Biso   1.000  H
  H137     1.0000 0.12920  0.37830  0.37690  Biso   1.000  H
  H138     1.0000 0.37080  0.12170  0.87690  Biso   1.000  H
  H139     1.0000 0.62170  0.62920  0.62690  Biso   1.000  H
  H140     1.0000 0.87830  0.87080  0.12690  Biso   1.000  H
  H141     1.0000 0.62920  0.87830  0.87690  Biso   1.000  H
  H142     1.0000 0.87080  0.62170  0.37690  Biso   1.000  H
  H143     1.0000 0.12170  0.12920  0.12690  Biso   1.000  H
  H144     1.0000 0.37830  0.37080  0.62690  Biso   1.000  H
  C145     1.0000 0.86340  0.39120  0.48460  Biso   1.000  C
  C146     1.0000 0.63660  0.10880  0.98460  Biso   1.000  C
  C147     1.0000 0.60880  0.36340  0.73460  Biso   1.000  C
  C148     1.0000 0.89120  0.13660  0.23460  Biso   1.000  C
  C149     1.0000 0.36340  0.89120  0.98460  Biso   1.000  C
  C150     1.0000 0.13660  0.60880  0.48460  Biso   1.000  C
  C151     1.0000 0.10880  0.86340  0.23460  Biso   1.000  C
  C152     1.0000 0.39120  0.63660  0.73460  Biso   1.000  C
  H145     1.0000 0.88140  0.41930  0.53410  Biso   1.000  H
  H146     1.0000 0.61860  0.08070  0.03410  Biso   1.000  H
  H147     1.0000 0.58070  0.38140  0.78410  Biso   1.000  H
  H148     1.0000 0.91930  0.11860  0.28410  Biso   1.000  H
  H149     1.0000 0.38140  0.91930  0.03410  Biso   1.000  H
  H150     1.0000 0.11860  0.58070  0.53410  Biso   1.000  H
  H151     1.0000 0.08070  0.88140  0.28410  Biso   1.000  H
  H152     1.0000 0.41930  0.61860  0.78410  Biso   1.000  H
  H153     1.0000 0.84660  0.35170  0.51390  Biso   1.000  H
  H154     1.0000 0.65340  0.14830  0.01390  Biso   1.000  H
  H155     1.0000 0.64830  0.34660  0.76390  Biso   1.000  H
  H156     1.0000 0.85170  0.15340  0.26390  Biso   1.000  H
  H157     1.0000 0.34660  0.85170  0.01390  Biso   1.000  H
  H158     1.0000 0.15340  0.64830  0.51390  Biso   1.000  H
  H159     1.0000 0.14830  0.84660  0.26390  Biso   1.000  H
  H160     1.0000 0.35170  0.65340  0.76390  Biso   1.000  H
  H161     1.0000 0.82840  0.41380  0.45160  Biso   1.000  H
  H162     1.0000 0.67160  0.08620  0.95160  Biso   1.000  H
  H163     1.0000 0.58620  0.32840  0.70160  Biso   1.000  H
  H164     1.0000 0.91380  0.17160  0.20160  Biso   1.000  H
  H165     1.0000 0.32840  0.91380  0.95160  Biso   1.000  H
  H166     1.0000 0.17160  0.58620  0.45160  Biso   1.000  H
  H167     1.0000 0.08620  0.82840  0.20160  Biso   1.000  H
  H168     1.0000 0.41380  0.67160  0.70160  Biso   1.000  H
  C153     1.0000 0.93410  0.27660  0.17720  Biso   1.000  C
  C154     1.0000 0.56590  0.22340  0.67720  Biso   1.000  C
  C155     1.0000 0.72340  0.43410  0.42720  Biso   1.000  C
  C156     1.0000 0.77660  0.06590  0.92720  Biso   1.000  C
  C157     1.0000 0.43410  0.77660  0.67720  Biso   1.000  C
  C158     1.0000 0.06590  0.72340  0.17720  Biso   1.000  C
  C159     1.0000 0.22340  0.93410  0.92720  Biso   1.000  C
  C160     1.0000 0.27660  0.56590  0.42720  Biso   1.000  C
  H169     1.0000 0.88860  0.26350  0.17990  Biso   1.000  H
  H170     1.0000 0.61140  0.23650  0.67990  Biso   1.000  H
  H171     1.0000 0.73650  0.38860  0.42990  Biso   1.000  H
  H172     1.0000 0.76350  0.11140  0.92990  Biso   1.000  H
  H173     1.0000 0.38860  0.76350  0.67990  Biso   1.000  H
  H174     1.0000 0.11140  0.73650  0.17990  Biso   1.000  H
  H175     1.0000 0.23650  0.88860  0.92990  Biso   1.000  H
  H176     1.0000 0.26350  0.61140  0.42990  Biso   1.000  H
  H177     1.0000 0.96160  0.23810  0.17620  Biso   1.000  H
  H178     1.0000 0.53840  0.26190  0.67620  Biso   1.000  H
  H179     1.0000 0.76190  0.46160  0.42620  Biso   1.000  H
  H180     1.0000 0.73810  0.03840  0.92620  Biso   1.000  H
  H181     1.0000 0.46160  0.73810  0.67620  Biso   1.000  H
  H182     1.0000 0.03840  0.76190  0.17620  Biso   1.000  H
  H183     1.0000 0.26190  0.96160  0.92620  Biso   1.000  H
  H184     1.0000 0.23810  0.53840  0.42620  Biso   1.000  H
  H185     1.0000 0.94160  0.30200  0.11950  Biso   1.000  H
  H186     1.0000 0.55840  0.19800  0.61950  Biso   1.000  H
  H187     1.0000 0.69800  0.44160  0.36950  Biso   1.000  H
  H188     1.0000 0.80200  0.05840  0.86950  Biso   1.000  H
  H189     1.0000 0.44160  0.80200  0.61950  Biso   1.000  H
  H190     1.0000 0.05840  0.69800  0.11950  Biso   1.000  H
  H191     1.0000 0.19800  0.94160  0.86950  Biso   1.000  H
  H192     1.0000 0.30200  0.55840  0.36950  Biso   1.000  H
  C161     1.0000 0.08300  0.50250  0.04170  Biso   1.000  C
  C162     1.0000 0.41700  0.99750  0.54170  Biso   1.000  C
  C163     1.0000 0.49750  0.58300  0.29170  Biso   1.000  C
  C164     1.0000 0.00250  0.91700  0.79170  Biso   1.000  C
  C165     1.0000 0.58300  0.00250  0.54170  Biso   1.000  C
  C166     1.0000 0.91700  0.49750  0.04170  Biso   1.000  C
  C167     1.0000 0.99750  0.08300  0.79170  Biso   1.000  C
  C168     1.0000 0.50250  0.41700  0.29170  Biso   1.000  C
  H193     1.0000 0.06590  0.49240  0.10260  Biso   1.000  H
  H194     1.0000 0.43410  0.00760  0.60260  Biso   1.000  H
  H195     1.0000 0.50760  0.56590  0.35260  Biso   1.000  H
  H196     1.0000 0.99240  0.93410  0.85260  Biso   1.000  H
  H197     1.0000 0.56590  0.99240  0.60260  Biso   1.000  H
  H198     1.0000 0.93410  0.50760  0.10260  Biso   1.000  H
  H199     1.0000 0.00760  0.06590  0.85260  Biso   1.000  H
  H200     1.0000 0.49240  0.43410  0.35260  Biso   1.000  H
  C169     1.0000 0.06370  0.56050  0.99700  Biso   1.000  C
  C170     1.0000 0.43630  0.93950  0.49700  Biso   1.000  C
  C171     1.0000 0.43950  0.56370  0.24700  Biso   1.000  C
  C172     1.0000 0.06050  0.93630  0.74700  Biso   1.000  C
  C173     1.0000 0.56370  0.06050  0.49700  Biso   1.000  C
  C174     1.0000 0.93630  0.43950  0.99700  Biso   1.000  C
  C175     1.0000 0.93950  0.06370  0.74700  Biso   1.000  C
  C176     1.0000 0.56050  0.43630  0.24700  Biso   1.000  C
  H201     1.0000 0.03460  0.58880  0.02830  Biso   1.000  H
  H202     1.0000 0.46540  0.91120  0.52830  Biso   1.000  H
  H203     1.0000 0.41120  0.53460  0.27830  Biso   1.000  H
  H204     1.0000 0.08880  0.96540  0.77830  Biso   1.000  H
  H205     1.0000 0.53460  0.08880  0.52830  Biso   1.000  H
  H206     1.0000 0.96540  0.41120  0.02830  Biso   1.000  H
  H207     1.0000 0.91120  0.03460  0.77830  Biso   1.000  H
  H208     1.0000 0.58880  0.46540  0.27830  Biso   1.000  H
  C177     1.0000 0.08740  0.57630  0.90710  Biso   1.000  C
  C178     1.0000 0.41260  0.92370  0.40710  Biso   1.000  C
  C179     1.0000 0.42370  0.58740  0.15710  Biso   1.000  C
  C180     1.0000 0.07630  0.91260  0.65710  Biso   1.000  C
  C181     1.0000 0.58740  0.07630  0.40710  Biso   1.000  C
  C182     1.0000 0.91260  0.42370  0.90710  Biso   1.000  C
  C183     1.0000 0.92370  0.08740  0.65710  Biso   1.000  C
  C184     1.0000 0.57630  0.41260  0.15710  Biso   1.000  C
  H209     1.0000 0.07410  0.61490  0.87640  Biso   1.000  H
  H210     1.0000 0.42590  0.88510  0.37640  Biso   1.000  H
  H211     1.0000 0.38510  0.57410  0.12640  Biso   1.000  H
  H212     1.0000 0.11490  0.92590  0.62640  Biso   1.000  H
  H213     1.0000 0.57410  0.11490  0.37640  Biso   1.000  H
  H214     1.0000 0.92590  0.38510  0.87640  Biso   1.000  H
  H215     1.0000 0.88510  0.07410  0.62640  Biso   1.000  H
  H216     1.0000 0.61490  0.42590  0.12640  Biso   1.000  H
  C185     1.0000 0.13190  0.53350  0.86170  Biso   1.000  C
  C186     1.0000 0.36810  0.96650  0.36170  Biso   1.000  C
  C187     1.0000 0.46650  0.63190  0.11170  Biso   1.000  C
  C188     1.0000 0.03350  0.86810  0.61170  Biso   1.000  C
  C189     1.0000 0.63190  0.03350  0.36170  Biso   1.000  C
  C190     1.0000 0.86810  0.46650  0.86170  Biso   1.000  C
  C191     1.0000 0.96650  0.13190  0.61170  Biso   1.000  C
  C192     1.0000 0.53350  0.36810  0.11170  Biso   1.000  C
  C193     1.0000 0.15950  0.54530  0.76830  Biso   1.000  C
  C194     1.0000 0.34050  0.95470  0.26830  Biso   1.000  C
  C195     1.0000 0.45470  0.65950  0.01830  Biso   1.000  C
  C196     1.0000 0.04530  0.84050  0.51830  Biso   1.000  C
  C197     1.0000 0.65950  0.04530  0.26830  Biso   1.000  C
  C198     1.0000 0.84050  0.45470  0.76830  Biso   1.000  C
  C199     1.0000 0.95470  0.15950  0.51830  Biso   1.000  C
  C200     1.0000 0.54530  0.34050  0.01830  Biso   1.000  C
  H217     1.0000 0.14990  0.58440  0.73580  Biso   1.000  H
  H218     1.0000 0.35010  0.91560  0.23580  Biso   1.000  H
  H219     1.0000 0.41560  0.64990  0.98580  Biso   1.000  H
  H220     1.0000 0.08440  0.85010  0.48580  Biso   1.000  H
  H221     1.0000 0.64990  0.08440  0.23580  Biso   1.000  H
  H222     1.0000 0.85010  0.41560  0.73580  Biso   1.000  H
  H223     1.0000 0.91560  0.14990  0.48580  Biso   1.000  H
  H224     1.0000 0.58440  0.35010  0.98580  Biso   1.000  H
  C201     1.0000 0.19910  0.50090  0.72680  Biso   1.000  C
  C202     1.0000 0.30090  0.99910  0.22680  Biso   1.000  C
  C203     1.0000 0.49910  0.69910  0.97680  Biso   1.000  C
  C204     1.0000 0.00090  0.80090  0.47680  Biso   1.000  C
  C205     1.0000 0.69910  0.00090  0.22680  Biso   1.000  C
  C206     1.0000 0.80090  0.49910  0.72680  Biso   1.000  C
  C207     1.0000 0.99910  0.19910  0.47680  Biso   1.000  C
  C208     1.0000 0.50090  0.30090  0.97680  Biso   1.000  C
  H225     1.0000 0.21530  0.50950  0.66490  Biso   1.000  H
  H226     1.0000 0.28470  0.99050  0.16490  Biso   1.000  H
  H227     1.0000 0.49050  0.71530  0.91490  Biso   1.000  H
  H228     1.0000 0.00950  0.78470  0.41490  Biso   1.000  H
  H229     1.0000 0.71530  0.00950  0.16490  Biso   1.000  H
  H230     1.0000 0.78470  0.49050  0.66490  Biso   1.000  H
  H231     1.0000 0.99050  0.21530  0.41490  Biso   1.000  H
  H232     1.0000 0.50950  0.28470  0.91490  Biso   1.000  H
  C209     1.0000 0.21760  0.44100  0.77350  Biso   1.000  C
  C210     1.0000 0.28240  0.05900  0.27350  Biso   1.000  C
  C211     1.0000 0.55900  0.71760  0.02350  Biso   1.000  C
  C212     1.0000 0.94100  0.78240  0.52350  Biso   1.000  C
  C213     1.0000 0.71760  0.94100  0.27350  Biso   1.000  C
  C214     1.0000 0.78240  0.55900  0.77350  Biso   1.000  C
  C215     1.0000 0.05900  0.21760  0.52350  Biso   1.000  C
  C216     1.0000 0.44100  0.28240  0.02350  Biso   1.000  C
  C217     1.0000 0.25900  0.39230  0.73400  Biso   1.000  C
  C218     1.0000 0.24100  0.10770  0.23400  Biso   1.000  C
  C219     1.0000 0.60770  0.75900  0.98400  Biso   1.000  C
  C220     1.0000 0.89230  0.74100  0.48400  Biso   1.000  C
  C221     1.0000 0.75900  0.89230  0.23400  Biso   1.000  C
  C222     1.0000 0.74100  0.60770  0.73400  Biso   1.000  C
  C223     1.0000 0.10770  0.25900  0.48400  Biso   1.000  C
  C224     1.0000 0.39230  0.24100  0.98400  Biso   1.000  C
  H233     1.0000 0.27710  0.39790  0.67250  Biso   1.000  H
  H234     1.0000 0.22290  0.10210  0.17250  Biso   1.000  H
  H235     1.0000 0.60210  0.77710  0.92250  Biso   1.000  H
  H236     1.0000 0.89790  0.72290  0.42250  Biso   1.000  H
  H237     1.0000 0.77710  0.89790  0.17250  Biso   1.000  H
  H238     1.0000 0.72290  0.60210  0.67250  Biso   1.000  H
  H239     1.0000 0.10210  0.27710  0.42250  Biso   1.000  H
  H240     1.0000 0.39790  0.22290  0.92250  Biso   1.000  H
  C225     1.0000 0.27220  0.33750  0.78580  Biso   1.000  C
  C226     1.0000 0.22780  0.16250  0.28580  Biso   1.000  C
  C227     1.0000 0.66250  0.77220  0.03580  Biso   1.000  C
  C228     1.0000 0.83750  0.72780  0.53580  Biso   1.000  C
  C229     1.0000 0.77220  0.83750  0.28580  Biso   1.000  C
  C230     1.0000 0.72780  0.66250  0.78580  Biso   1.000  C
  C231     1.0000 0.16250  0.27220  0.53580  Biso   1.000  C
  C232     1.0000 0.33750  0.22780  0.03580  Biso   1.000  C
  H241     1.0000 0.29980  0.30520  0.76050  Biso   1.000  H
  H242     1.0000 0.20020  0.19480  0.26050  Biso   1.000  H
  H243     1.0000 0.69480  0.79980  0.01050  Biso   1.000  H
  H244     1.0000 0.80520  0.70020  0.51050  Biso   1.000  H
  H245     1.0000 0.79980  0.80520  0.26050  Biso   1.000  H
  H246     1.0000 0.70020  0.69480  0.76050  Biso   1.000  H
  H247     1.0000 0.19480  0.29980  0.51050  Biso   1.000  H
  H248     1.0000 0.30520  0.20020  0.01050  Biso   1.000  H
  C233     1.0000 0.24440  0.32980  0.87710  Biso   1.000  C
  C234     1.0000 0.25560  0.17020  0.37710  Biso   1.000  C
  C235     1.0000 0.67020  0.74440  0.12710  Biso   1.000  C
  C236     1.0000 0.82980  0.75560  0.62710  Biso   1.000  C
  C237     1.0000 0.74440  0.82980  0.37710  Biso   1.000  C
  C238     1.0000 0.75560  0.67020  0.87710  Biso   1.000  C
  C239     1.0000 0.17020  0.24440  0.62710  Biso   1.000  C
  C240     1.0000 0.32980  0.25560  0.12710  Biso   1.000  C
  H249     1.0000 0.25300  0.29110  0.91100  Biso   1.000  H
  H250     1.0000 0.24700  0.20890  0.41100  Biso   1.000  H
  H251     1.0000 0.70890  0.75300  0.16100  Biso   1.000  H
  H252     1.0000 0.79110  0.74700  0.66100  Biso   1.000  H
  H253     1.0000 0.75300  0.79110  0.41100  Biso   1.000  H
  H254     1.0000 0.74700  0.70890  0.91100  Biso   1.000  H
  H255     1.0000 0.20890  0.25300  0.66100  Biso   1.000  H
  H256     1.0000 0.29110  0.24700  0.16100  Biso   1.000  H
  C241     1.0000 0.19280  0.42950  0.86780  Biso   1.000  C
  C242     1.0000 0.30720  0.07050  0.36780  Biso   1.000  C
  C243     1.0000 0.57050  0.69280  0.11780  Biso   1.000  C
  C244     1.0000 0.92950  0.80720  0.61780  Biso   1.000  C
  C245     1.0000 0.69280  0.92950  0.36780  Biso   1.000  C
  C246     1.0000 0.80720  0.57050  0.86780  Biso   1.000  C
  C247     1.0000 0.07050  0.19280  0.61780  Biso   1.000  C
  C248     1.0000 0.42950  0.30720  0.11780  Biso   1.000  C
  C249     1.0000 0.14920  0.47620  0.91180  Biso   1.000  C
  C250     1.0000 0.35080  0.02380  0.41180  Biso   1.000  C
  C251     1.0000 0.52380  0.64920  0.16180  Biso   1.000  C
  C252     1.0000 0.97620  0.85080  0.66180  Biso   1.000  C
  C253     1.0000 0.64920  0.97620  0.41180  Biso   1.000  C
  C254     1.0000 0.85080  0.52380  0.91180  Biso   1.000  C
  C255     1.0000 0.02380  0.14920  0.66180  Biso   1.000  C
  C256     1.0000 0.47620  0.35080  0.16180  Biso   1.000  C
  C257     1.0000 0.03340  0.36840  0.30890  Biso   1.000  C
  C258     1.0000 0.46660  0.13160  0.80890  Biso   1.000  C
  C259     1.0000 0.63160  0.53340  0.55890  Biso   1.000  C
  C260     1.0000 0.86840  0.96660  0.05890  Biso   1.000  C
  C261     1.0000 0.53340  0.86840  0.80890  Biso   1.000  C
  C262     1.0000 0.96660  0.63160  0.30890  Biso   1.000  C
  C263     1.0000 0.13160  0.03340  0.05890  Biso   1.000  C
  C264     1.0000 0.36840  0.46660  0.55890  Biso   1.000  C
  C265     1.0000 0.05750  0.40610  0.38540  Biso   1.000  C
  C266     1.0000 0.44250  0.09390  0.88540  Biso   1.000  C
  C267     1.0000 0.59390  0.55750  0.63540  Biso   1.000  C
  C268     1.0000 0.90610  0.94250  0.13540  Biso   1.000  C
  C269     1.0000 0.55750  0.90610  0.88540  Biso   1.000  C
  C270     1.0000 0.94250  0.59390  0.38540  Biso   1.000  C
  C271     1.0000 0.09390  0.05750  0.13540  Biso   1.000  C
  C272     1.0000 0.40610  0.44250  0.63540  Biso   1.000  C
  C273     1.0000 0.01490  0.42870  0.45720  Biso   1.000  C
  C274     1.0000 0.48510  0.07130  0.95720  Biso   1.000  C
  C275     1.0000 0.57130  0.51490  0.70720  Biso   1.000  C
  C276     1.0000 0.92870  0.98510  0.20720  Biso   1.000  C
  C277     1.0000 0.51490  0.92870  0.95720  Biso   1.000  C
  C278     1.0000 0.98510  0.57130  0.45720  Biso   1.000  C
  C279     1.0000 0.07130  0.01490  0.20720  Biso   1.000  C
  C280     1.0000 0.42870  0.48510  0.70720  Biso   1.000  C
  H257     1.0000 0.03100  0.45390  0.50830  Biso   1.000  H
  H258     1.0000 0.46900  0.04610  0.00830  Biso   1.000  H
  H259     1.0000 0.54610  0.53100  0.75830  Biso   1.000  H
  H260     1.0000 0.95390  0.96900  0.25830  Biso   1.000  H
  H261     1.0000 0.53100  0.95390  0.00830  Biso   1.000  H
  H262     1.0000 0.96900  0.54610  0.50830  Biso   1.000  H
  H263     1.0000 0.04610  0.03100  0.25830  Biso   1.000  H
  H264     1.0000 0.45390  0.46900  0.75830  Biso   1.000  H
  C281     1.0000 0.94820  0.41350  0.45250  Biso   1.000  C
  C282     1.0000 0.55180  0.08650  0.95250  Biso   1.000  C
  C283     1.0000 0.58650  0.44820  0.70250  Biso   1.000  C
  C284     1.0000 0.91350  0.05180  0.20250  Biso   1.000  C
  C285     1.0000 0.44820  0.91350  0.95250  Biso   1.000  C
  C286     1.0000 0.05180  0.58650  0.45250  Biso   1.000  C
  C287     1.0000 0.08650  0.94820  0.20250  Biso   1.000  C
  C288     1.0000 0.41350  0.55180  0.70250  Biso   1.000  C
  C289     1.0000 0.92410  0.37570  0.37610  Biso   1.000  C
  C290     1.0000 0.57590  0.12430  0.87610  Biso   1.000  C
  C291     1.0000 0.62430  0.42410  0.62610  Biso   1.000  C
  C292     1.0000 0.87570  0.07590  0.12610  Biso   1.000  C
  C293     1.0000 0.42410  0.87570  0.87610  Biso   1.000  C
  C294     1.0000 0.07590  0.62430  0.37610  Biso   1.000  C
  C295     1.0000 0.12430  0.92410  0.12610  Biso   1.000  C
  C296     1.0000 0.37570  0.57590  0.62610  Biso   1.000  C
  H265     1.0000 0.87940  0.36560  0.37290  Biso   1.000  H
  H266     1.0000 0.62060  0.13440  0.87290  Biso   1.000  H
  H267     1.0000 0.63440  0.37940  0.62290  Biso   1.000  H
  H268     1.0000 0.86560  0.12060  0.12290  Biso   1.000  H
  H269     1.0000 0.37940  0.86560  0.87290  Biso   1.000  H
  H270     1.0000 0.12060  0.63440  0.37290  Biso   1.000  H
  H271     1.0000 0.13440  0.87940  0.12290  Biso   1.000  H
  H272     1.0000 0.36560  0.62060  0.62290  Biso   1.000  H
  C297     1.0000 0.96670  0.35320  0.30430  Biso   1.000  C
  C298     1.0000 0.53330  0.14680  0.80430  Biso   1.000  C
  C299     1.0000 0.64680  0.46670  0.55430  Biso   1.000  C
  C300     1.0000 0.85320  0.03330  0.05430  Biso   1.000  C
  C301     1.0000 0.46670  0.85320  0.80430  Biso   1.000  C
  C302     1.0000 0.03330  0.64680  0.30430  Biso   1.000  C
  C303     1.0000 0.14680  0.96670  0.05430  Biso   1.000  C
  C304     1.0000 0.35320  0.53330  0.55430  Biso   1.000  C
  C305     1.0000 0.12980  0.42490  0.39710  Biso   1.000  C
  C306     1.0000 0.37020  0.07510  0.89710  Biso   1.000  C
  C307     1.0000 0.57510  0.62980  0.64710  Biso   1.000  C
  C308     1.0000 0.92490  0.87020  0.14710  Biso   1.000  C
  C309     1.0000 0.62980  0.92490  0.89710  Biso   1.000  C
  C310     1.0000 0.87020  0.57510  0.39710  Biso   1.000  C
  C311     1.0000 0.07510  0.12980  0.14710  Biso   1.000  C
  C312     1.0000 0.42490  0.37020  0.64710  Biso   1.000  C
  H273     1.0000 0.13510  0.45090  0.45480  Biso   1.000  H
  H274     1.0000 0.36490  0.04910  0.95480  Biso   1.000  H
  H275     1.0000 0.54910  0.63510  0.70480  Biso   1.000  H
  H276     1.0000 0.95090  0.86490  0.20480  Biso   1.000  H
  H277     1.0000 0.63510  0.95090  0.95480  Biso   1.000  H
  H278     1.0000 0.86490  0.54910  0.45480  Biso   1.000  H
  H279     1.0000 0.04910  0.13510  0.20480  Biso   1.000  H
  H280     1.0000 0.45090  0.36490  0.70480  Biso   1.000  H
  H281     1.0000 0.14380  0.44990  0.34160  Biso   1.000  H
  H282     1.0000 0.35620  0.05010  0.84160  Biso   1.000  H
  H283     1.0000 0.55010  0.64380  0.59160  Biso   1.000  H
  H284     1.0000 0.94990  0.85620  0.09160  Biso   1.000  H
  H285     1.0000 0.64380  0.94990  0.84160  Biso   1.000  H
  H286     1.0000 0.85620  0.55010  0.34160  Biso   1.000  H
  H287     1.0000 0.05010  0.14380  0.09160  Biso   1.000  H
  H288     1.0000 0.44990  0.35620  0.59160  Biso   1.000  H
  H289     1.0000 0.15590  0.38560  0.40220  Biso   1.000  H
  H290     1.0000 0.34410  0.11440  0.90220  Biso   1.000  H
  H291     1.0000 0.61440  0.65590  0.65220  Biso   1.000  H
  H292     1.0000 0.88560  0.84410  0.15220  Biso   1.000  H
  H293     1.0000 0.65590  0.88560  0.90220  Biso   1.000  H
  H294     1.0000 0.84410  0.61440  0.40220  Biso   1.000  H
  H295     1.0000 0.11440  0.15590  0.15220  Biso   1.000  H
  H296     1.0000 0.38560  0.34410  0.65220  Biso   1.000  H
  C313     1.0000 0.90030  0.43990  0.53200  Biso   1.000  C
  C314     1.0000 0.59970  0.06010  0.03200  Biso   1.000  C
  C315     1.0000 0.56010  0.40030  0.78200  Biso   1.000  C
  C316     1.0000 0.93990  0.09970  0.28200  Biso   1.000  C
  C317     1.0000 0.40030  0.93990  0.03200  Biso   1.000  C
  C318     1.0000 0.09970  0.56010  0.53200  Biso   1.000  C
  C319     1.0000 0.06010  0.90030  0.28200  Biso   1.000  C
  C320     1.0000 0.43990  0.59970  0.78200  Biso   1.000  C
  H297     1.0000 0.85640  0.42490  0.51850  Biso   1.000  H
  H298     1.0000 0.64360  0.07510  0.01850  Biso   1.000  H
  H299     1.0000 0.57510  0.35640  0.76850  Biso   1.000  H
  H300     1.0000 0.92490  0.14360  0.26850  Biso   1.000  H
  H301     1.0000 0.35640  0.92490  0.01850  Biso   1.000  H
  H302     1.0000 0.14360  0.57510  0.51850  Biso   1.000  H
  H303     1.0000 0.07510  0.85640  0.26850  Biso   1.000  H
  H304     1.0000 0.42490  0.64360  0.76850  Biso   1.000  H
  H305     1.0000 0.90120  0.48720  0.53210  Biso   1.000  H
  H306     1.0000 0.59880  0.01280  0.03210  Biso   1.000  H
  H307     1.0000 0.51280  0.40120  0.78210  Biso   1.000  H
  H308     1.0000 0.98720  0.09880  0.28210  Biso   1.000  H
  H309     1.0000 0.40120  0.98720  0.03210  Biso   1.000  H
  H310     1.0000 0.09880  0.51280  0.53210  Biso   1.000  H
  H311     1.0000 0.01280  0.90120  0.28210  Biso   1.000  H
  H312     1.0000 0.48720  0.59880  0.78210  Biso   1.000  H
  H313     1.0000 0.91390  0.42380  0.59450  Biso   1.000  H
  H314     1.0000 0.58610  0.07620  0.09450  Biso   1.000  H
  H315     1.0000 0.57620  0.41390  0.84450  Biso   1.000  H
  H316     1.0000 0.92380  0.08610  0.34450  Biso   1.000  H
  H317     1.0000 0.41390  0.92380  0.09450  Biso   1.000  H
  H318     1.0000 0.08610  0.57620  0.59450  Biso   1.000  H
  H319     1.0000 0.07620  0.91390  0.34450  Biso   1.000  H
  H320     1.0000 0.42380  0.58610  0.84450  Biso   1.000  H
  C321     1.0000 0.93960  0.31140  0.22250  Biso   1.000  C
  C322     1.0000 0.56040  0.18860  0.72250  Biso   1.000  C
  C323     1.0000 0.68860  0.43960  0.47250  Biso   1.000  C
  C324     1.0000 0.81140  0.06040  0.97250  Biso   1.000  C
  C325     1.0000 0.43960  0.81140  0.72250  Biso   1.000  C
  C326     1.0000 0.06040  0.68860  0.22250  Biso   1.000  C
  C327     1.0000 0.18860  0.93960  0.97250  Biso   1.000  C
  C328     1.0000 0.31140  0.56040  0.47250  Biso   1.000  C
  H321     1.0000 0.89290  0.30610  0.23060  Biso   1.000  H
  H322     1.0000 0.60710  0.19390  0.73060  Biso   1.000  H
  H323     1.0000 0.69390  0.39290  0.48060  Biso   1.000  H
  H324     1.0000 0.80610  0.10710  0.98060  Biso   1.000  H
  H325     1.0000 0.39290  0.80610  0.73060  Biso   1.000  H
  H326     1.0000 0.10710  0.69390  0.23060  Biso   1.000  H
  H327     1.0000 0.19390  0.89290  0.98060  Biso   1.000  H
  H328     1.0000 0.30610  0.60710  0.48060  Biso   1.000  H
  H329     1.0000 0.96040  0.26890  0.22350  Biso   1.000  H
  H330     1.0000 0.53960  0.23110  0.72350  Biso   1.000  H
  H331     1.0000 0.73110  0.46040  0.47350  Biso   1.000  H
  H332     1.0000 0.76890  0.03960  0.97350  Biso   1.000  H
  H333     1.0000 0.46040  0.76890  0.72350  Biso   1.000  H
  H334     1.0000 0.03960  0.73110  0.22350  Biso   1.000  H
  H335     1.0000 0.23110  0.96040  0.97350  Biso   1.000  H
  H336     1.0000 0.26890  0.53960  0.47350  Biso   1.000  H
  H337     1.0000 0.94840  0.33250  0.16140  Biso   1.000  H
  H338     1.0000 0.55160  0.16750  0.66140  Biso   1.000  H
  H339     1.0000 0.66750  0.44840  0.41140  Biso   1.000  H
  H340     1.0000 0.83250  0.05160  0.91140  Biso   1.000  H
  H341     1.0000 0.44840  0.83250  0.66140  Biso   1.000  H
  H342     1.0000 0.05160  0.66750  0.16140  Biso   1.000  H
  H343     1.0000 0.16750  0.94840  0.91140  Biso   1.000  H
  H344     1.0000 0.33250  0.55160  0.41140  Biso   1.000  H
