data_image0
_cell_length_a       22.742
_cell_length_b       25.715
_cell_length_c       19.322
_cell_angle_alpha    90
_cell_angle_beta     90
_cell_angle_gamma    90

_symmetry_space_group_name_H-M    "P 1"
_symmetry_int_tables_number       1

loop_
  _symmetry_equiv_pos_as_xyz
  'x, y, z'

loop_
  _atom_site_label
  _atom_site_occupancy
  _atom_site_fract_x
  _atom_site_fract_y
  _atom_site_fract_z
  _atom_site_thermal_displace_type
  _atom_site_B_iso_or_equiv
  _atom_site_type_symbol
  Cu1      1.0000 0.50000  0.25000  0.48022  Biso   1.000  Cu
  Cu2      1.0000 0.00000  0.75000  0.48022  Biso   1.000  Cu
  Cu3      1.0000 0.50000  0.25000  0.01978  Biso   1.000  Cu
  Cu4      1.0000 0.00000  0.75000  0.01978  Biso   1.000  Cu
  Cu5      1.0000 0.50000  0.75000  0.51978  Biso   1.000  Cu
  Cu6      1.0000 0.00000  0.25000  0.51978  Biso   1.000  Cu
  Cu7      1.0000 0.50000  0.75000  0.98022  Biso   1.000  Cu
  Cu8      1.0000 0.00000  0.25000  0.98022  Biso   1.000  Cu
  Cu9      1.0000 0.75000  0.50000  0.47187  Biso   1.000  Cu
  Cu10     1.0000 0.25000  0.00000  0.47187  Biso   1.000  Cu
  Cu11     1.0000 0.25000  0.50000  0.02813  Biso   1.000  Cu
  Cu12     1.0000 0.75000  0.00000  0.02813  Biso   1.000  Cu
  Cu13     1.0000 0.25000  0.50000  0.52813  Biso   1.000  Cu
  Cu14     1.0000 0.75000  0.00000  0.52813  Biso   1.000  Cu
  Cu15     1.0000 0.75000  0.50000  0.97187  Biso   1.000  Cu
  Cu16     1.0000 0.25000  0.00000  0.97187  Biso   1.000  Cu
  N1       1.0000 0.60622  0.33190  0.61708  Biso   1.000  N
  N2       1.0000 0.10622  0.83190  0.61708  Biso   1.000  N
  N3       1.0000 0.89378  0.66810  0.61708  Biso   1.000  N
  N4       1.0000 0.39378  0.33190  0.88292  Biso   1.000  N
  N5       1.0000 0.10622  0.66810  0.88292  Biso   1.000  N
  N6       1.0000 0.39378  0.16810  0.61708  Biso   1.000  N
  N7       1.0000 0.89378  0.83190  0.88292  Biso   1.000  N
  N8       1.0000 0.60622  0.16810  0.88292  Biso   1.000  N
  N9       1.0000 0.39378  0.66810  0.38292  Biso   1.000  N
  N10      1.0000 0.89378  0.16810  0.38292  Biso   1.000  N
  N11      1.0000 0.10622  0.33190  0.38292  Biso   1.000  N
  N12      1.0000 0.60622  0.66810  0.11708  Biso   1.000  N
  N13      1.0000 0.89378  0.33190  0.11708  Biso   1.000  N
  N14      1.0000 0.60622  0.83190  0.38292  Biso   1.000  N
  N15      1.0000 0.10622  0.16810  0.11708  Biso   1.000  N
  N16      1.0000 0.39378  0.83190  0.11708  Biso   1.000  N
  N17      1.0000 0.53973  0.29253  0.55391  Biso   1.000  N
  N18      1.0000 0.03973  0.79253  0.55391  Biso   1.000  N
  N19      1.0000 0.96027  0.70747  0.55391  Biso   1.000  N
  N20      1.0000 0.46027  0.29253  0.94609  Biso   1.000  N
  N21      1.0000 0.03973  0.70747  0.94609  Biso   1.000  N
  N22      1.0000 0.46027  0.20747  0.55391  Biso   1.000  N
  N23      1.0000 0.96027  0.79253  0.94609  Biso   1.000  N
  N24      1.0000 0.53973  0.20747  0.94609  Biso   1.000  N
  N25      1.0000 0.46027  0.70747  0.44609  Biso   1.000  N
  N26      1.0000 0.96027  0.20747  0.44609  Biso   1.000  N
  N27      1.0000 0.03973  0.29253  0.44609  Biso   1.000  N
  N28      1.0000 0.53973  0.70747  0.05391  Biso   1.000  N
  N29      1.0000 0.96027  0.29253  0.05391  Biso   1.000  N
  N30      1.0000 0.53973  0.79253  0.44609  Biso   1.000  N
  N31      1.0000 0.03973  0.20747  0.05391  Biso   1.000  N
  N32      1.0000 0.46027  0.79253  0.05391  Biso   1.000  N
  N33      1.0000 0.67625  0.40154  0.61575  Biso   1.000  N
  N34      1.0000 0.17625  0.90154  0.61575  Biso   1.000  N
  N35      1.0000 0.82375  0.59846  0.61575  Biso   1.000  N
  N36      1.0000 0.32375  0.40154  0.88425  Biso   1.000  N
  N37      1.0000 0.17625  0.59846  0.88425  Biso   1.000  N
  N38      1.0000 0.32375  0.09846  0.61575  Biso   1.000  N
  N39      1.0000 0.82375  0.90154  0.88425  Biso   1.000  N
  N40      1.0000 0.67625  0.09846  0.88425  Biso   1.000  N
  N41      1.0000 0.32375  0.59846  0.38425  Biso   1.000  N
  N42      1.0000 0.82375  0.09846  0.38425  Biso   1.000  N
  N43      1.0000 0.17625  0.40154  0.38425  Biso   1.000  N
  N44      1.0000 0.67625  0.59846  0.11575  Biso   1.000  N
  N45      1.0000 0.82375  0.40154  0.11575  Biso   1.000  N
  N46      1.0000 0.67625  0.90154  0.38425  Biso   1.000  N
  N47      1.0000 0.17625  0.09846  0.11575  Biso   1.000  N
  N48      1.0000 0.32375  0.90154  0.11575  Biso   1.000  N
  N49      1.0000 0.70592  0.46308  0.54653  Biso   1.000  N
  N50      1.0000 0.20592  0.96308  0.54653  Biso   1.000  N
  N51      1.0000 0.79408  0.53692  0.54653  Biso   1.000  N
  N52      1.0000 0.29408  0.46308  0.95347  Biso   1.000  N
  N53      1.0000 0.20592  0.53692  0.95347  Biso   1.000  N
  N54      1.0000 0.29408  0.03692  0.54653  Biso   1.000  N
  N55      1.0000 0.79408  0.96308  0.95347  Biso   1.000  N
  N56      1.0000 0.70592  0.03692  0.95347  Biso   1.000  N
  N57      1.0000 0.29408  0.53692  0.45347  Biso   1.000  N
  N58      1.0000 0.79408  0.03692  0.45347  Biso   1.000  N
  N59      1.0000 0.20592  0.46308  0.45347  Biso   1.000  N
  N60      1.0000 0.70592  0.53692  0.04653  Biso   1.000  N
  N61      1.0000 0.79408  0.46308  0.04653  Biso   1.000  N
  N62      1.0000 0.70592  0.96308  0.45347  Biso   1.000  N
  N63      1.0000 0.20592  0.03692  0.04653  Biso   1.000  N
  N64      1.0000 0.29408  0.96308  0.04653  Biso   1.000  N
  N65      1.0000 0.42968  0.14547  0.33891  Biso   1.000  N
  N66      1.0000 0.92968  0.64547  0.33891  Biso   1.000  N
  N67      1.0000 0.07032  0.85453  0.33891  Biso   1.000  N
  N68      1.0000 0.57032  0.14547  0.16109  Biso   1.000  N
  N69      1.0000 0.92968  0.85453  0.16109  Biso   1.000  N
  N70      1.0000 0.57032  0.35453  0.33891  Biso   1.000  N
  N71      1.0000 0.07032  0.64547  0.16109  Biso   1.000  N
  N72      1.0000 0.42968  0.35453  0.16109  Biso   1.000  N
  N73      1.0000 0.57032  0.85453  0.66109  Biso   1.000  N
  N74      1.0000 0.07032  0.35453  0.66109  Biso   1.000  N
  N75      1.0000 0.92968  0.14547  0.66109  Biso   1.000  N
  N76      1.0000 0.42968  0.85453  0.83891  Biso   1.000  N
  N77      1.0000 0.07032  0.14547  0.83891  Biso   1.000  N
  N78      1.0000 0.42968  0.64547  0.66109  Biso   1.000  N
  N79      1.0000 0.92968  0.35453  0.83891  Biso   1.000  N
  N80      1.0000 0.57032  0.64547  0.83891  Biso   1.000  N
  N81      1.0000 0.45834  0.20930  0.40619  Biso   1.000  N
  N82      1.0000 0.95834  0.70930  0.40619  Biso   1.000  N
  N83      1.0000 0.04166  0.79070  0.40619  Biso   1.000  N
  N84      1.0000 0.54166  0.20930  0.09381  Biso   1.000  N
  N85      1.0000 0.95834  0.79070  0.09381  Biso   1.000  N
  N86      1.0000 0.54166  0.29070  0.40619  Biso   1.000  N
  N87      1.0000 0.04166  0.70930  0.09381  Biso   1.000  N
  N88      1.0000 0.45834  0.29070  0.09381  Biso   1.000  N
  N89      1.0000 0.54166  0.79070  0.59381  Biso   1.000  N
  N90      1.0000 0.04166  0.29070  0.59381  Biso   1.000  N
  N91      1.0000 0.95834  0.20930  0.59381  Biso   1.000  N
  N92      1.0000 0.45834  0.79070  0.90619  Biso   1.000  N
  N93      1.0000 0.04166  0.20930  0.90619  Biso   1.000  N
  N94      1.0000 0.45834  0.70930  0.59381  Biso   1.000  N
  N95      1.0000 0.95834  0.29070  0.90619  Biso   1.000  N
  N96      1.0000 0.54166  0.70930  0.90619  Biso   1.000  N
  N97      1.0000 0.36119  0.07476  0.33520  Biso   1.000  N
  N98      1.0000 0.86119  0.57476  0.33520  Biso   1.000  N
  N99      1.0000 0.13881  0.92524  0.33520  Biso   1.000  N
  N100     1.0000 0.63881  0.07476  0.16480  Biso   1.000  N
  N101     1.0000 0.86119  0.92524  0.16480  Biso   1.000  N
  N102     1.0000 0.63881  0.42524  0.33520  Biso   1.000  N
  N103     1.0000 0.13881  0.57476  0.16480  Biso   1.000  N
  N104     1.0000 0.36119  0.42524  0.16480  Biso   1.000  N
  N105     1.0000 0.63881  0.92524  0.66480  Biso   1.000  N
  N106     1.0000 0.13881  0.42524  0.66480  Biso   1.000  N
  N107     1.0000 0.86119  0.07476  0.66480  Biso   1.000  N
  N108     1.0000 0.36119  0.92524  0.83520  Biso   1.000  N
  N109     1.0000 0.13881  0.07476  0.83520  Biso   1.000  N
  N110     1.0000 0.36119  0.57476  0.66480  Biso   1.000  N
  N111     1.0000 0.86119  0.42524  0.83520  Biso   1.000  N
  N112     1.0000 0.63881  0.57476  0.83520  Biso   1.000  N
  N113     1.0000 0.29186  0.03973  0.39827  Biso   1.000  N
  N114     1.0000 0.79186  0.53973  0.39827  Biso   1.000  N
  N115     1.0000 0.20814  0.96027  0.39827  Biso   1.000  N
  N116     1.0000 0.70814  0.03973  0.10173  Biso   1.000  N
  N117     1.0000 0.79186  0.96027  0.10173  Biso   1.000  N
  N118     1.0000 0.70814  0.46027  0.39827  Biso   1.000  N
  N119     1.0000 0.20814  0.53973  0.10173  Biso   1.000  N
  N120     1.0000 0.29186  0.46027  0.10173  Biso   1.000  N
  N121     1.0000 0.70814  0.96027  0.60173  Biso   1.000  N
  N122     1.0000 0.20814  0.46027  0.60173  Biso   1.000  N
  N123     1.0000 0.79186  0.03973  0.60173  Biso   1.000  N
  N124     1.0000 0.29186  0.96027  0.89827  Biso   1.000  N
  N125     1.0000 0.20814  0.03973  0.89827  Biso   1.000  N
  N126     1.0000 0.29186  0.53973  0.60173  Biso   1.000  N
  N127     1.0000 0.79186  0.46027  0.89827  Biso   1.000  N
  N128     1.0000 0.70814  0.53973  0.89827  Biso   1.000  N
  O1       1.0000 0.77467  0.19761  0.08108  Biso   1.000  O
  O2       1.0000 0.27467  0.69761  0.08108  Biso   1.000  O
  O3       1.0000 0.72533  0.80239  0.08108  Biso   1.000  O
  O4       1.0000 0.22533  0.19761  0.41892  Biso   1.000  O
  O5       1.0000 0.27467  0.80239  0.41892  Biso   1.000  O
  O6       1.0000 0.22533  0.30239  0.08108  Biso   1.000  O
  O7       1.0000 0.72533  0.69761  0.41892  Biso   1.000  O
  O8       1.0000 0.77467  0.30239  0.41892  Biso   1.000  O
  O9       1.0000 0.22533  0.80239  0.91892  Biso   1.000  O
  O10      1.0000 0.72533  0.30239  0.91892  Biso   1.000  O
  O11      1.0000 0.27467  0.19761  0.91892  Biso   1.000  O
  O12      1.0000 0.77467  0.80239  0.58108  Biso   1.000  O
  O13      1.0000 0.72533  0.19761  0.58108  Biso   1.000  O
  O14      1.0000 0.77467  0.69761  0.91892  Biso   1.000  O
  O15      1.0000 0.27467  0.30239  0.58108  Biso   1.000  O
  O16      1.0000 0.22533  0.69761  0.58108  Biso   1.000  O
  O17      1.0000 0.85973  0.16172  0.10976  Biso   1.000  O
  O18      1.0000 0.35973  0.66172  0.10976  Biso   1.000  O
  O19      1.0000 0.64027  0.83828  0.10976  Biso   1.000  O
  O20      1.0000 0.14027  0.16172  0.39024  Biso   1.000  O
  O21      1.0000 0.35973  0.83828  0.39024  Biso   1.000  O
  O22      1.0000 0.14027  0.33828  0.10976  Biso   1.000  O
  O23      1.0000 0.64027  0.66172  0.39024  Biso   1.000  O
  O24      1.0000 0.85973  0.33828  0.39024  Biso   1.000  O
  O25      1.0000 0.14027  0.83828  0.89024  Biso   1.000  O
  O26      1.0000 0.64027  0.33828  0.89024  Biso   1.000  O
  O27      1.0000 0.35973  0.16172  0.89024  Biso   1.000  O
  O28      1.0000 0.85973  0.83828  0.60976  Biso   1.000  O
  O29      1.0000 0.64027  0.16172  0.60976  Biso   1.000  O
  O30      1.0000 0.85973  0.66172  0.89024  Biso   1.000  O
  O31      1.0000 0.35973  0.33828  0.60976  Biso   1.000  O
  O32      1.0000 0.14027  0.66172  0.60976  Biso   1.000  O
  O33      1.0000 0.90239  0.09292  0.91514  Biso   1.000  O
  O34      1.0000 0.40239  0.59292  0.91514  Biso   1.000  O
  O35      1.0000 0.59761  0.90708  0.91514  Biso   1.000  O
  O36      1.0000 0.09761  0.09292  0.58486  Biso   1.000  O
  O37      1.0000 0.40239  0.90708  0.58486  Biso   1.000  O
  O38      1.0000 0.09761  0.40708  0.91514  Biso   1.000  O
  O39      1.0000 0.59761  0.59292  0.58486  Biso   1.000  O
  O40      1.0000 0.90239  0.40708  0.58486  Biso   1.000  O
  O41      1.0000 0.09761  0.90708  0.08486  Biso   1.000  O
  O42      1.0000 0.59761  0.40708  0.08486  Biso   1.000  O
  O43      1.0000 0.40239  0.09292  0.08486  Biso   1.000  O
  O44      1.0000 0.90239  0.90708  0.41514  Biso   1.000  O
  O45      1.0000 0.59761  0.09292  0.41514  Biso   1.000  O
  O46      1.0000 0.90239  0.59292  0.08486  Biso   1.000  O
  O47      1.0000 0.40239  0.40708  0.41514  Biso   1.000  O
  O48      1.0000 0.09761  0.59292  0.41514  Biso   1.000  O
  O49      1.0000 0.94417  0.04556  0.83303  Biso   1.000  O
  O50      1.0000 0.44417  0.54556  0.83303  Biso   1.000  O
  O51      1.0000 0.55583  0.95444  0.83303  Biso   1.000  O
  O52      1.0000 0.05583  0.04556  0.66697  Biso   1.000  O
  O53      1.0000 0.44417  0.95444  0.66697  Biso   1.000  O
  O54      1.0000 0.05583  0.45444  0.83303  Biso   1.000  O
  O55      1.0000 0.55583  0.54556  0.66697  Biso   1.000  O
  O56      1.0000 0.94417  0.45444  0.66697  Biso   1.000  O
  O57      1.0000 0.05583  0.95444  0.16697  Biso   1.000  O
  O58      1.0000 0.55583  0.45444  0.16697  Biso   1.000  O
  O59      1.0000 0.44417  0.04556  0.16697  Biso   1.000  O
  O60      1.0000 0.94417  0.95444  0.33303  Biso   1.000  O
  O61      1.0000 0.55583  0.04556  0.33303  Biso   1.000  O
  O62      1.0000 0.94417  0.54556  0.16697  Biso   1.000  O
  O63      1.0000 0.44417  0.45444  0.33303  Biso   1.000  O
  O64      1.0000 0.05583  0.54556  0.33303  Biso   1.000  O
  O65      1.0000 0.41847  0.31085  0.48322  Biso   1.000  O
  O66      1.0000 0.91847  0.81085  0.48322  Biso   1.000  O
  O67      1.0000 0.08153  0.68915  0.48322  Biso   1.000  O
  O68      1.0000 0.58153  0.31085  0.01678  Biso   1.000  O
  O69      1.0000 0.91847  0.68915  0.01678  Biso   1.000  O
  O70      1.0000 0.58153  0.18915  0.48322  Biso   1.000  O
  O71      1.0000 0.08153  0.81085  0.01678  Biso   1.000  O
  O72      1.0000 0.41847  0.18915  0.01678  Biso   1.000  O
  O73      1.0000 0.58153  0.68915  0.51678  Biso   1.000  O
  O74      1.0000 0.08153  0.18915  0.51678  Biso   1.000  O
  O75      1.0000 0.91847  0.31085  0.51678  Biso   1.000  O
  O76      1.0000 0.41847  0.68915  0.98322  Biso   1.000  O
  O77      1.0000 0.08153  0.31085  0.98322  Biso   1.000  O
  O78      1.0000 0.41847  0.81085  0.51678  Biso   1.000  O
  O79      1.0000 0.91847  0.18915  0.98322  Biso   1.000  O
  O80      1.0000 0.58153  0.81085  0.98322  Biso   1.000  O
  H1       1.0000 0.39870  0.31620  0.51980  Biso   1.000  H
  H2       1.0000 0.89870  0.81620  0.51980  Biso   1.000  H
  H3       1.0000 0.10130  0.68380  0.51980  Biso   1.000  H
  H4       1.0000 0.60130  0.31620  0.98020  Biso   1.000  H
  H5       1.0000 0.89870  0.68380  0.98020  Biso   1.000  H
  H6       1.0000 0.60130  0.18380  0.51980  Biso   1.000  H
  H7       1.0000 0.10130  0.81620  0.98020  Biso   1.000  H
  H8       1.0000 0.39870  0.18380  0.98020  Biso   1.000  H
  H9       1.0000 0.60130  0.68380  0.48020  Biso   1.000  H
  H10      1.0000 0.10130  0.18380  0.48020  Biso   1.000  H
  H11      1.0000 0.89870  0.31620  0.48020  Biso   1.000  H
  H12      1.0000 0.39870  0.68380  0.01980  Biso   1.000  H
  H13      1.0000 0.10130  0.31620  0.01980  Biso   1.000  H
  H14      1.0000 0.39870  0.81620  0.48020  Biso   1.000  H
  H15      1.0000 0.89870  0.18380  0.01980  Biso   1.000  H
  H16      1.0000 0.60130  0.81620  0.01980  Biso   1.000  H
  H17      1.0000 0.41350  0.33730  0.45750  Biso   1.000  H
  H18      1.0000 0.91350  0.83730  0.45750  Biso   1.000  H
  H19      1.0000 0.08650  0.66270  0.45750  Biso   1.000  H
  H20      1.0000 0.58650  0.33730  0.04250  Biso   1.000  H
  H21      1.0000 0.91350  0.66270  0.04250  Biso   1.000  H
  H22      1.0000 0.58650  0.16270  0.45750  Biso   1.000  H
  H23      1.0000 0.08650  0.83730  0.04250  Biso   1.000  H
  H24      1.0000 0.41350  0.16270  0.04250  Biso   1.000  H
  H25      1.0000 0.58650  0.66270  0.54250  Biso   1.000  H
  H26      1.0000 0.08650  0.16270  0.54250  Biso   1.000  H
  H27      1.0000 0.91350  0.33730  0.54250  Biso   1.000  H
  H28      1.0000 0.41350  0.66270  0.95750  Biso   1.000  H
  H29      1.0000 0.08650  0.33730  0.95750  Biso   1.000  H
  H30      1.0000 0.41350  0.83730  0.54250  Biso   1.000  H
  H31      1.0000 0.91350  0.16270  0.95750  Biso   1.000  H
  H32      1.0000 0.58650  0.83730  0.95750  Biso   1.000  H
  O81      1.0000 0.82616  0.42940  0.47191  Biso   1.000  O
  O82      1.0000 0.32616  0.92940  0.47191  Biso   1.000  O
  O83      1.0000 0.67384  0.57060  0.47191  Biso   1.000  O
  O84      1.0000 0.17384  0.42940  0.02809  Biso   1.000  O
  O85      1.0000 0.32616  0.57060  0.02809  Biso   1.000  O
  O86      1.0000 0.17384  0.07060  0.47191  Biso   1.000  O
  O87      1.0000 0.67384  0.92940  0.02809  Biso   1.000  O
  O88      1.0000 0.82616  0.07060  0.02809  Biso   1.000  O
  O89      1.0000 0.17384  0.57060  0.52809  Biso   1.000  O
  O90      1.0000 0.67384  0.07060  0.52809  Biso   1.000  O
  O91      1.0000 0.32616  0.42940  0.52809  Biso   1.000  O
  O92      1.0000 0.82616  0.57060  0.97191  Biso   1.000  O
  O93      1.0000 0.67384  0.42940  0.97191  Biso   1.000  O
  O94      1.0000 0.82616  0.92940  0.52809  Biso   1.000  O
  O95      1.0000 0.32616  0.07060  0.97191  Biso   1.000  O
  O96      1.0000 0.17384  0.92940  0.97191  Biso   1.000  O
  H33      1.0000 0.82650  0.40180  0.44760  Biso   1.000  H
  H34      1.0000 0.32650  0.90180  0.44760  Biso   1.000  H
  H35      1.0000 0.67350  0.59820  0.44760  Biso   1.000  H
  H36      1.0000 0.17350  0.40180  0.05240  Biso   1.000  H
  H37      1.0000 0.32650  0.59820  0.05240  Biso   1.000  H
  H38      1.0000 0.17350  0.09820  0.44760  Biso   1.000  H
  H39      1.0000 0.67350  0.90180  0.05240  Biso   1.000  H
  H40      1.0000 0.82650  0.09820  0.05240  Biso   1.000  H
  H41      1.0000 0.17350  0.59820  0.55240  Biso   1.000  H
  H42      1.0000 0.67350  0.09820  0.55240  Biso   1.000  H
  H43      1.0000 0.32650  0.40180  0.55240  Biso   1.000  H
  H44      1.0000 0.82650  0.59820  0.94760  Biso   1.000  H
  H45      1.0000 0.67350  0.40180  0.94760  Biso   1.000  H
  H46      1.0000 0.82650  0.90180  0.55240  Biso   1.000  H
  H47      1.0000 0.32650  0.09820  0.94760  Biso   1.000  H
  H48      1.0000 0.17350  0.90180  0.94760  Biso   1.000  H
  H49      1.0000 0.84680  0.42200  0.50720  Biso   1.000  H
  H50      1.0000 0.34680  0.92200  0.50720  Biso   1.000  H
  H51      1.0000 0.65320  0.57800  0.50720  Biso   1.000  H
  H52      1.0000 0.15320  0.42200  0.99280  Biso   1.000  H
  H53      1.0000 0.34680  0.57800  0.99280  Biso   1.000  H
  H54      1.0000 0.15320  0.07800  0.50720  Biso   1.000  H
  H55      1.0000 0.65320  0.92200  0.99280  Biso   1.000  H
  H56      1.0000 0.84680  0.07800  0.99280  Biso   1.000  H
  H57      1.0000 0.15320  0.57800  0.49280  Biso   1.000  H
  H58      1.0000 0.65320  0.07800  0.49280  Biso   1.000  H
  H59      1.0000 0.34680  0.42200  0.49280  Biso   1.000  H
  H60      1.0000 0.84680  0.57800  0.00720  Biso   1.000  H
  H61      1.0000 0.65320  0.42200  0.00720  Biso   1.000  H
  H62      1.0000 0.84680  0.92200  0.49280  Biso   1.000  H
  H63      1.0000 0.34680  0.07800  0.00720  Biso   1.000  H
  H64      1.0000 0.15320  0.92200  0.00720  Biso   1.000  H
  O97      1.0000 0.00000  0.97360  0.75000  Biso   1.000  O
  O98      1.0000 0.50000  0.47360  0.75000  Biso   1.000  O
  O99      1.0000 0.50000  0.02640  0.75000  Biso   1.000  O
  O100     1.0000 0.00000  0.52640  0.75000  Biso   1.000  O
  O101     1.0000 0.00000  0.02640  0.25000  Biso   1.000  O
  O102     1.0000 0.50000  0.52640  0.25000  Biso   1.000  O
  O103     1.0000 0.50000  0.97360  0.25000  Biso   1.000  O
  O104     1.0000 0.00000  0.47360  0.25000  Biso   1.000  O
  H65      1.0000 0.97940  0.99420  0.77450  Biso   1.000  H
  H66      1.0000 0.47940  0.49420  0.77450  Biso   1.000  H
  H67      1.0000 0.52060  0.00580  0.77450  Biso   1.000  H
  H68      1.0000 0.02060  0.99420  0.72550  Biso   1.000  H
  H69      1.0000 0.47940  0.00580  0.72550  Biso   1.000  H
  H70      1.0000 0.02060  0.50580  0.77450  Biso   1.000  H
  H71      1.0000 0.52060  0.49420  0.72550  Biso   1.000  H
  H72      1.0000 0.97940  0.50580  0.72550  Biso   1.000  H
  H73      1.0000 0.02060  0.00580  0.22550  Biso   1.000  H
  H74      1.0000 0.52060  0.50580  0.22550  Biso   1.000  H
  H75      1.0000 0.47940  0.99420  0.22550  Biso   1.000  H
  H76      1.0000 0.97940  0.00580  0.27450  Biso   1.000  H
  H77      1.0000 0.52060  0.99420  0.27450  Biso   1.000  H
  H78      1.0000 0.97940  0.49420  0.22550  Biso   1.000  H
  H79      1.0000 0.47940  0.50580  0.27450  Biso   1.000  H
  H80      1.0000 0.02060  0.49420  0.27450  Biso   1.000  H
  O105     1.0000 0.83619  0.15595  0.83031  Biso   1.000  O
  O106     1.0000 0.33619  0.65595  0.83031  Biso   1.000  O
  O107     1.0000 0.66381  0.84405  0.83031  Biso   1.000  O
  O108     1.0000 0.16381  0.15595  0.66969  Biso   1.000  O
  O109     1.0000 0.33619  0.84405  0.66969  Biso   1.000  O
  O110     1.0000 0.16381  0.34405  0.83031  Biso   1.000  O
  O111     1.0000 0.66381  0.65595  0.66969  Biso   1.000  O
  O112     1.0000 0.83619  0.34405  0.66969  Biso   1.000  O
  O113     1.0000 0.16381  0.84405  0.16969  Biso   1.000  O
  O114     1.0000 0.66381  0.34405  0.16969  Biso   1.000  O
  O115     1.0000 0.33619  0.15595  0.16969  Biso   1.000  O
  O116     1.0000 0.83619  0.84405  0.33031  Biso   1.000  O
  O117     1.0000 0.66381  0.15595  0.33031  Biso   1.000  O
  O118     1.0000 0.83619  0.65595  0.16969  Biso   1.000  O
  O119     1.0000 0.33619  0.34405  0.33031  Biso   1.000  O
  O120     1.0000 0.16381  0.65595  0.33031  Biso   1.000  O
  H81      1.0000 0.85790  0.13390  0.85080  Biso   1.000  H
  H82      1.0000 0.35790  0.63390  0.85080  Biso   1.000  H
  H83      1.0000 0.64210  0.86610  0.85080  Biso   1.000  H
  H84      1.0000 0.14210  0.13390  0.64920  Biso   1.000  H
  H85      1.0000 0.35790  0.86610  0.64920  Biso   1.000  H
  H86      1.0000 0.14210  0.36610  0.85080  Biso   1.000  H
  H87      1.0000 0.64210  0.63390  0.64920  Biso   1.000  H
  H88      1.0000 0.85790  0.36610  0.64920  Biso   1.000  H
  H89      1.0000 0.14210  0.86610  0.14920  Biso   1.000  H
  H90      1.0000 0.64210  0.36610  0.14920  Biso   1.000  H
  H91      1.0000 0.35790  0.13390  0.14920  Biso   1.000  H
  H92      1.0000 0.85790  0.86610  0.35080  Biso   1.000  H
  H93      1.0000 0.64210  0.13390  0.35080  Biso   1.000  H
  H94      1.0000 0.85790  0.63390  0.14920  Biso   1.000  H
  H95      1.0000 0.35790  0.36610  0.35080  Biso   1.000  H
  H96      1.0000 0.14210  0.63390  0.35080  Biso   1.000  H
  H97      1.0000 0.81330  0.16740  0.86150  Biso   1.000  H
  H98      1.0000 0.31330  0.66740  0.86150  Biso   1.000  H
  H99      1.0000 0.68670  0.83260  0.86150  Biso   1.000  H
  H100     1.0000 0.18670  0.16740  0.63850  Biso   1.000  H
  H101     1.0000 0.31330  0.83260  0.63850  Biso   1.000  H
  H102     1.0000 0.18670  0.33260  0.86150  Biso   1.000  H
  H103     1.0000 0.68670  0.66740  0.63850  Biso   1.000  H
  H104     1.0000 0.81330  0.33260  0.63850  Biso   1.000  H
  H105     1.0000 0.18670  0.83260  0.13850  Biso   1.000  H
  H106     1.0000 0.68670  0.33260  0.13850  Biso   1.000  H
  H107     1.0000 0.31330  0.16740  0.13850  Biso   1.000  H
  H108     1.0000 0.81330  0.83260  0.36150  Biso   1.000  H
  H109     1.0000 0.68670  0.16740  0.36150  Biso   1.000  H
  H110     1.0000 0.81330  0.66740  0.13850  Biso   1.000  H
  H111     1.0000 0.31330  0.33260  0.36150  Biso   1.000  H
  H112     1.0000 0.18670  0.66740  0.36150  Biso   1.000  H
  O121     1.0000 0.72737  0.29500  0.06271  Biso   1.000  O
  O122     1.0000 0.22737  0.79500  0.06271  Biso   1.000  O
  O123     1.0000 0.77263  0.70500  0.06271  Biso   1.000  O
  O124     1.0000 0.27263  0.29500  0.43729  Biso   1.000  O
  O125     1.0000 0.22737  0.70500  0.43729  Biso   1.000  O
  O126     1.0000 0.27263  0.20500  0.06271  Biso   1.000  O
  O127     1.0000 0.77263  0.79500  0.43729  Biso   1.000  O
  O128     1.0000 0.72737  0.20500  0.43729  Biso   1.000  O
  O129     1.0000 0.27263  0.70500  0.93729  Biso   1.000  O
  O130     1.0000 0.77263  0.20500  0.93729  Biso   1.000  O
  O131     1.0000 0.22737  0.29500  0.93729  Biso   1.000  O
  O132     1.0000 0.72737  0.70500  0.56271  Biso   1.000  O
  O133     1.0000 0.77263  0.29500  0.56271  Biso   1.000  O
  O134     1.0000 0.72737  0.79500  0.93729  Biso   1.000  O
  O135     1.0000 0.22737  0.20500  0.56271  Biso   1.000  O
  O136     1.0000 0.27263  0.79500  0.56271  Biso   1.000  O
  H113     1.0000 0.74070  0.26480  0.07140  Biso   1.000  H
  H114     1.0000 0.24070  0.76480  0.07140  Biso   1.000  H
  H115     1.0000 0.75930  0.73520  0.07140  Biso   1.000  H
  H116     1.0000 0.25930  0.26480  0.42860  Biso   1.000  H
  H117     1.0000 0.24070  0.73520  0.42860  Biso   1.000  H
  H118     1.0000 0.25930  0.23520  0.07140  Biso   1.000  H
  H119     1.0000 0.75930  0.76480  0.42860  Biso   1.000  H
  H120     1.0000 0.74070  0.23520  0.42860  Biso   1.000  H
  H121     1.0000 0.25930  0.73520  0.92860  Biso   1.000  H
  H122     1.0000 0.75930  0.23520  0.92860  Biso   1.000  H
  H123     1.0000 0.24070  0.26480  0.92860  Biso   1.000  H
  H124     1.0000 0.74070  0.73520  0.57140  Biso   1.000  H
  H125     1.0000 0.75930  0.26480  0.57140  Biso   1.000  H
  H126     1.0000 0.74070  0.76480  0.92860  Biso   1.000  H
  H127     1.0000 0.24070  0.23520  0.57140  Biso   1.000  H
  H128     1.0000 0.25930  0.76480  0.57140  Biso   1.000  H
  H129     1.0000 0.69960  0.28910  0.03440  Biso   1.000  H
  H130     1.0000 0.19960  0.78910  0.03440  Biso   1.000  H
  H131     1.0000 0.80040  0.71090  0.03440  Biso   1.000  H
  H132     1.0000 0.30040  0.28910  0.46560  Biso   1.000  H
  H133     1.0000 0.19960  0.71090  0.46560  Biso   1.000  H
  H134     1.0000 0.30040  0.21090  0.03440  Biso   1.000  H
  H135     1.0000 0.80040  0.78910  0.46560  Biso   1.000  H
  H136     1.0000 0.69960  0.21090  0.46560  Biso   1.000  H
  H137     1.0000 0.30040  0.71090  0.96560  Biso   1.000  H
  H138     1.0000 0.80040  0.21090  0.96560  Biso   1.000  H
  H139     1.0000 0.19960  0.28910  0.96560  Biso   1.000  H
  H140     1.0000 0.69960  0.71090  0.53440  Biso   1.000  H
  H141     1.0000 0.80040  0.28910  0.53440  Biso   1.000  H
  H142     1.0000 0.69960  0.78910  0.96560  Biso   1.000  H
  H143     1.0000 0.19960  0.21090  0.53440  Biso   1.000  H
  H144     1.0000 0.30040  0.78910  0.53440  Biso   1.000  H
  O137     1.0000 0.59861  0.40625  0.78702  Biso   1.000  O
  O138     1.0000 0.09861  0.90625  0.78702  Biso   1.000  O
  O139     1.0000 0.90139  0.59375  0.78702  Biso   1.000  O
  O140     1.0000 0.40139  0.40625  0.71298  Biso   1.000  O
  O141     1.0000 0.09861  0.59375  0.71298  Biso   1.000  O
  O142     1.0000 0.40139  0.09375  0.78702  Biso   1.000  O
  O143     1.0000 0.90139  0.90625  0.71298  Biso   1.000  O
  O144     1.0000 0.59861  0.09375  0.71298  Biso   1.000  O
  O145     1.0000 0.40139  0.59375  0.21298  Biso   1.000  O
  O146     1.0000 0.90139  0.09375  0.21298  Biso   1.000  O
  O147     1.0000 0.09861  0.40625  0.21298  Biso   1.000  O
  O148     1.0000 0.59861  0.59375  0.28702  Biso   1.000  O
  O149     1.0000 0.90139  0.40625  0.28702  Biso   1.000  O
  O150     1.0000 0.59861  0.90625  0.21298  Biso   1.000  O
  O151     1.0000 0.09861  0.09375  0.28702  Biso   1.000  O
  O152     1.0000 0.40139  0.90625  0.28702  Biso   1.000  O
  H145     1.0000 0.60170  0.38460  0.82000  Biso   1.000  H
  H146     1.0000 0.10170  0.88460  0.82000  Biso   1.000  H
  H147     1.0000 0.89830  0.61540  0.82000  Biso   1.000  H
  H148     1.0000 0.39830  0.38460  0.68000  Biso   1.000  H
  H149     1.0000 0.10170  0.61540  0.68000  Biso   1.000  H
  H150     1.0000 0.39830  0.11540  0.82000  Biso   1.000  H
  H151     1.0000 0.89830  0.88460  0.68000  Biso   1.000  H
  H152     1.0000 0.60170  0.11540  0.68000  Biso   1.000  H
  H153     1.0000 0.39830  0.61540  0.18000  Biso   1.000  H
  H154     1.0000 0.89830  0.11540  0.18000  Biso   1.000  H
  H155     1.0000 0.10170  0.38460  0.18000  Biso   1.000  H
  H156     1.0000 0.60170  0.61540  0.32000  Biso   1.000  H
  H157     1.0000 0.89830  0.38460  0.32000  Biso   1.000  H
  H158     1.0000 0.60170  0.88460  0.18000  Biso   1.000  H
  H159     1.0000 0.10170  0.11540  0.32000  Biso   1.000  H
  H160     1.0000 0.39830  0.88460  0.32000  Biso   1.000  H
  H161     1.0000 0.56840  0.42460  0.79560  Biso   1.000  H
  H162     1.0000 0.06840  0.92460  0.79560  Biso   1.000  H
  H163     1.0000 0.93160  0.57540  0.79560  Biso   1.000  H
  H164     1.0000 0.43160  0.42460  0.70440  Biso   1.000  H
  H165     1.0000 0.06840  0.57540  0.70440  Biso   1.000  H
  H166     1.0000 0.43160  0.07540  0.79560  Biso   1.000  H
  H167     1.0000 0.93160  0.92460  0.70440  Biso   1.000  H
  H168     1.0000 0.56840  0.07540  0.70440  Biso   1.000  H
  H169     1.0000 0.43160  0.57540  0.20440  Biso   1.000  H
  H170     1.0000 0.93160  0.07540  0.20440  Biso   1.000  H
  H171     1.0000 0.06840  0.42460  0.20440  Biso   1.000  H
  H172     1.0000 0.56840  0.57540  0.29560  Biso   1.000  H
  H173     1.0000 0.93160  0.42460  0.29560  Biso   1.000  H
  H174     1.0000 0.56840  0.92460  0.20440  Biso   1.000  H
  H175     1.0000 0.06840  0.07540  0.29560  Biso   1.000  H
  H176     1.0000 0.43160  0.92460  0.29560  Biso   1.000  H
  C1       1.0000 0.66331  0.34984  0.64096  Biso   1.000  C
  C2       1.0000 0.16331  0.84984  0.64096  Biso   1.000  C
  C3       1.0000 0.83669  0.65016  0.64096  Biso   1.000  C
  C4       1.0000 0.33669  0.34984  0.85904  Biso   1.000  C
  C5       1.0000 0.16331  0.65016  0.85904  Biso   1.000  C
  C6       1.0000 0.33669  0.15016  0.64096  Biso   1.000  C
  C7       1.0000 0.83669  0.84984  0.85904  Biso   1.000  C
  C8       1.0000 0.66331  0.15016  0.85904  Biso   1.000  C
  C9       1.0000 0.33669  0.65016  0.35904  Biso   1.000  C
  C10      1.0000 0.83669  0.15016  0.35904  Biso   1.000  C
  C11      1.0000 0.16331  0.34984  0.35904  Biso   1.000  C
  C12      1.0000 0.66331  0.65016  0.14096  Biso   1.000  C
  C13      1.0000 0.83669  0.34984  0.14096  Biso   1.000  C
  C14      1.0000 0.66331  0.84984  0.35904  Biso   1.000  C
  C15      1.0000 0.16331  0.15016  0.14096  Biso   1.000  C
  C16      1.0000 0.33669  0.84984  0.14096  Biso   1.000  C
  H177     1.0000 0.66390  0.35000  0.69120  Biso   1.000  H
  H178     1.0000 0.16390  0.85000  0.69120  Biso   1.000  H
  H179     1.0000 0.83610  0.65000  0.69120  Biso   1.000  H
  H180     1.0000 0.33610  0.35000  0.80880  Biso   1.000  H
  H181     1.0000 0.16390  0.65000  0.80880  Biso   1.000  H
  H182     1.0000 0.33610  0.15000  0.69120  Biso   1.000  H
  H183     1.0000 0.83610  0.85000  0.80880  Biso   1.000  H
  H184     1.0000 0.66390  0.15000  0.80880  Biso   1.000  H
  H185     1.0000 0.33610  0.65000  0.30880  Biso   1.000  H
  H186     1.0000 0.83610  0.15000  0.30880  Biso   1.000  H
  H187     1.0000 0.16390  0.35000  0.30880  Biso   1.000  H
  H188     1.0000 0.66390  0.65000  0.19120  Biso   1.000  H
  H189     1.0000 0.83610  0.35000  0.19120  Biso   1.000  H
  H190     1.0000 0.66390  0.85000  0.30880  Biso   1.000  H
  H191     1.0000 0.16390  0.15000  0.19120  Biso   1.000  H
  H192     1.0000 0.33610  0.85000  0.19120  Biso   1.000  H
  H193     1.0000 0.69350  0.32600  0.62510  Biso   1.000  H
  H194     1.0000 0.19350  0.82600  0.62510  Biso   1.000  H
  H195     1.0000 0.80650  0.67400  0.62510  Biso   1.000  H
  H196     1.0000 0.30650  0.32600  0.87490  Biso   1.000  H
  H197     1.0000 0.19350  0.67400  0.87490  Biso   1.000  H
  H198     1.0000 0.30650  0.17400  0.62510  Biso   1.000  H
  H199     1.0000 0.80650  0.82600  0.87490  Biso   1.000  H
  H200     1.0000 0.69350  0.17400  0.87490  Biso   1.000  H
  H201     1.0000 0.30650  0.67400  0.37490  Biso   1.000  H
  H202     1.0000 0.80650  0.17400  0.37490  Biso   1.000  H
  H203     1.0000 0.19350  0.32600  0.37490  Biso   1.000  H
  H204     1.0000 0.69350  0.67400  0.12510  Biso   1.000  H
  H205     1.0000 0.80650  0.32600  0.12510  Biso   1.000  H
  H206     1.0000 0.69350  0.82600  0.37490  Biso   1.000  H
  H207     1.0000 0.19350  0.17400  0.12510  Biso   1.000  H
  H208     1.0000 0.30650  0.82600  0.12510  Biso   1.000  H
  C17      1.0000 0.59600  0.30150  0.56181  Biso   1.000  C
  C18      1.0000 0.09600  0.80150  0.56181  Biso   1.000  C
  C19      1.0000 0.90400  0.69850  0.56181  Biso   1.000  C
  C20      1.0000 0.40400  0.30150  0.93819  Biso   1.000  C
  C21      1.0000 0.09600  0.69850  0.93819  Biso   1.000  C
  C22      1.0000 0.40400  0.19850  0.56181  Biso   1.000  C
  C23      1.0000 0.90400  0.80150  0.93819  Biso   1.000  C
  C24      1.0000 0.59600  0.19850  0.93819  Biso   1.000  C
  C25      1.0000 0.40400  0.69850  0.43819  Biso   1.000  C
  C26      1.0000 0.90400  0.19850  0.43819  Biso   1.000  C
  C27      1.0000 0.09600  0.30150  0.43819  Biso   1.000  C
  C28      1.0000 0.59600  0.69850  0.06181  Biso   1.000  C
  C29      1.0000 0.90400  0.30150  0.06181  Biso   1.000  C
  C30      1.0000 0.59600  0.80150  0.43819  Biso   1.000  C
  C31      1.0000 0.09600  0.19850  0.06181  Biso   1.000  C
  C32      1.0000 0.40400  0.80150  0.06181  Biso   1.000  C
  H209     1.0000 0.62520  0.28850  0.53290  Biso   1.000  H
  H210     1.0000 0.12520  0.78850  0.53290  Biso   1.000  H
  H211     1.0000 0.87480  0.71150  0.53290  Biso   1.000  H
  H212     1.0000 0.37480  0.28850  0.96710  Biso   1.000  H
  H213     1.0000 0.12520  0.71150  0.96710  Biso   1.000  H
  H214     1.0000 0.37480  0.21150  0.53290  Biso   1.000  H
  H215     1.0000 0.87480  0.78850  0.96710  Biso   1.000  H
  H216     1.0000 0.62520  0.21150  0.96710  Biso   1.000  H
  H217     1.0000 0.37480  0.71150  0.46710  Biso   1.000  H
  H218     1.0000 0.87480  0.21150  0.46710  Biso   1.000  H
  H219     1.0000 0.12520  0.28850  0.46710  Biso   1.000  H
  H220     1.0000 0.62520  0.71150  0.03290  Biso   1.000  H
  H221     1.0000 0.87480  0.28850  0.03290  Biso   1.000  H
  H222     1.0000 0.62520  0.78850  0.46710  Biso   1.000  H
  H223     1.0000 0.12520  0.21150  0.03290  Biso   1.000  H
  H224     1.0000 0.37480  0.78850  0.03290  Biso   1.000  H
  C33      1.0000 0.51251  0.31855  0.60737  Biso   1.000  C
  C34      1.0000 0.01251  0.81855  0.60737  Biso   1.000  C
  C35      1.0000 0.98749  0.68145  0.60737  Biso   1.000  C
  C36      1.0000 0.48749  0.31855  0.89263  Biso   1.000  C
  C37      1.0000 0.01251  0.68145  0.89263  Biso   1.000  C
  C38      1.0000 0.48749  0.18145  0.60737  Biso   1.000  C
  C39      1.0000 0.98749  0.81855  0.89263  Biso   1.000  C
  C40      1.0000 0.51251  0.18145  0.89263  Biso   1.000  C
  C41      1.0000 0.48749  0.68145  0.39263  Biso   1.000  C
  C42      1.0000 0.98749  0.18145  0.39263  Biso   1.000  C
  C43      1.0000 0.01251  0.31855  0.39263  Biso   1.000  C
  C44      1.0000 0.51251  0.68145  0.10737  Biso   1.000  C
  C45      1.0000 0.98749  0.31855  0.10737  Biso   1.000  C
  C46      1.0000 0.51251  0.81855  0.39263  Biso   1.000  C
  C47      1.0000 0.01251  0.18145  0.10737  Biso   1.000  C
  C48      1.0000 0.48749  0.81855  0.10737  Biso   1.000  C
  H225     1.0000 0.47220  0.31920  0.61520  Biso   1.000  H
  H226     1.0000 0.97220  0.81920  0.61520  Biso   1.000  H
  H227     1.0000 0.02780  0.68080  0.61520  Biso   1.000  H
  H228     1.0000 0.52780  0.31920  0.88480  Biso   1.000  H
  H229     1.0000 0.97220  0.68080  0.88480  Biso   1.000  H
  H230     1.0000 0.52780  0.18080  0.61520  Biso   1.000  H
  H231     1.0000 0.02780  0.81920  0.88480  Biso   1.000  H
  H232     1.0000 0.47220  0.18080  0.88480  Biso   1.000  H
  H233     1.0000 0.52780  0.68080  0.38480  Biso   1.000  H
  H234     1.0000 0.02780  0.18080  0.38480  Biso   1.000  H
  H235     1.0000 0.97220  0.31920  0.38480  Biso   1.000  H
  H236     1.0000 0.47220  0.68080  0.11520  Biso   1.000  H
  H237     1.0000 0.02780  0.31920  0.11520  Biso   1.000  H
  H238     1.0000 0.47220  0.81920  0.38480  Biso   1.000  H
  H239     1.0000 0.97220  0.18080  0.11520  Biso   1.000  H
  H240     1.0000 0.52780  0.81920  0.11520  Biso   1.000  H
  C49      1.0000 0.55277  0.34278  0.64640  Biso   1.000  C
  C50      1.0000 0.05277  0.84278  0.64640  Biso   1.000  C
  C51      1.0000 0.94723  0.65722  0.64640  Biso   1.000  C
  C52      1.0000 0.44723  0.34278  0.85360  Biso   1.000  C
  C53      1.0000 0.05277  0.65722  0.85360  Biso   1.000  C
  C54      1.0000 0.44723  0.15722  0.64640  Biso   1.000  C
  C55      1.0000 0.94723  0.84278  0.85360  Biso   1.000  C
  C56      1.0000 0.55277  0.15722  0.85360  Biso   1.000  C
  C57      1.0000 0.44723  0.65722  0.35360  Biso   1.000  C
  C58      1.0000 0.94723  0.15722  0.35360  Biso   1.000  C
  C59      1.0000 0.05277  0.34278  0.35360  Biso   1.000  C
  C60      1.0000 0.55277  0.65722  0.14640  Biso   1.000  C
  C61      1.0000 0.94723  0.34278  0.14640  Biso   1.000  C
  C62      1.0000 0.55277  0.84278  0.35360  Biso   1.000  C
  C63      1.0000 0.05277  0.15722  0.14640  Biso   1.000  C
  C64      1.0000 0.44723  0.84278  0.14640  Biso   1.000  C
  H241     1.0000 0.54580  0.36290  0.68550  Biso   1.000  H
  H242     1.0000 0.04580  0.86290  0.68550  Biso   1.000  H
  H243     1.0000 0.95420  0.63710  0.68550  Biso   1.000  H
  H244     1.0000 0.45420  0.36290  0.81450  Biso   1.000  H
  H245     1.0000 0.04580  0.63710  0.81450  Biso   1.000  H
  H246     1.0000 0.45420  0.13710  0.68550  Biso   1.000  H
  H247     1.0000 0.95420  0.86290  0.81450  Biso   1.000  H
  H248     1.0000 0.54580  0.13710  0.81450  Biso   1.000  H
  H249     1.0000 0.45420  0.63710  0.31450  Biso   1.000  H
  H250     1.0000 0.95420  0.13710  0.31450  Biso   1.000  H
  H251     1.0000 0.04580  0.36290  0.31450  Biso   1.000  H
  H252     1.0000 0.54580  0.63710  0.18550  Biso   1.000  H
  H253     1.0000 0.95420  0.36290  0.18550  Biso   1.000  H
  H254     1.0000 0.54580  0.86290  0.31450  Biso   1.000  H
  H255     1.0000 0.04580  0.13710  0.18550  Biso   1.000  H
  H256     1.0000 0.45420  0.86290  0.18550  Biso   1.000  H
  C65      1.0000 0.70204  0.41279  0.55525  Biso   1.000  C
  C66      1.0000 0.20204  0.91279  0.55525  Biso   1.000  C
  C67      1.0000 0.79796  0.58721  0.55525  Biso   1.000  C
  C68      1.0000 0.29796  0.41279  0.94475  Biso   1.000  C
  C69      1.0000 0.20204  0.58721  0.94475  Biso   1.000  C
  C70      1.0000 0.29796  0.08721  0.55525  Biso   1.000  C
  C71      1.0000 0.79796  0.91279  0.94475  Biso   1.000  C
  C72      1.0000 0.70204  0.08721  0.94475  Biso   1.000  C
  C73      1.0000 0.29796  0.58721  0.44475  Biso   1.000  C
  C74      1.0000 0.79796  0.08721  0.44475  Biso   1.000  C
  C75      1.0000 0.20204  0.41279  0.44475  Biso   1.000  C
  C76      1.0000 0.70204  0.58721  0.05525  Biso   1.000  C
  C77      1.0000 0.79796  0.41279  0.05525  Biso   1.000  C
  C78      1.0000 0.70204  0.91279  0.44475  Biso   1.000  C
  C79      1.0000 0.20204  0.08721  0.05525  Biso   1.000  C
  C80      1.0000 0.29796  0.91279  0.05525  Biso   1.000  C
  H257     1.0000 0.71540  0.38820  0.52370  Biso   1.000  H
  H258     1.0000 0.21540  0.88820  0.52370  Biso   1.000  H
  H259     1.0000 0.78460  0.61180  0.52370  Biso   1.000  H
  H260     1.0000 0.28460  0.38820  0.97630  Biso   1.000  H
  H261     1.0000 0.21540  0.61180  0.97630  Biso   1.000  H
  H262     1.0000 0.28460  0.11180  0.52370  Biso   1.000  H
  H263     1.0000 0.78460  0.88820  0.97630  Biso   1.000  H
  H264     1.0000 0.71540  0.11180  0.97630  Biso   1.000  H
  H265     1.0000 0.28460  0.61180  0.47630  Biso   1.000  H
  H266     1.0000 0.78460  0.11180  0.47630  Biso   1.000  H
  H267     1.0000 0.21540  0.38820  0.47630  Biso   1.000  H
  H268     1.0000 0.71540  0.61180  0.02370  Biso   1.000  H
  H269     1.0000 0.78460  0.38820  0.02370  Biso   1.000  H
  H270     1.0000 0.71540  0.88820  0.47630  Biso   1.000  H
  H271     1.0000 0.21540  0.11180  0.02370  Biso   1.000  H
  H272     1.0000 0.28460  0.88820  0.02370  Biso   1.000  H
  C81      1.0000 0.68156  0.48495  0.60481  Biso   1.000  C
  C82      1.0000 0.18156  0.98495  0.60481  Biso   1.000  C
  C83      1.0000 0.81844  0.51505  0.60481  Biso   1.000  C
  C84      1.0000 0.31844  0.48495  0.89519  Biso   1.000  C
  C85      1.0000 0.18156  0.51505  0.89519  Biso   1.000  C
  C86      1.0000 0.31844  0.01505  0.60481  Biso   1.000  C
  C87      1.0000 0.81844  0.98495  0.89519  Biso   1.000  C
  C88      1.0000 0.68156  0.01505  0.89519  Biso   1.000  C
  C89      1.0000 0.31844  0.51505  0.39519  Biso   1.000  C
  C90      1.0000 0.81844  0.01505  0.39519  Biso   1.000  C
  C91      1.0000 0.18156  0.48495  0.39519  Biso   1.000  C
  C92      1.0000 0.68156  0.51505  0.10481  Biso   1.000  C
  C93      1.0000 0.81844  0.48495  0.10481  Biso   1.000  C
  C94      1.0000 0.68156  0.98495  0.39519  Biso   1.000  C
  C95      1.0000 0.18156  0.01505  0.10481  Biso   1.000  C
  C96      1.0000 0.31844  0.98495  0.10481  Biso   1.000  C
  H273     1.0000 0.67860  0.52040  0.61340  Biso   1.000  H
  H274     1.0000 0.17860  0.02040  0.61340  Biso   1.000  H
  H275     1.0000 0.82140  0.47960  0.61340  Biso   1.000  H
  H276     1.0000 0.32140  0.52040  0.88660  Biso   1.000  H
  H277     1.0000 0.17860  0.47960  0.88660  Biso   1.000  H
  H278     1.0000 0.32140  0.97960  0.61340  Biso   1.000  H
  H279     1.0000 0.82140  0.02040  0.88660  Biso   1.000  H
  H280     1.0000 0.67860  0.97960  0.88660  Biso   1.000  H
  H281     1.0000 0.32140  0.47960  0.38660  Biso   1.000  H
  H282     1.0000 0.82140  0.97960  0.38660  Biso   1.000  H
  H283     1.0000 0.17860  0.52040  0.38660  Biso   1.000  H
  H284     1.0000 0.67860  0.47960  0.11340  Biso   1.000  H
  H285     1.0000 0.82140  0.52040  0.11340  Biso   1.000  H
  H286     1.0000 0.67860  0.02040  0.38660  Biso   1.000  H
  H287     1.0000 0.17860  0.97960  0.11340  Biso   1.000  H
  H288     1.0000 0.32140  0.02040  0.11340  Biso   1.000  H
  C97      1.0000 0.66280  0.44752  0.64725  Biso   1.000  C
  C98      1.0000 0.16280  0.94752  0.64725  Biso   1.000  C
  C99      1.0000 0.83720  0.55248  0.64725  Biso   1.000  C
  C100     1.0000 0.33720  0.44752  0.85275  Biso   1.000  C
  C101     1.0000 0.16280  0.55248  0.85275  Biso   1.000  C
  C102     1.0000 0.33720  0.05248  0.64725  Biso   1.000  C
  C103     1.0000 0.83720  0.94752  0.85275  Biso   1.000  C
  C104     1.0000 0.66280  0.05248  0.85275  Biso   1.000  C
  C105     1.0000 0.33720  0.55248  0.35275  Biso   1.000  C
  C106     1.0000 0.83720  0.05248  0.35275  Biso   1.000  C
  C107     1.0000 0.16280  0.44752  0.35275  Biso   1.000  C
  C108     1.0000 0.66280  0.55248  0.14725  Biso   1.000  C
  C109     1.0000 0.83720  0.44752  0.14725  Biso   1.000  C
  C110     1.0000 0.66280  0.94752  0.35275  Biso   1.000  C
  C111     1.0000 0.16280  0.05248  0.14725  Biso   1.000  C
  C112     1.0000 0.33720  0.94752  0.14725  Biso   1.000  C
  H289     1.0000 0.64430  0.45190  0.68980  Biso   1.000  H
  H290     1.0000 0.14430  0.95190  0.68980  Biso   1.000  H
  H291     1.0000 0.85570  0.54810  0.68980  Biso   1.000  H
  H292     1.0000 0.35570  0.45190  0.81020  Biso   1.000  H
  H293     1.0000 0.14430  0.54810  0.81020  Biso   1.000  H
  H294     1.0000 0.35570  0.04810  0.68980  Biso   1.000  H
  H295     1.0000 0.85570  0.95190  0.81020  Biso   1.000  H
  H296     1.0000 0.64430  0.04810  0.81020  Biso   1.000  H
  H297     1.0000 0.35570  0.54810  0.31020  Biso   1.000  H
  H298     1.0000 0.85570  0.04810  0.31020  Biso   1.000  H
  H299     1.0000 0.14430  0.45190  0.31020  Biso   1.000  H
  H300     1.0000 0.64430  0.54810  0.18980  Biso   1.000  H
  H301     1.0000 0.85570  0.45190  0.18980  Biso   1.000  H
  H302     1.0000 0.64430  0.95190  0.31020  Biso   1.000  H
  H303     1.0000 0.14430  0.04810  0.18980  Biso   1.000  H
  H304     1.0000 0.35570  0.95190  0.18980  Biso   1.000  H
  C113     1.0000 0.41882  0.09301  0.31441  Biso   1.000  C
  C114     1.0000 0.91882  0.59301  0.31441  Biso   1.000  C
  C115     1.0000 0.08118  0.90699  0.31441  Biso   1.000  C
  C116     1.0000 0.58118  0.09301  0.18559  Biso   1.000  C
  C117     1.0000 0.91882  0.90699  0.18559  Biso   1.000  C
  C118     1.0000 0.58118  0.40699  0.31441  Biso   1.000  C
  C119     1.0000 0.08118  0.59301  0.18559  Biso   1.000  C
  C120     1.0000 0.41882  0.40699  0.18559  Biso   1.000  C
  C121     1.0000 0.58118  0.90699  0.68559  Biso   1.000  C
  C122     1.0000 0.08118  0.40699  0.68559  Biso   1.000  C
  C123     1.0000 0.91882  0.09301  0.68559  Biso   1.000  C
  C124     1.0000 0.41882  0.90699  0.81441  Biso   1.000  C
  C125     1.0000 0.08118  0.09301  0.81441  Biso   1.000  C
  C126     1.0000 0.41882  0.59301  0.68559  Biso   1.000  C
  C127     1.0000 0.91882  0.40699  0.81441  Biso   1.000  C
  C128     1.0000 0.58118  0.59301  0.81441  Biso   1.000  C
  H305     1.0000 0.42170  0.09230  0.26430  Biso   1.000  H
  H306     1.0000 0.92170  0.59230  0.26430  Biso   1.000  H
  H307     1.0000 0.07830  0.90770  0.26430  Biso   1.000  H
  H308     1.0000 0.57830  0.09230  0.23570  Biso   1.000  H
  H309     1.0000 0.92170  0.90770  0.23570  Biso   1.000  H
  H310     1.0000 0.57830  0.40770  0.26430  Biso   1.000  H
  H311     1.0000 0.07830  0.59230  0.23570  Biso   1.000  H
  H312     1.0000 0.42170  0.40770  0.23570  Biso   1.000  H
  H313     1.0000 0.57830  0.90770  0.73570  Biso   1.000  H
  H314     1.0000 0.07830  0.40770  0.73570  Biso   1.000  H
  H315     1.0000 0.92170  0.09230  0.73570  Biso   1.000  H
  H316     1.0000 0.42170  0.90770  0.76430  Biso   1.000  H
  H317     1.0000 0.07830  0.09230  0.76430  Biso   1.000  H
  H318     1.0000 0.42170  0.59230  0.73570  Biso   1.000  H
  H319     1.0000 0.92170  0.40770  0.76430  Biso   1.000  H
  H320     1.0000 0.57830  0.59230  0.76430  Biso   1.000  H
  H321     1.0000 0.44860  0.06990  0.33290  Biso   1.000  H
  H322     1.0000 0.94860  0.56990  0.33290  Biso   1.000  H
  H323     1.0000 0.05140  0.93010  0.33290  Biso   1.000  H
  H324     1.0000 0.55140  0.06990  0.16710  Biso   1.000  H
  H325     1.0000 0.94860  0.93010  0.16710  Biso   1.000  H
  H326     1.0000 0.55140  0.43010  0.33290  Biso   1.000  H
  H327     1.0000 0.05140  0.56990  0.16710  Biso   1.000  H
  H328     1.0000 0.44860  0.43010  0.16710  Biso   1.000  H
  H329     1.0000 0.55140  0.93010  0.66710  Biso   1.000  H
  H330     1.0000 0.05140  0.43010  0.66710  Biso   1.000  H
  H331     1.0000 0.94860  0.06990  0.66710  Biso   1.000  H
  H332     1.0000 0.44860  0.93010  0.83290  Biso   1.000  H
  H333     1.0000 0.05140  0.06990  0.83290  Biso   1.000  H
  H334     1.0000 0.44860  0.56990  0.66710  Biso   1.000  H
  H335     1.0000 0.94860  0.43010  0.83290  Biso   1.000  H
  H336     1.0000 0.55140  0.56990  0.83290  Biso   1.000  H
  C129     1.0000 0.45883  0.15913  0.39655  Biso   1.000  C
  C130     1.0000 0.95883  0.65913  0.39655  Biso   1.000  C
  C131     1.0000 0.04117  0.84087  0.39655  Biso   1.000  C
  C132     1.0000 0.54117  0.15913  0.10345  Biso   1.000  C
  C133     1.0000 0.95883  0.84087  0.10345  Biso   1.000  C
  C134     1.0000 0.54117  0.34087  0.39655  Biso   1.000  C
  C135     1.0000 0.04117  0.65913  0.10345  Biso   1.000  C
  C136     1.0000 0.45883  0.34087  0.10345  Biso   1.000  C
  C137     1.0000 0.54117  0.84087  0.60345  Biso   1.000  C
  C138     1.0000 0.04117  0.34087  0.60345  Biso   1.000  C
  C139     1.0000 0.95883  0.15913  0.60345  Biso   1.000  C
  C140     1.0000 0.45883  0.84087  0.89655  Biso   1.000  C
  C141     1.0000 0.04117  0.15913  0.89655  Biso   1.000  C
  C142     1.0000 0.45883  0.65913  0.60345  Biso   1.000  C
  C143     1.0000 0.95883  0.34087  0.89655  Biso   1.000  C
  C144     1.0000 0.54117  0.65913  0.89655  Biso   1.000  C
  H337     1.0000 0.47720  0.13560  0.42610  Biso   1.000  H
  H338     1.0000 0.97720  0.63560  0.42610  Biso   1.000  H
  H339     1.0000 0.02280  0.86440  0.42610  Biso   1.000  H
  H340     1.0000 0.52280  0.13560  0.07390  Biso   1.000  H
  H341     1.0000 0.97720  0.86440  0.07390  Biso   1.000  H
  H342     1.0000 0.52280  0.36440  0.42610  Biso   1.000  H
  H343     1.0000 0.02280  0.63560  0.07390  Biso   1.000  H
  H344     1.0000 0.47720  0.36440  0.07390  Biso   1.000  H
  H345     1.0000 0.52280  0.86440  0.57390  Biso   1.000  H
  H346     1.0000 0.02280  0.36440  0.57390  Biso   1.000  H
  H347     1.0000 0.97720  0.13560  0.57390  Biso   1.000  H
  H348     1.0000 0.47720  0.86440  0.92610  Biso   1.000  H
  H349     1.0000 0.02280  0.13560  0.92610  Biso   1.000  H
  H350     1.0000 0.47720  0.63560  0.57390  Biso   1.000  H
  H351     1.0000 0.97720  0.36440  0.92610  Biso   1.000  H
  H352     1.0000 0.52280  0.63560  0.92610  Biso   1.000  H
  C145     1.0000 0.40910  0.19023  0.31050  Biso   1.000  C
  C146     1.0000 0.90910  0.69023  0.31050  Biso   1.000  C
  C147     1.0000 0.09090  0.80977  0.31050  Biso   1.000  C
  C148     1.0000 0.59090  0.19023  0.18950  Biso   1.000  C
  C149     1.0000 0.90910  0.80977  0.18950  Biso   1.000  C
  C150     1.0000 0.59090  0.30977  0.31050  Biso   1.000  C
  C151     1.0000 0.09090  0.69023  0.18950  Biso   1.000  C
  C152     1.0000 0.40910  0.30977  0.18950  Biso   1.000  C
  C153     1.0000 0.59090  0.80977  0.68950  Biso   1.000  C
  C154     1.0000 0.09090  0.30977  0.68950  Biso   1.000  C
  C155     1.0000 0.90910  0.19023  0.68950  Biso   1.000  C
  C156     1.0000 0.40910  0.80977  0.81050  Biso   1.000  C
  C157     1.0000 0.09090  0.19023  0.81050  Biso   1.000  C
  C158     1.0000 0.40910  0.69023  0.68950  Biso   1.000  C
  C159     1.0000 0.90910  0.30977  0.81050  Biso   1.000  C
  C160     1.0000 0.59090  0.69023  0.81050  Biso   1.000  C
  H353     1.0000 0.38710  0.19330  0.27010  Biso   1.000  H
  H354     1.0000 0.88710  0.69330  0.27010  Biso   1.000  H
  H355     1.0000 0.11290  0.80670  0.27010  Biso   1.000  H
  H356     1.0000 0.61290  0.19330  0.22990  Biso   1.000  H
  H357     1.0000 0.88710  0.80670  0.22990  Biso   1.000  H
  H358     1.0000 0.61290  0.30670  0.27010  Biso   1.000  H
  H359     1.0000 0.11290  0.69330  0.22990  Biso   1.000  H
  H360     1.0000 0.38710  0.30670  0.22990  Biso   1.000  H
  H361     1.0000 0.61290  0.80670  0.72990  Biso   1.000  H
  H362     1.0000 0.11290  0.30670  0.72990  Biso   1.000  H
  H363     1.0000 0.88710  0.19330  0.72990  Biso   1.000  H
  H364     1.0000 0.38710  0.80670  0.77010  Biso   1.000  H
  H365     1.0000 0.11290  0.19330  0.77010  Biso   1.000  H
  H366     1.0000 0.38710  0.69330  0.72990  Biso   1.000  H
  H367     1.0000 0.88710  0.30670  0.77010  Biso   1.000  H
  H368     1.0000 0.61290  0.69330  0.77010  Biso   1.000  H
  C161     1.0000 0.42680  0.22900  0.35190  Biso   1.000  C
  C162     1.0000 0.92680  0.72900  0.35190  Biso   1.000  C
  C163     1.0000 0.07320  0.77100  0.35190  Biso   1.000  C
  C164     1.0000 0.57320  0.22900  0.14810  Biso   1.000  C
  C165     1.0000 0.92680  0.77100  0.14810  Biso   1.000  C
  C166     1.0000 0.57320  0.27100  0.35190  Biso   1.000  C
  C167     1.0000 0.07320  0.72900  0.14810  Biso   1.000  C
  C168     1.0000 0.42680  0.27100  0.14810  Biso   1.000  C
  C169     1.0000 0.57320  0.77100  0.64810  Biso   1.000  C
  C170     1.0000 0.07320  0.27100  0.64810  Biso   1.000  C
  C171     1.0000 0.92680  0.22900  0.64810  Biso   1.000  C
  C172     1.0000 0.42680  0.77100  0.85190  Biso   1.000  C
  C173     1.0000 0.07320  0.22900  0.85190  Biso   1.000  C
  C174     1.0000 0.42680  0.72900  0.64810  Biso   1.000  C
  C175     1.0000 0.92680  0.27100  0.85190  Biso   1.000  C
  C176     1.0000 0.57320  0.72900  0.85190  Biso   1.000  C
  H369     1.0000 0.41880  0.26410  0.34480  Biso   1.000  H
  H370     1.0000 0.91880  0.76410  0.34480  Biso   1.000  H
  H371     1.0000 0.08120  0.73590  0.34480  Biso   1.000  H
  H372     1.0000 0.58120  0.26410  0.15520  Biso   1.000  H
  H373     1.0000 0.91880  0.73590  0.15520  Biso   1.000  H
  H374     1.0000 0.58120  0.23590  0.34480  Biso   1.000  H
  H375     1.0000 0.08120  0.76410  0.15520  Biso   1.000  H
  H376     1.0000 0.41880  0.23590  0.15520  Biso   1.000  H
  H377     1.0000 0.58120  0.73590  0.65520  Biso   1.000  H
  H378     1.0000 0.08120  0.23590  0.65520  Biso   1.000  H
  H379     1.0000 0.91880  0.26410  0.65520  Biso   1.000  H
  H380     1.0000 0.41880  0.73590  0.84480  Biso   1.000  H
  H381     1.0000 0.08120  0.26410  0.84480  Biso   1.000  H
  H382     1.0000 0.41880  0.76410  0.65520  Biso   1.000  H
  H383     1.0000 0.91880  0.23590  0.84480  Biso   1.000  H
  H384     1.0000 0.58120  0.76410  0.84480  Biso   1.000  H
  C177     1.0000 0.34850  0.04701  0.39210  Biso   1.000  C
  C178     1.0000 0.84850  0.54701  0.39210  Biso   1.000  C
  C179     1.0000 0.15150  0.95299  0.39210  Biso   1.000  C
  C180     1.0000 0.65150  0.04701  0.10790  Biso   1.000  C
  C181     1.0000 0.84850  0.95299  0.10790  Biso   1.000  C
  C182     1.0000 0.65150  0.45299  0.39210  Biso   1.000  C
  C183     1.0000 0.15150  0.54701  0.10790  Biso   1.000  C
  C184     1.0000 0.34850  0.45299  0.10790  Biso   1.000  C
  C185     1.0000 0.65150  0.95299  0.60790  Biso   1.000  C
  C186     1.0000 0.15150  0.45299  0.60790  Biso   1.000  C
  C187     1.0000 0.84850  0.04701  0.60790  Biso   1.000  C
  C188     1.0000 0.34850  0.95299  0.89210  Biso   1.000  C
  C189     1.0000 0.15150  0.04701  0.89210  Biso   1.000  C
  C190     1.0000 0.34850  0.54701  0.60790  Biso   1.000  C
  C191     1.0000 0.84850  0.45299  0.89210  Biso   1.000  C
  C192     1.0000 0.65150  0.54701  0.89210  Biso   1.000  C
  H385     1.0000 0.37640  0.03460  0.42310  Biso   1.000  H
  H386     1.0000 0.87640  0.53460  0.42310  Biso   1.000  H
  H387     1.0000 0.12360  0.96540  0.42310  Biso   1.000  H
  H388     1.0000 0.62360  0.03460  0.07690  Biso   1.000  H
  H389     1.0000 0.87640  0.96540  0.07690  Biso   1.000  H
  H390     1.0000 0.62360  0.46540  0.42310  Biso   1.000  H
  H391     1.0000 0.12360  0.53460  0.07690  Biso   1.000  H
  H392     1.0000 0.37640  0.46540  0.07690  Biso   1.000  H
  H393     1.0000 0.62360  0.96540  0.57690  Biso   1.000  H
  H394     1.0000 0.12360  0.46540  0.57690  Biso   1.000  H
  H395     1.0000 0.87640  0.03460  0.57690  Biso   1.000  H
  H396     1.0000 0.37640  0.96540  0.92310  Biso   1.000  H
  H397     1.0000 0.12360  0.03460  0.92310  Biso   1.000  H
  H398     1.0000 0.37640  0.53460  0.57690  Biso   1.000  H
  H399     1.0000 0.87640  0.46540  0.92310  Biso   1.000  H
  H400     1.0000 0.62360  0.53460  0.92310  Biso   1.000  H
  C193     1.0000 0.26674  0.06404  0.34216  Biso   1.000  C
  C194     1.0000 0.76674  0.56404  0.34216  Biso   1.000  C
  C195     1.0000 0.23326  0.93596  0.34216  Biso   1.000  C
  C196     1.0000 0.73326  0.06404  0.15784  Biso   1.000  C
  C197     1.0000 0.76674  0.93596  0.15784  Biso   1.000  C
  C198     1.0000 0.73326  0.43596  0.34216  Biso   1.000  C
  C199     1.0000 0.23326  0.56404  0.15784  Biso   1.000  C
  C200     1.0000 0.26674  0.43596  0.15784  Biso   1.000  C
  C201     1.0000 0.73326  0.93596  0.65784  Biso   1.000  C
  C202     1.0000 0.23326  0.43596  0.65784  Biso   1.000  C
  C203     1.0000 0.76674  0.06404  0.65784  Biso   1.000  C
  C204     1.0000 0.26674  0.93596  0.84216  Biso   1.000  C
  C205     1.0000 0.23326  0.06404  0.84216  Biso   1.000  C
  C206     1.0000 0.26674  0.56404  0.65784  Biso   1.000  C
  C207     1.0000 0.76674  0.43596  0.84216  Biso   1.000  C
  C208     1.0000 0.73326  0.56404  0.84216  Biso   1.000  C
  H401     1.0000 0.22670  0.06520  0.33260  Biso   1.000  H
  H402     1.0000 0.72670  0.56520  0.33260  Biso   1.000  H
  H403     1.0000 0.27330  0.93480  0.33260  Biso   1.000  H
  H404     1.0000 0.77330  0.06520  0.16740  Biso   1.000  H
  H405     1.0000 0.72670  0.93480  0.16740  Biso   1.000  H
  H406     1.0000 0.77330  0.43480  0.33260  Biso   1.000  H
  H407     1.0000 0.27330  0.56520  0.16740  Biso   1.000  H
  H408     1.0000 0.22670  0.43480  0.16740  Biso   1.000  H
  H409     1.0000 0.77330  0.93480  0.66740  Biso   1.000  H
  H410     1.0000 0.27330  0.43480  0.66740  Biso   1.000  H
  H411     1.0000 0.72670  0.06520  0.66740  Biso   1.000  H
  H412     1.0000 0.22670  0.93480  0.83260  Biso   1.000  H
  H413     1.0000 0.27330  0.06520  0.83260  Biso   1.000  H
  H414     1.0000 0.22670  0.56520  0.66740  Biso   1.000  H
  H415     1.0000 0.72670  0.43480  0.83260  Biso   1.000  H
  H416     1.0000 0.77330  0.56520  0.83260  Biso   1.000  H
  C209     1.0000 0.30896  0.08579  0.30339  Biso   1.000  C
  C210     1.0000 0.80896  0.58579  0.30339  Biso   1.000  C
  C211     1.0000 0.19104  0.91421  0.30339  Biso   1.000  C
  C212     1.0000 0.69104  0.08579  0.19661  Biso   1.000  C
  C213     1.0000 0.80896  0.91421  0.19661  Biso   1.000  C
  C214     1.0000 0.69104  0.41421  0.30339  Biso   1.000  C
  C215     1.0000 0.19104  0.58579  0.19661  Biso   1.000  C
  C216     1.0000 0.30896  0.41421  0.19661  Biso   1.000  C
  C217     1.0000 0.69104  0.91421  0.69661  Biso   1.000  C
  C218     1.0000 0.19104  0.41421  0.69661  Biso   1.000  C
  C219     1.0000 0.80896  0.08579  0.69661  Biso   1.000  C
  C220     1.0000 0.30896  0.91421  0.80339  Biso   1.000  C
  C221     1.0000 0.19104  0.08579  0.80339  Biso   1.000  C
  C222     1.0000 0.30896  0.58579  0.69661  Biso   1.000  C
  C223     1.0000 0.80896  0.41421  0.80339  Biso   1.000  C
  C224     1.0000 0.69104  0.58579  0.80339  Biso   1.000  C
  H417     1.0000 0.30380  0.10470  0.26280  Biso   1.000  H
  H418     1.0000 0.80380  0.60470  0.26280  Biso   1.000  H
  H419     1.0000 0.19620  0.89530  0.26280  Biso   1.000  H
  H420     1.0000 0.69620  0.10470  0.23720  Biso   1.000  H
  H421     1.0000 0.80380  0.89530  0.23720  Biso   1.000  H
  H422     1.0000 0.69620  0.39530  0.26280  Biso   1.000  H
  H423     1.0000 0.19620  0.60470  0.23720  Biso   1.000  H
  H424     1.0000 0.30380  0.39530  0.23720  Biso   1.000  H
  H425     1.0000 0.69620  0.89530  0.73720  Biso   1.000  H
  H426     1.0000 0.19620  0.39530  0.73720  Biso   1.000  H
  H427     1.0000 0.80380  0.10470  0.73720  Biso   1.000  H
  H428     1.0000 0.30380  0.89530  0.76280  Biso   1.000  H
  H429     1.0000 0.19620  0.10470  0.76280  Biso   1.000  H
  H430     1.0000 0.30380  0.60470  0.73720  Biso   1.000  H
  H431     1.0000 0.80380  0.39530  0.76280  Biso   1.000  H
  H432     1.0000 0.69620  0.60470  0.76280  Biso   1.000  H
  C225     1.0000 0.81650  0.19079  0.12159  Biso   1.000  C
  C226     1.0000 0.31650  0.69079  0.12159  Biso   1.000  C
  C227     1.0000 0.68350  0.80921  0.12159  Biso   1.000  C
  C228     1.0000 0.18350  0.19079  0.37841  Biso   1.000  C
  C229     1.0000 0.31650  0.80921  0.37841  Biso   1.000  C
  C230     1.0000 0.18350  0.30921  0.12159  Biso   1.000  C
  C231     1.0000 0.68350  0.69079  0.37841  Biso   1.000  C
  C232     1.0000 0.81650  0.30921  0.37841  Biso   1.000  C
  C233     1.0000 0.18350  0.80921  0.87841  Biso   1.000  C
  C234     1.0000 0.68350  0.30921  0.87841  Biso   1.000  C
  C235     1.0000 0.31650  0.19079  0.87841  Biso   1.000  C
  C236     1.0000 0.81650  0.80921  0.62159  Biso   1.000  C
  C237     1.0000 0.68350  0.19079  0.62159  Biso   1.000  C
  C238     1.0000 0.81650  0.69079  0.87841  Biso   1.000  C
  C239     1.0000 0.31650  0.30921  0.62159  Biso   1.000  C
  C240     1.0000 0.18350  0.69079  0.62159  Biso   1.000  C
  C241     1.0000 0.81593  0.22063  0.18903  Biso   1.000  C
  C242     1.0000 0.31593  0.72063  0.18903  Biso   1.000  C
  C243     1.0000 0.68407  0.77937  0.18903  Biso   1.000  C
  C244     1.0000 0.18407  0.22063  0.31097  Biso   1.000  C
  C245     1.0000 0.31593  0.77937  0.31097  Biso   1.000  C
  C246     1.0000 0.18407  0.27937  0.18903  Biso   1.000  C
  C247     1.0000 0.68407  0.72063  0.31097  Biso   1.000  C
  C248     1.0000 0.81593  0.27937  0.31097  Biso   1.000  C
  C249     1.0000 0.18407  0.77937  0.81097  Biso   1.000  C
  C250     1.0000 0.68407  0.27937  0.81097  Biso   1.000  C
  C251     1.0000 0.31593  0.22063  0.81097  Biso   1.000  C
  C252     1.0000 0.81593  0.77937  0.68903  Biso   1.000  C
  C253     1.0000 0.68407  0.22063  0.68903  Biso   1.000  C
  C254     1.0000 0.81593  0.72063  0.81097  Biso   1.000  C
  C255     1.0000 0.31593  0.27937  0.68903  Biso   1.000  C
  C256     1.0000 0.18407  0.72063  0.68903  Biso   1.000  C
  C257     1.0000 0.76374  0.23581  0.21946  Biso   1.000  C
  C258     1.0000 0.26374  0.73581  0.21946  Biso   1.000  C
  C259     1.0000 0.73626  0.76419  0.21946  Biso   1.000  C
  C260     1.0000 0.23626  0.23581  0.28054  Biso   1.000  C
  C261     1.0000 0.26374  0.76419  0.28054  Biso   1.000  C
  C262     1.0000 0.23626  0.26419  0.21946  Biso   1.000  C
  C263     1.0000 0.73626  0.73581  0.28054  Biso   1.000  C
  C264     1.0000 0.76374  0.26419  0.28054  Biso   1.000  C
  C265     1.0000 0.23626  0.76419  0.78054  Biso   1.000  C
  C266     1.0000 0.73626  0.26419  0.78054  Biso   1.000  C
  C267     1.0000 0.26374  0.23581  0.78054  Biso   1.000  C
  C268     1.0000 0.76374  0.76419  0.71946  Biso   1.000  C
  C269     1.0000 0.73626  0.23581  0.71946  Biso   1.000  C
  C270     1.0000 0.76374  0.73581  0.78054  Biso   1.000  C
  C271     1.0000 0.26374  0.26419  0.71946  Biso   1.000  C
  C272     1.0000 0.23626  0.73581  0.71946  Biso   1.000  C
  H433     1.0000 0.72820  0.22690  0.19880  Biso   1.000  H
  H434     1.0000 0.22820  0.72690  0.19880  Biso   1.000  H
  H435     1.0000 0.77180  0.77310  0.19880  Biso   1.000  H
  H436     1.0000 0.27180  0.22690  0.30120  Biso   1.000  H
  H437     1.0000 0.22820  0.77310  0.30120  Biso   1.000  H
  H438     1.0000 0.27180  0.27310  0.19880  Biso   1.000  H
  H439     1.0000 0.77180  0.72690  0.30120  Biso   1.000  H
  H440     1.0000 0.72820  0.27310  0.30120  Biso   1.000  H
  H441     1.0000 0.27180  0.77310  0.80120  Biso   1.000  H
  H442     1.0000 0.77180  0.27310  0.80120  Biso   1.000  H
  H443     1.0000 0.22820  0.22690  0.80120  Biso   1.000  H
  H444     1.0000 0.72820  0.77310  0.69880  Biso   1.000  H
  H445     1.0000 0.77180  0.22690  0.69880  Biso   1.000  H
  H446     1.0000 0.72820  0.72690  0.80120  Biso   1.000  H
  H447     1.0000 0.22820  0.27310  0.69880  Biso   1.000  H
  H448     1.0000 0.27180  0.72690  0.69880  Biso   1.000  H
  C273     1.0000 0.86837  0.23492  0.22053  Biso   1.000  C
  C274     1.0000 0.36837  0.73492  0.22053  Biso   1.000  C
  C275     1.0000 0.63163  0.76508  0.22053  Biso   1.000  C
  C276     1.0000 0.13163  0.23492  0.27947  Biso   1.000  C
  C277     1.0000 0.36837  0.76508  0.27947  Biso   1.000  C
  C278     1.0000 0.13163  0.26508  0.22053  Biso   1.000  C
  C279     1.0000 0.63163  0.73492  0.27947  Biso   1.000  C
  C280     1.0000 0.86837  0.26508  0.27947  Biso   1.000  C
  C281     1.0000 0.13163  0.76508  0.77947  Biso   1.000  C
  C282     1.0000 0.63163  0.26508  0.77947  Biso   1.000  C
  C283     1.0000 0.36837  0.23492  0.77947  Biso   1.000  C
  C284     1.0000 0.86837  0.76508  0.72053  Biso   1.000  C
  C285     1.0000 0.63163  0.23492  0.72053  Biso   1.000  C
  C286     1.0000 0.86837  0.73492  0.77947  Biso   1.000  C
  C287     1.0000 0.36837  0.26508  0.72053  Biso   1.000  C
  C288     1.0000 0.13163  0.73492  0.72053  Biso   1.000  C
  H449     1.0000 0.90390  0.22400  0.20160  Biso   1.000  H
  H450     1.0000 0.40390  0.72400  0.20160  Biso   1.000  H
  H451     1.0000 0.59610  0.77600  0.20160  Biso   1.000  H
  H452     1.0000 0.09610  0.22400  0.29840  Biso   1.000  H
  H453     1.0000 0.40390  0.77600  0.29840  Biso   1.000  H
  H454     1.0000 0.09610  0.27600  0.20160  Biso   1.000  H
  H455     1.0000 0.59610  0.72400  0.29840  Biso   1.000  H
  H456     1.0000 0.90390  0.27600  0.29840  Biso   1.000  H
  H457     1.0000 0.09610  0.77600  0.79840  Biso   1.000  H
  H458     1.0000 0.59610  0.27600  0.79840  Biso   1.000  H
  H459     1.0000 0.40390  0.22400  0.79840  Biso   1.000  H
  H460     1.0000 0.90390  0.77600  0.70160  Biso   1.000  H
  H461     1.0000 0.59610  0.22400  0.70160  Biso   1.000  H
  H462     1.0000 0.90390  0.72400  0.79840  Biso   1.000  H
  H463     1.0000 0.40390  0.27600  0.70160  Biso   1.000  H
  H464     1.0000 0.09610  0.72400  0.70160  Biso   1.000  H
  C289     1.0000 0.93599  0.05716  0.89442  Biso   1.000  C
  C290     1.0000 0.43599  0.55716  0.89442  Biso   1.000  C
  C291     1.0000 0.56401  0.94284  0.89442  Biso   1.000  C
  C292     1.0000 0.06401  0.05716  0.60558  Biso   1.000  C
  C293     1.0000 0.43599  0.94284  0.60558  Biso   1.000  C
  C294     1.0000 0.06401  0.44284  0.89442  Biso   1.000  C
  C295     1.0000 0.56401  0.55716  0.60558  Biso   1.000  C
  C296     1.0000 0.93599  0.44284  0.60558  Biso   1.000  C
  C297     1.0000 0.06401  0.94284  0.10558  Biso   1.000  C
  C298     1.0000 0.56401  0.44284  0.10558  Biso   1.000  C
  C299     1.0000 0.43599  0.05716  0.10558  Biso   1.000  C
  C300     1.0000 0.93599  0.94284  0.39442  Biso   1.000  C
  C301     1.0000 0.56401  0.05716  0.39442  Biso   1.000  C
  C302     1.0000 0.93599  0.55716  0.10558  Biso   1.000  C
  C303     1.0000 0.43599  0.44284  0.39442  Biso   1.000  C
  C304     1.0000 0.06401  0.55716  0.39442  Biso   1.000  C
  C305     1.0000 0.96893  0.02730  0.94924  Biso   1.000  C
  C306     1.0000 0.46893  0.52730  0.94924  Biso   1.000  C
  C307     1.0000 0.53107  0.97270  0.94924  Biso   1.000  C
  C308     1.0000 0.03107  0.02730  0.55076  Biso   1.000  C
  C309     1.0000 0.46893  0.97270  0.55076  Biso   1.000  C
  C310     1.0000 0.03107  0.47270  0.94924  Biso   1.000  C
  C311     1.0000 0.53107  0.52730  0.55076  Biso   1.000  C
  C312     1.0000 0.96893  0.47270  0.55076  Biso   1.000  C
  C313     1.0000 0.03107  0.97270  0.05076  Biso   1.000  C
  C314     1.0000 0.53107  0.47270  0.05076  Biso   1.000  C
  C315     1.0000 0.46893  0.02730  0.05076  Biso   1.000  C
  C316     1.0000 0.96893  0.97270  0.44924  Biso   1.000  C
  C317     1.0000 0.53107  0.02730  0.44924  Biso   1.000  C
  C318     1.0000 0.96893  0.52730  0.05076  Biso   1.000  C
  C319     1.0000 0.46893  0.47270  0.44924  Biso   1.000  C
  C320     1.0000 0.03107  0.52730  0.44924  Biso   1.000  C
  C321     1.0000 0.97814  0.04863  0.01441  Biso   1.000  C
  C322     1.0000 0.47814  0.54863  0.01441  Biso   1.000  C
  C323     1.0000 0.52186  0.95137  0.01441  Biso   1.000  C
  C324     1.0000 0.02186  0.04863  0.48559  Biso   1.000  C
  C325     1.0000 0.47814  0.95137  0.48559  Biso   1.000  C
  C326     1.0000 0.02186  0.45137  0.01441  Biso   1.000  C
  C327     1.0000 0.52186  0.54863  0.48559  Biso   1.000  C
  C328     1.0000 0.97814  0.45137  0.48559  Biso   1.000  C
  C329     1.0000 0.02186  0.95137  0.98559  Biso   1.000  C
  C330     1.0000 0.52186  0.45137  0.98559  Biso   1.000  C
  C331     1.0000 0.47814  0.04863  0.98559  Biso   1.000  C
  C332     1.0000 0.97814  0.95137  0.51441  Biso   1.000  C
  C333     1.0000 0.52186  0.04863  0.51441  Biso   1.000  C
  C334     1.0000 0.97814  0.54863  0.98559  Biso   1.000  C
  C335     1.0000 0.47814  0.45137  0.51441  Biso   1.000  C
  C336     1.0000 0.02186  0.54863  0.51441  Biso   1.000  C
  H465     1.0000 0.96340  0.08150  0.02450  Biso   1.000  H
  H466     1.0000 0.46340  0.58150  0.02450  Biso   1.000  H
  H467     1.0000 0.53660  0.91850  0.02450  Biso   1.000  H
  H468     1.0000 0.03660  0.08150  0.47550  Biso   1.000  H
  H469     1.0000 0.46340  0.91850  0.47550  Biso   1.000  H
  H470     1.0000 0.03660  0.41850  0.02450  Biso   1.000  H
  H471     1.0000 0.53660  0.58150  0.47550  Biso   1.000  H
  H472     1.0000 0.96340  0.41850  0.47550  Biso   1.000  H
  H473     1.0000 0.03660  0.91850  0.97550  Biso   1.000  H
  H474     1.0000 0.53660  0.41850  0.97550  Biso   1.000  H
  H475     1.0000 0.46340  0.08150  0.97550  Biso   1.000  H
  H476     1.0000 0.96340  0.91850  0.52450  Biso   1.000  H
  H477     1.0000 0.53660  0.08150  0.52450  Biso   1.000  H
  H478     1.0000 0.96340  0.58150  0.97550  Biso   1.000  H
  H479     1.0000 0.46340  0.41850  0.52450  Biso   1.000  H
  H480     1.0000 0.03660  0.58150  0.52450  Biso   1.000  H
  C337     1.0000 0.99098  0.97845  0.93570  Biso   1.000  C
  C338     1.0000 0.49098  0.47845  0.93570  Biso   1.000  C
  C339     1.0000 0.50902  0.02155  0.93570  Biso   1.000  C
  C340     1.0000 0.00902  0.97845  0.56430  Biso   1.000  C
  C341     1.0000 0.49098  0.02155  0.56430  Biso   1.000  C
  C342     1.0000 0.00902  0.52155  0.93570  Biso   1.000  C
  C343     1.0000 0.50902  0.47845  0.56430  Biso   1.000  C
  C344     1.0000 0.99098  0.52155  0.56430  Biso   1.000  C
  C345     1.0000 0.00902  0.02155  0.06430  Biso   1.000  C
  C346     1.0000 0.50902  0.52155  0.06430  Biso   1.000  C
  C347     1.0000 0.49098  0.97845  0.06430  Biso   1.000  C
  C348     1.0000 0.99098  0.02155  0.43570  Biso   1.000  C
  C349     1.0000 0.50902  0.97845  0.43570  Biso   1.000  C
  C350     1.0000 0.99098  0.47845  0.06430  Biso   1.000  C
  C351     1.0000 0.49098  0.52155  0.43570  Biso   1.000  C
  C352     1.0000 0.00902  0.47845  0.43570  Biso   1.000  C
  H481     1.0000 0.98500  0.96350  0.89240  Biso   1.000  H
  H482     1.0000 0.48500  0.46350  0.89240  Biso   1.000  H
  H483     1.0000 0.51500  0.03650  0.89240  Biso   1.000  H
  H484     1.0000 0.01500  0.96350  0.60760  Biso   1.000  H
  H485     1.0000 0.48500  0.03650  0.60760  Biso   1.000  H
  H486     1.0000 0.01500  0.53650  0.89240  Biso   1.000  H
  H487     1.0000 0.51500  0.46350  0.60760  Biso   1.000  H
  H488     1.0000 0.98500  0.53650  0.60760  Biso   1.000  H
  H489     1.0000 0.01500  0.03650  0.10760  Biso   1.000  H
  H490     1.0000 0.51500  0.53650  0.10760  Biso   1.000  H
  H491     1.0000 0.48500  0.96350  0.10760  Biso   1.000  H
  H492     1.0000 0.98500  0.03650  0.39240  Biso   1.000  H
  H493     1.0000 0.51500  0.96350  0.39240  Biso   1.000  H
  H494     1.0000 0.98500  0.46350  0.10760  Biso   1.000  H
  H495     1.0000 0.48500  0.53650  0.39240  Biso   1.000  H
  H496     1.0000 0.01500  0.46350  0.39240  Biso   1.000  H
