data_image0
_cell_length_a       36.54
_cell_length_b       23.484
_cell_length_c       21.292
_cell_angle_alpha    90
_cell_angle_beta     118.9
_cell_angle_gamma    90

_symmetry_space_group_name_H-M    "P 1"
_symmetry_int_tables_number       1

loop_
  _symmetry_equiv_pos_as_xyz
  'x, y, z'

loop_
  _atom_site_label
  _atom_site_occupancy
  _atom_site_fract_x
  _atom_site_fract_y
  _atom_site_fract_z
  _atom_site_thermal_displace_type
  _atom_site_B_iso_or_equiv
  _atom_site_type_symbol
  Cu1      1.0000 0.32550  0.29090  0.38260  Biso   1.000  Cu
  Cu2      1.0000 0.82550  0.79090  0.38260  Biso   1.000  Cu
  Cu3      1.0000 0.67450  0.29090  0.11740  Biso   1.000  Cu
  Cu4      1.0000 0.17450  0.79090  0.11740  Biso   1.000  Cu
  Cu5      1.0000 0.67450  0.70910  0.61740  Biso   1.000  Cu
  Cu6      1.0000 0.17450  0.20910  0.61740  Biso   1.000  Cu
  Cu7      1.0000 0.32550  0.70910  0.88260  Biso   1.000  Cu
  Cu8      1.0000 0.82550  0.20910  0.88260  Biso   1.000  Cu
  Cu9      1.0000 0.09240  0.29650  0.08060  Biso   1.000  Cu
  Cu10     1.0000 0.59240  0.79650  0.08060  Biso   1.000  Cu
  Cu11     1.0000 0.90760  0.29650  0.41940  Biso   1.000  Cu
  Cu12     1.0000 0.40760  0.79650  0.41940  Biso   1.000  Cu
  Cu13     1.0000 0.90760  0.70350  0.91940  Biso   1.000  Cu
  Cu14     1.0000 0.40760  0.20350  0.91940  Biso   1.000  Cu
  Cu15     1.0000 0.09240  0.70350  0.58060  Biso   1.000  Cu
  Cu16     1.0000 0.59240  0.20350  0.58060  Biso   1.000  Cu
  Cu17     1.0000 0.21640  0.48620  0.97360  Biso   1.000  Cu
  Cu18     1.0000 0.71640  0.98620  0.97360  Biso   1.000  Cu
  Cu19     1.0000 0.78360  0.48620  0.52640  Biso   1.000  Cu
  Cu20     1.0000 0.28360  0.98620  0.52640  Biso   1.000  Cu
  Cu21     1.0000 0.78360  0.51380  0.02640  Biso   1.000  Cu
  Cu22     1.0000 0.28360  0.01380  0.02640  Biso   1.000  Cu
  Cu23     1.0000 0.21640  0.51380  0.47360  Biso   1.000  Cu
  Cu24     1.0000 0.71640  0.01380  0.47360  Biso   1.000  Cu
  O1       1.0000 0.10910  0.34960  0.20330  Biso   1.000  O
  O2       1.0000 0.60910  0.84960  0.20330  Biso   1.000  O
  O3       1.0000 0.89090  0.34960  0.29670  Biso   1.000  O
  O4       1.0000 0.39090  0.84960  0.29670  Biso   1.000  O
  O5       1.0000 0.89090  0.65040  0.79670  Biso   1.000  O
  O6       1.0000 0.39090  0.15040  0.79670  Biso   1.000  O
  O7       1.0000 0.10910  0.65040  0.70330  Biso   1.000  O
  O8       1.0000 0.60910  0.15040  0.70330  Biso   1.000  O
  O9       1.0000 0.17960  0.50340  0.34260  Biso   1.000  O
  O10      1.0000 0.67960  0.00340  0.34260  Biso   1.000  O
  O11      1.0000 0.82040  0.50340  0.15740  Biso   1.000  O
  O12      1.0000 0.32040  0.00340  0.15740  Biso   1.000  O
  O13      1.0000 0.82040  0.49660  0.65740  Biso   1.000  O
  O14      1.0000 0.32040  0.99660  0.65740  Biso   1.000  O
  O15      1.0000 0.17960  0.49660  0.84260  Biso   1.000  O
  O16      1.0000 0.67960  0.99660  0.84260  Biso   1.000  O
  O17      1.0000 0.29620  0.22440  0.32990  Biso   1.000  O
  O18      1.0000 0.79620  0.72440  0.32990  Biso   1.000  O
  O19      1.0000 0.70380  0.22440  0.17010  Biso   1.000  O
  O20      1.0000 0.20380  0.72440  0.17010  Biso   1.000  O
  O21      1.0000 0.70380  0.77560  0.67010  Biso   1.000  O
  O22      1.0000 0.20380  0.27560  0.67010  Biso   1.000  O
  O23      1.0000 0.29620  0.77560  0.82990  Biso   1.000  O
  O24      1.0000 0.79620  0.27560  0.82990  Biso   1.000  O
  O25      1.0000 0.37870  0.26490  0.38570  Biso   1.000  O
  O26      1.0000 0.87870  0.76490  0.38570  Biso   1.000  O
  O27      1.0000 0.62130  0.26490  0.11430  Biso   1.000  O
  O28      1.0000 0.12130  0.76490  0.11430  Biso   1.000  O
  O29      1.0000 0.62130  0.73510  0.61430  Biso   1.000  O
  O30      1.0000 0.12130  0.23510  0.61430  Biso   1.000  O
  O31      1.0000 0.37870  0.73510  0.88570  Biso   1.000  O
  O32      1.0000 0.87870  0.23510  0.88570  Biso   1.000  O
  O33      1.0000 0.35640  0.35760  0.43640  Biso   1.000  O
  O34      1.0000 0.85640  0.85760  0.43640  Biso   1.000  O
  O35      1.0000 0.64360  0.35760  0.06360  Biso   1.000  O
  O36      1.0000 0.14360  0.85760  0.06360  Biso   1.000  O
  O37      1.0000 0.64360  0.64240  0.56360  Biso   1.000  O
  O38      1.0000 0.14360  0.14240  0.56360  Biso   1.000  O
  O39      1.0000 0.35640  0.64240  0.93640  Biso   1.000  O
  O40      1.0000 0.85640  0.14240  0.93640  Biso   1.000  O
  O41      1.0000 0.34020  0.24990  0.48410  Biso   1.000  O
  O42      1.0000 0.84020  0.74990  0.48410  Biso   1.000  O
  O43      1.0000 0.65980  0.24990  0.01590  Biso   1.000  O
  O44      1.0000 0.15980  0.74990  0.01590  Biso   1.000  O
  O45      1.0000 0.65980  0.75010  0.51590  Biso   1.000  O
  O46      1.0000 0.15980  0.25010  0.51590  Biso   1.000  O
  O47      1.0000 0.34020  0.75010  0.98410  Biso   1.000  O
  O48      1.0000 0.84020  0.25010  0.98410  Biso   1.000  O
  O49      1.0000 0.31090  0.32080  0.25010  Biso   1.000  O
  O50      1.0000 0.81090  0.82080  0.25010  Biso   1.000  O
  O51      1.0000 0.68910  0.32080  0.24990  Biso   1.000  O
  O52      1.0000 0.18910  0.82080  0.24990  Biso   1.000  O
  O53      1.0000 0.68910  0.67920  0.74990  Biso   1.000  O
  O54      1.0000 0.18910  0.17920  0.74990  Biso   1.000  O
  O55      1.0000 0.31090  0.67920  0.75010  Biso   1.000  O
  O56      1.0000 0.81090  0.17920  0.75010  Biso   1.000  O
  O57      1.0000 0.25220  0.47870  0.10570  Biso   1.000  O
  O58      1.0000 0.75220  0.97870  0.10570  Biso   1.000  O
  O59      1.0000 0.74780  0.47870  0.39430  Biso   1.000  O
  O60      1.0000 0.24780  0.97870  0.39430  Biso   1.000  O
  O61      1.0000 0.74780  0.52130  0.89430  Biso   1.000  O
  O62      1.0000 0.24780  0.02130  0.89430  Biso   1.000  O
  O63      1.0000 0.25220  0.52130  0.60570  Biso   1.000  O
  O64      1.0000 0.75220  0.02130  0.60570  Biso   1.000  O
  O65      1.0000 0.11890  0.23520  0.14720  Biso   1.000  O
  O66      1.0000 0.61890  0.73520  0.14720  Biso   1.000  O
  O67      1.0000 0.88110  0.23520  0.35280  Biso   1.000  O
  O68      1.0000 0.38110  0.73520  0.35280  Biso   1.000  O
  O69      1.0000 0.88110  0.76480  0.85280  Biso   1.000  O
  O70      1.0000 0.38110  0.26480  0.85280  Biso   1.000  O
  O71      1.0000 0.11890  0.76480  0.64720  Biso   1.000  O
  O72      1.0000 0.61890  0.26480  0.64720  Biso   1.000  O
  O73      1.0000 0.03990  0.28360  0.08110  Biso   1.000  O
  O74      1.0000 0.53990  0.78360  0.08110  Biso   1.000  O
  O75      1.0000 0.96010  0.28360  0.41890  Biso   1.000  O
  O76      1.0000 0.46010  0.78360  0.41890  Biso   1.000  O
  O77      1.0000 0.96010  0.71640  0.91890  Biso   1.000  O
  O78      1.0000 0.46010  0.21640  0.91890  Biso   1.000  O
  O79      1.0000 0.03990  0.71640  0.58110  Biso   1.000  O
  O80      1.0000 0.53990  0.21640  0.58110  Biso   1.000  O
  O81      1.0000 0.08150  0.24260  0.98890  Biso   1.000  O
  O82      1.0000 0.58150  0.74260  0.98890  Biso   1.000  O
  O83      1.0000 0.91850  0.24260  0.51110  Biso   1.000  O
  O84      1.0000 0.41850  0.74260  0.51110  Biso   1.000  O
  O85      1.0000 0.91850  0.75740  0.01110  Biso   1.000  O
  O86      1.0000 0.41850  0.25740  0.01110  Biso   1.000  O
  O87      1.0000 0.08150  0.75740  0.48890  Biso   1.000  O
  O88      1.0000 0.58150  0.25740  0.48890  Biso   1.000  O
  O89      1.0000 0.06540  0.35960  0.01520  Biso   1.000  O
  O90      1.0000 0.56540  0.85960  0.01520  Biso   1.000  O
  O91      1.0000 0.93460  0.35960  0.48480  Biso   1.000  O
  O92      1.0000 0.43460  0.85960  0.48480  Biso   1.000  O
  O93      1.0000 0.93460  0.64040  0.98480  Biso   1.000  O
  O94      1.0000 0.43460  0.14040  0.98480  Biso   1.000  O
  O95      1.0000 0.06540  0.64040  0.51520  Biso   1.000  O
  O96      1.0000 0.56540  0.14040  0.51520  Biso   1.000  O
  O97      1.0000 0.24120  0.56090  0.99360  Biso   1.000  O
  O98      1.0000 0.74120  0.06090  0.99360  Biso   1.000  O
  O99      1.0000 0.75880  0.56090  0.50640  Biso   1.000  O
  O100     1.0000 0.25880  0.06090  0.50640  Biso   1.000  O
  O101     1.0000 0.75880  0.43910  0.00640  Biso   1.000  O
  O102     1.0000 0.25880  0.93910  0.00640  Biso   1.000  O
  O103     1.0000 0.24120  0.43910  0.49360  Biso   1.000  O
  O104     1.0000 0.74120  0.93910  0.49360  Biso   1.000  O
  O105     1.0000 0.16910  0.51280  0.98340  Biso   1.000  O
  O106     1.0000 0.66910  0.01280  0.98340  Biso   1.000  O
  O107     1.0000 0.83090  0.51280  0.51660  Biso   1.000  O
  O108     1.0000 0.33090  0.01280  0.51660  Biso   1.000  O
  O109     1.0000 0.83090  0.48720  0.01660  Biso   1.000  O
  O110     1.0000 0.33090  0.98720  0.01660  Biso   1.000  O
  O111     1.0000 0.16910  0.48720  0.48340  Biso   1.000  O
  O112     1.0000 0.66910  0.98720  0.48340  Biso   1.000  O
  O113     1.0000 0.19390  0.40950  0.95900  Biso   1.000  O
  O114     1.0000 0.69390  0.90950  0.95900  Biso   1.000  O
  O115     1.0000 0.80610  0.40950  0.54100  Biso   1.000  O
  O116     1.0000 0.30610  0.90950  0.54100  Biso   1.000  O
  O117     1.0000 0.80610  0.59050  0.04100  Biso   1.000  O
  O118     1.0000 0.30610  0.09050  0.04100  Biso   1.000  O
  O119     1.0000 0.19390  0.59050  0.45900  Biso   1.000  O
  O120     1.0000 0.69390  0.09050  0.45900  Biso   1.000  O
  O121     1.0000 0.26390  0.46060  0.96540  Biso   1.000  O
  O122     1.0000 0.76390  0.96060  0.96540  Biso   1.000  O
  O123     1.0000 0.73610  0.46060  0.53460  Biso   1.000  O
  O124     1.0000 0.23610  0.96060  0.53460  Biso   1.000  O
  O125     1.0000 0.73610  0.53940  0.03460  Biso   1.000  O
  O126     1.0000 0.23610  0.03940  0.03460  Biso   1.000  O
  O127     1.0000 0.26390  0.53940  0.46540  Biso   1.000  O
  O128     1.0000 0.76390  0.03940  0.46540  Biso   1.000  O
  N1       1.0000 0.11760  0.39820  0.23390  Biso   1.000  N
  N2       1.0000 0.61760  0.89820  0.23390  Biso   1.000  N
  N3       1.0000 0.88240  0.39820  0.26610  Biso   1.000  N
  N4       1.0000 0.38240  0.89820  0.26610  Biso   1.000  N
  N5       1.0000 0.88240  0.60180  0.76610  Biso   1.000  N
  N6       1.0000 0.38240  0.10180  0.76610  Biso   1.000  N
  N7       1.0000 0.11760  0.60180  0.73390  Biso   1.000  N
  N8       1.0000 0.61760  0.10180  0.73390  Biso   1.000  N
  N9       1.0000 0.15100  0.47040  0.30020  Biso   1.000  N
  N10      1.0000 0.65100  0.97040  0.30020  Biso   1.000  N
  N11      1.0000 0.84900  0.47040  0.19980  Biso   1.000  N
  N12      1.0000 0.34900  0.97040  0.19980  Biso   1.000  N
  N13      1.0000 0.84900  0.52960  0.69980  Biso   1.000  N
  N14      1.0000 0.34900  0.02960  0.69980  Biso   1.000  N
  N15      1.0000 0.15100  0.52960  0.80020  Biso   1.000  N
  N16      1.0000 0.65100  0.02960  0.80020  Biso   1.000  N
  N17      1.0000 0.27040  0.33130  0.35080  Biso   1.000  N
  N18      1.0000 0.77040  0.83130  0.35080  Biso   1.000  N
  N19      1.0000 0.72960  0.33130  0.14920  Biso   1.000  N
  N20      1.0000 0.22960  0.83130  0.14920  Biso   1.000  N
  N21      1.0000 0.72960  0.66870  0.64920  Biso   1.000  N
  N22      1.0000 0.22960  0.16870  0.64920  Biso   1.000  N
  N23      1.0000 0.27040  0.66870  0.85080  Biso   1.000  N
  N24      1.0000 0.77040  0.16870  0.85080  Biso   1.000  N
  N25      1.0000 0.30700  0.36870  0.21960  Biso   1.000  N
  N26      1.0000 0.80700  0.86870  0.21960  Biso   1.000  N
  N27      1.0000 0.69300  0.36870  0.28040  Biso   1.000  N
  N28      1.0000 0.19300  0.86870  0.28040  Biso   1.000  N
  N29      1.0000 0.69300  0.63130  0.78040  Biso   1.000  N
  N30      1.0000 0.19300  0.13130  0.78040  Biso   1.000  N
  N31      1.0000 0.30700  0.63130  0.71960  Biso   1.000  N
  N32      1.0000 0.80700  0.13130  0.71960  Biso   1.000  N
  N33      1.0000 0.27890  0.44460  0.15190  Biso   1.000  N
  N34      1.0000 0.77890  0.94460  0.15190  Biso   1.000  N
  N35      1.0000 0.72110  0.44460  0.34810  Biso   1.000  N
  N36      1.0000 0.22110  0.94460  0.34810  Biso   1.000  N
  N37      1.0000 0.72110  0.55540  0.84810  Biso   1.000  N
  N38      1.0000 0.22110  0.05540  0.84810  Biso   1.000  N
  N39      1.0000 0.27890  0.55540  0.65190  Biso   1.000  N
  N40      1.0000 0.77890  0.05540  0.65190  Biso   1.000  N
  N41      1.0000 0.14920  0.32420  0.10380  Biso   1.000  N
  N42      1.0000 0.64920  0.82420  0.10380  Biso   1.000  N
  N43      1.0000 0.85080  0.32420  0.39620  Biso   1.000  N
  N44      1.0000 0.35080  0.82420  0.39620  Biso   1.000  N
  N45      1.0000 0.85080  0.67580  0.89620  Biso   1.000  N
  N46      1.0000 0.35080  0.17580  0.89620  Biso   1.000  N
  N47      1.0000 0.14920  0.67580  0.60380  Biso   1.000  N
  N48      1.0000 0.64920  0.17580  0.60380  Biso   1.000  N
  C1       1.0000 0.15500  0.41800  0.28050  Biso   1.000  C
  C2       1.0000 0.65500  0.91800  0.28050  Biso   1.000  C
  C3       1.0000 0.84500  0.41800  0.21950  Biso   1.000  C
  C4       1.0000 0.34500  0.91800  0.21950  Biso   1.000  C
  C5       1.0000 0.84500  0.58200  0.71950  Biso   1.000  C
  C6       1.0000 0.34500  0.08200  0.71950  Biso   1.000  C
  C7       1.0000 0.15500  0.58200  0.78050  Biso   1.000  C
  C8       1.0000 0.65500  0.08200  0.78050  Biso   1.000  C
  C9       1.0000 0.08280  0.43770  0.22510  Biso   1.000  C
  C10      1.0000 0.58280  0.93770  0.22510  Biso   1.000  C
  C11      1.0000 0.91720  0.43770  0.27490  Biso   1.000  C
  C12      1.0000 0.41720  0.93770  0.27490  Biso   1.000  C
  C13      1.0000 0.91720  0.56230  0.77490  Biso   1.000  C
  C14      1.0000 0.41720  0.06230  0.77490  Biso   1.000  C
  C15      1.0000 0.08280  0.56230  0.72510  Biso   1.000  C
  C16      1.0000 0.58280  0.06230  0.72510  Biso   1.000  C
  C17      1.0000 0.10700  0.49140  0.25500  Biso   1.000  C
  C18      1.0000 0.60700  0.99140  0.25500  Biso   1.000  C
  C19      1.0000 0.89300  0.49140  0.24500  Biso   1.000  C
  C20      1.0000 0.39300  0.99140  0.24500  Biso   1.000  C
  C21      1.0000 0.89300  0.50860  0.74500  Biso   1.000  C
  C22      1.0000 0.39300  0.00860  0.74500  Biso   1.000  C
  C23      1.0000 0.10700  0.50860  0.75500  Biso   1.000  C
  C24      1.0000 0.60700  0.00860  0.75500  Biso   1.000  C
  C25      1.0000 0.06810  0.41100  0.27900  Biso   1.000  C
  C26      1.0000 0.56810  0.91100  0.27900  Biso   1.000  C
  C27      1.0000 0.93190  0.41100  0.22100  Biso   1.000  C
  C28      1.0000 0.43190  0.91100  0.22100  Biso   1.000  C
  C29      1.0000 0.93190  0.58900  0.72100  Biso   1.000  C
  C30      1.0000 0.43190  0.08900  0.72100  Biso   1.000  C
  C31      1.0000 0.06810  0.58900  0.77900  Biso   1.000  C
  C32      1.0000 0.56810  0.08900  0.77900  Biso   1.000  C
  C33      1.0000 0.04800  0.43640  0.14790  Biso   1.000  C
  C34      1.0000 0.54800  0.93640  0.14790  Biso   1.000  C
  C35      1.0000 0.95200  0.43640  0.35210  Biso   1.000  C
  C36      1.0000 0.45200  0.93640  0.35210  Biso   1.000  C
  C37      1.0000 0.95200  0.56360  0.85210  Biso   1.000  C
  C38      1.0000 0.45200  0.06360  0.85210  Biso   1.000  C
  C39      1.0000 0.04800  0.56360  0.64790  Biso   1.000  C
  C40      1.0000 0.54800  0.06360  0.64790  Biso   1.000  C
  C41      1.0000 0.09410  0.53090  0.29790  Biso   1.000  C
  C42      1.0000 0.59410  0.03090  0.29790  Biso   1.000  C
  C43      1.0000 0.90590  0.53090  0.20210  Biso   1.000  C
  C44      1.0000 0.40590  0.03090  0.20210  Biso   1.000  C
  C45      1.0000 0.90590  0.46910  0.70210  Biso   1.000  C
  C46      1.0000 0.40590  0.96910  0.70210  Biso   1.000  C
  C47      1.0000 0.09410  0.46910  0.79790  Biso   1.000  C
  C48      1.0000 0.59410  0.96910  0.79790  Biso   1.000  C
  C49      1.0000 0.10740  0.52810  0.19200  Biso   1.000  C
  C50      1.0000 0.60740  0.02810  0.19200  Biso   1.000  C
  C51      1.0000 0.89260  0.52810  0.30800  Biso   1.000  C
  C52      1.0000 0.39260  0.02810  0.30800  Biso   1.000  C
  C53      1.0000 0.89260  0.47190  0.80800  Biso   1.000  C
  C54      1.0000 0.39260  0.97190  0.80800  Biso   1.000  C
  C55      1.0000 0.10740  0.47190  0.69200  Biso   1.000  C
  C56      1.0000 0.60740  0.97190  0.69200  Biso   1.000  C
  C57      1.0000 0.19430  0.38930  0.30480  Biso   1.000  C
  C58      1.0000 0.69430  0.88930  0.30480  Biso   1.000  C
  C59      1.0000 0.80570  0.38930  0.19520  Biso   1.000  C
  C60      1.0000 0.30570  0.88930  0.19520  Biso   1.000  C
  C61      1.0000 0.80570  0.61070  0.69520  Biso   1.000  C
  C62      1.0000 0.30570  0.11070  0.69520  Biso   1.000  C
  C63      1.0000 0.19430  0.61070  0.80480  Biso   1.000  C
  C64      1.0000 0.69430  0.11070  0.80480  Biso   1.000  C
  C65      1.0000 0.23190  0.41840  0.33130  Biso   1.000  C
  C66      1.0000 0.73190  0.91840  0.33130  Biso   1.000  C
  C67      1.0000 0.76810  0.41840  0.16870  Biso   1.000  C
  C68      1.0000 0.26810  0.91840  0.16870  Biso   1.000  C
  C69      1.0000 0.76810  0.58160  0.66870  Biso   1.000  C
  C70      1.0000 0.26810  0.08160  0.66870  Biso   1.000  C
  C71      1.0000 0.23190  0.58160  0.83130  Biso   1.000  C
  C72      1.0000 0.73190  0.08160  0.83130  Biso   1.000  C
  C73      1.0000 0.26920  0.38820  0.35350  Biso   1.000  C
  C74      1.0000 0.76920  0.88820  0.35350  Biso   1.000  C
  C75      1.0000 0.73080  0.38820  0.14650  Biso   1.000  C
  C76      1.0000 0.23080  0.88820  0.14650  Biso   1.000  C
  C77      1.0000 0.73080  0.61180  0.64650  Biso   1.000  C
  C78      1.0000 0.23080  0.11180  0.64650  Biso   1.000  C
  C79      1.0000 0.26920  0.61180  0.85350  Biso   1.000  C
  C80      1.0000 0.76920  0.11180  0.85350  Biso   1.000  C
  C81      1.0000 0.23440  0.30340  0.32370  Biso   1.000  C
  C82      1.0000 0.73440  0.80340  0.32370  Biso   1.000  C
  C83      1.0000 0.76560  0.30340  0.17630  Biso   1.000  C
  C84      1.0000 0.26560  0.80340  0.17630  Biso   1.000  C
  C85      1.0000 0.76560  0.69660  0.67630  Biso   1.000  C
  C86      1.0000 0.26560  0.19660  0.67630  Biso   1.000  C
  C87      1.0000 0.23440  0.69660  0.82370  Biso   1.000  C
  C88      1.0000 0.73440  0.19660  0.82370  Biso   1.000  C
  C89      1.0000 0.19600  0.32950  0.29960  Biso   1.000  C
  C90      1.0000 0.69600  0.82950  0.29960  Biso   1.000  C
  C91      1.0000 0.80400  0.32950  0.20040  Biso   1.000  C
  C92      1.0000 0.30400  0.82950  0.20040  Biso   1.000  C
  C93      1.0000 0.80400  0.67050  0.70040  Biso   1.000  C
  C94      1.0000 0.30400  0.17050  0.70040  Biso   1.000  C
  C95      1.0000 0.19600  0.67050  0.79960  Biso   1.000  C
  C96      1.0000 0.69600  0.17050  0.79960  Biso   1.000  C
  C97      1.0000 0.31160  0.18840  0.30220  Biso   1.000  C
  C98      1.0000 0.81160  0.68840  0.30220  Biso   1.000  C
  C99      1.0000 0.68840  0.18840  0.19780  Biso   1.000  C
  C100     1.0000 0.18840  0.68840  0.19780  Biso   1.000  C
  C101     1.0000 0.68840  0.81160  0.69780  Biso   1.000  C
  C102     1.0000 0.18840  0.31160  0.69780  Biso   1.000  C
  C103     1.0000 0.31160  0.81160  0.80220  Biso   1.000  C
  C104     1.0000 0.81160  0.31160  0.80220  Biso   1.000  C
  C105     1.0000 0.34990  0.18530  0.30800  Biso   1.000  C
  C106     1.0000 0.84990  0.68530  0.30800  Biso   1.000  C
  C107     1.0000 0.65010  0.18530  0.19200  Biso   1.000  C
  C108     1.0000 0.15010  0.68530  0.19200  Biso   1.000  C
  C109     1.0000 0.65010  0.81470  0.69200  Biso   1.000  C
  C110     1.0000 0.15010  0.31470  0.69200  Biso   1.000  C
  C111     1.0000 0.34990  0.81470  0.80800  Biso   1.000  C
  C112     1.0000 0.84990  0.31470  0.80800  Biso   1.000  C
  C113     1.0000 0.37900  0.22360  0.34910  Biso   1.000  C
  C114     1.0000 0.87900  0.72360  0.34910  Biso   1.000  C
  C115     1.0000 0.62100  0.22360  0.15090  Biso   1.000  C
  C116     1.0000 0.12100  0.72360  0.15090  Biso   1.000  C
  C117     1.0000 0.62100  0.77640  0.65090  Biso   1.000  C
  C118     1.0000 0.12100  0.27640  0.65090  Biso   1.000  C
  C119     1.0000 0.37900  0.77640  0.84910  Biso   1.000  C
  C120     1.0000 0.87900  0.27640  0.84910  Biso   1.000  C
  C121     1.0000 0.27750  0.14310  0.26080  Biso   1.000  C
  C122     1.0000 0.77750  0.64310  0.26080  Biso   1.000  C
  C123     1.0000 0.72250  0.14310  0.23920  Biso   1.000  C
  C124     1.0000 0.22250  0.64310  0.23920  Biso   1.000  C
  C125     1.0000 0.72250  0.85690  0.73920  Biso   1.000  C
  C126     1.0000 0.22250  0.35690  0.73920  Biso   1.000  C
  C127     1.0000 0.27750  0.85690  0.76080  Biso   1.000  C
  C128     1.0000 0.77750  0.35690  0.76080  Biso   1.000  C
  C129     1.0000 0.42140  0.21450  0.35370  Biso   1.000  C
  C130     1.0000 0.92140  0.71450  0.35370  Biso   1.000  C
  C131     1.0000 0.57860  0.21450  0.14630  Biso   1.000  C
  C132     1.0000 0.07860  0.71450  0.14630  Biso   1.000  C
  C133     1.0000 0.57860  0.78550  0.64630  Biso   1.000  C
  C134     1.0000 0.07860  0.28550  0.64630  Biso   1.000  C
  C135     1.0000 0.42140  0.78550  0.85370  Biso   1.000  C
  C136     1.0000 0.92140  0.28550  0.85370  Biso   1.000  C
  C137     1.0000 0.37670  0.36190  0.50470  Biso   1.000  C
  C138     1.0000 0.87670  0.86190  0.50470  Biso   1.000  C
  C139     1.0000 0.62330  0.36190  0.99530  Biso   1.000  C
  C140     1.0000 0.12330  0.86190  0.99530  Biso   1.000  C
  C141     1.0000 0.62330  0.63810  0.49530  Biso   1.000  C
  C142     1.0000 0.12330  0.13810  0.49530  Biso   1.000  C
  C143     1.0000 0.37670  0.63810  0.00470  Biso   1.000  C
  C144     1.0000 0.87670  0.13810  0.00470  Biso   1.000  C
  C145     1.0000 0.38160  0.32550  0.55700  Biso   1.000  C
  C146     1.0000 0.88160  0.82550  0.55700  Biso   1.000  C
  C147     1.0000 0.61840  0.32550  0.94300  Biso   1.000  C
  C148     1.0000 0.11840  0.82550  0.94300  Biso   1.000  C
  C149     1.0000 0.61840  0.67450  0.44300  Biso   1.000  C
  C150     1.0000 0.11840  0.17450  0.44300  Biso   1.000  C
  C151     1.0000 0.38160  0.67450  0.05700  Biso   1.000  C
  C152     1.0000 0.88160  0.17450  0.05700  Biso   1.000  C
  C153     1.0000 0.36440  0.27400  0.54260  Biso   1.000  C
  C154     1.0000 0.86440  0.77400  0.54260  Biso   1.000  C
  C155     1.0000 0.63560  0.27400  0.95740  Biso   1.000  C
  C156     1.0000 0.13560  0.77400  0.95740  Biso   1.000  C
  C157     1.0000 0.63560  0.72600  0.45740  Biso   1.000  C
  C158     1.0000 0.13560  0.22600  0.45740  Biso   1.000  C
  C159     1.0000 0.36440  0.72600  0.04260  Biso   1.000  C
  C160     1.0000 0.86440  0.22600  0.04260  Biso   1.000  C
  C161     1.0000 0.39630  0.42200  0.52790  Biso   1.000  C
  C162     1.0000 0.89630  0.92200  0.52790  Biso   1.000  C
  C163     1.0000 0.60370  0.42200  0.97210  Biso   1.000  C
  C164     1.0000 0.10370  0.92200  0.97210  Biso   1.000  C
  C165     1.0000 0.60370  0.57800  0.47210  Biso   1.000  C
  C166     1.0000 0.10370  0.07800  0.47210  Biso   1.000  C
  C167     1.0000 0.39630  0.57800  0.02790  Biso   1.000  C
  C168     1.0000 0.89630  0.07800  0.02790  Biso   1.000  C
  C169     1.0000 0.37280  0.23830  0.60650  Biso   1.000  C
  C170     1.0000 0.87280  0.73830  0.60650  Biso   1.000  C
  C171     1.0000 0.62720  0.23830  0.89350  Biso   1.000  C
  C172     1.0000 0.12720  0.73830  0.89350  Biso   1.000  C
  C173     1.0000 0.62720  0.76170  0.39350  Biso   1.000  C
  C174     1.0000 0.12720  0.26170  0.39350  Biso   1.000  C
  C175     1.0000 0.37280  0.76170  0.10650  Biso   1.000  C
  C176     1.0000 0.87280  0.26170  0.10650  Biso   1.000  C
  C177     1.0000 0.27100  0.39270  0.17160  Biso   1.000  C
  C178     1.0000 0.77100  0.89270  0.17160  Biso   1.000  C
  C179     1.0000 0.72900  0.39270  0.32840  Biso   1.000  C
  C180     1.0000 0.22900  0.89270  0.32840  Biso   1.000  C
  C181     1.0000 0.72900  0.60730  0.82840  Biso   1.000  C
  C182     1.0000 0.22900  0.10730  0.82840  Biso   1.000  C
  C183     1.0000 0.27100  0.60730  0.67160  Biso   1.000  C
  C184     1.0000 0.77100  0.10730  0.67160  Biso   1.000  C
  C185     1.0000 0.34260  0.40150  0.22440  Biso   1.000  C
  C186     1.0000 0.84260  0.90150  0.22440  Biso   1.000  C
  C187     1.0000 0.65740  0.40150  0.27560  Biso   1.000  C
  C188     1.0000 0.15740  0.90150  0.27560  Biso   1.000  C
  C189     1.0000 0.65740  0.59850  0.77560  Biso   1.000  C
  C190     1.0000 0.15740  0.09850  0.77560  Biso   1.000  C
  C191     1.0000 0.34260  0.59850  0.72440  Biso   1.000  C
  C192     1.0000 0.84260  0.09850  0.72440  Biso   1.000  C
  C193     1.0000 0.32170  0.46150  0.19750  Biso   1.000  C
  C194     1.0000 0.82170  0.96150  0.19750  Biso   1.000  C
  C195     1.0000 0.67830  0.46150  0.30250  Biso   1.000  C
  C196     1.0000 0.17830  0.96150  0.30250  Biso   1.000  C
  C197     1.0000 0.67830  0.53850  0.80250  Biso   1.000  C
  C198     1.0000 0.17830  0.03850  0.80250  Biso   1.000  C
  C199     1.0000 0.32170  0.53850  0.69750  Biso   1.000  C
  C200     1.0000 0.82170  0.03850  0.69750  Biso   1.000  C
  C201     1.0000 0.35470  0.37050  0.17260  Biso   1.000  C
  C202     1.0000 0.85470  0.87050  0.17260  Biso   1.000  C
  C203     1.0000 0.64530  0.37050  0.32740  Biso   1.000  C
  C204     1.0000 0.14530  0.87050  0.32740  Biso   1.000  C
  C205     1.0000 0.64530  0.62950  0.82740  Biso   1.000  C
  C206     1.0000 0.14530  0.12950  0.82740  Biso   1.000  C
  C207     1.0000 0.35470  0.62950  0.67260  Biso   1.000  C
  C208     1.0000 0.85470  0.12950  0.67260  Biso   1.000  C
  C209     1.0000 0.38010  0.39860  0.30310  Biso   1.000  C
  C210     1.0000 0.88010  0.89860  0.30310  Biso   1.000  C
  C211     1.0000 0.61990  0.39860  0.19690  Biso   1.000  C
  C212     1.0000 0.11990  0.89860  0.19690  Biso   1.000  C
  C213     1.0000 0.61990  0.60140  0.69690  Biso   1.000  C
  C214     1.0000 0.11990  0.10140  0.69690  Biso   1.000  C
  C215     1.0000 0.38010  0.60140  0.80310  Biso   1.000  C
  C216     1.0000 0.88010  0.10140  0.80310  Biso   1.000  C
  C217     1.0000 0.32240  0.49730  0.25780  Biso   1.000  C
  C218     1.0000 0.82240  0.99730  0.25780  Biso   1.000  C
  C219     1.0000 0.67760  0.49730  0.24220  Biso   1.000  C
  C220     1.0000 0.17760  0.99730  0.24220  Biso   1.000  C
  C221     1.0000 0.67760  0.50270  0.74220  Biso   1.000  C
  C222     1.0000 0.17760  0.00270  0.74220  Biso   1.000  C
  C223     1.0000 0.32240  0.50270  0.75780  Biso   1.000  C
  C224     1.0000 0.82240  0.00270  0.75780  Biso   1.000  C
  C225     1.0000 0.33860  0.49520  0.15610  Biso   1.000  C
  C226     1.0000 0.83860  0.99520  0.15610  Biso   1.000  C
  C227     1.0000 0.66140  0.49520  0.34390  Biso   1.000  C
  C228     1.0000 0.16140  0.99520  0.34390  Biso   1.000  C
  C229     1.0000 0.66140  0.50480  0.84390  Biso   1.000  C
  C230     1.0000 0.16140  0.00480  0.84390  Biso   1.000  C
  C231     1.0000 0.33860  0.50480  0.65610  Biso   1.000  C
  C232     1.0000 0.83860  0.00480  0.65610  Biso   1.000  C
  C233     1.0000 0.22870  0.36960  0.14590  Biso   1.000  C
  C234     1.0000 0.72870  0.86960  0.14590  Biso   1.000  C
  C235     1.0000 0.77130  0.36960  0.35410  Biso   1.000  C
  C236     1.0000 0.27130  0.86960  0.35410  Biso   1.000  C
  C237     1.0000 0.77130  0.63040  0.85410  Biso   1.000  C
  C238     1.0000 0.27130  0.13040  0.85410  Biso   1.000  C
  C239     1.0000 0.22870  0.63040  0.64590  Biso   1.000  C
  C240     1.0000 0.72870  0.13040  0.64590  Biso   1.000  C
  C241     1.0000 0.19440  0.40460  0.12330  Biso   1.000  C
  C242     1.0000 0.69440  0.90460  0.12330  Biso   1.000  C
  C243     1.0000 0.80560  0.40460  0.37670  Biso   1.000  C
  C244     1.0000 0.30560  0.90460  0.37670  Biso   1.000  C
  C245     1.0000 0.80560  0.59540  0.87670  Biso   1.000  C
  C246     1.0000 0.30560  0.09540  0.87670  Biso   1.000  C
  C247     1.0000 0.19440  0.59540  0.62330  Biso   1.000  C
  C248     1.0000 0.69440  0.09540  0.62330  Biso   1.000  C
  C249     1.0000 0.15460  0.38290  0.09980  Biso   1.000  C
  C250     1.0000 0.65460  0.88290  0.09980  Biso   1.000  C
  C251     1.0000 0.84540  0.38290  0.40020  Biso   1.000  C
  C252     1.0000 0.34540  0.88290  0.40020  Biso   1.000  C
  C253     1.0000 0.84540  0.61710  0.90020  Biso   1.000  C
  C254     1.0000 0.34540  0.11710  0.90020  Biso   1.000  C
  C255     1.0000 0.15460  0.61710  0.59980  Biso   1.000  C
  C256     1.0000 0.65460  0.11710  0.59980  Biso   1.000  C
  C257     1.0000 0.18400  0.29110  0.12670  Biso   1.000  C
  C258     1.0000 0.68400  0.79110  0.12670  Biso   1.000  C
  C259     1.0000 0.81600  0.29110  0.37330  Biso   1.000  C
  C260     1.0000 0.31600  0.79110  0.37330  Biso   1.000  C
  C261     1.0000 0.81600  0.70890  0.87330  Biso   1.000  C
  C262     1.0000 0.31600  0.20890  0.87330  Biso   1.000  C
  C263     1.0000 0.18400  0.70890  0.62670  Biso   1.000  C
  C264     1.0000 0.68400  0.20890  0.62670  Biso   1.000  C
  C265     1.0000 0.22290  0.31150  0.14980  Biso   1.000  C
  C266     1.0000 0.72290  0.81150  0.14980  Biso   1.000  C
  C267     1.0000 0.77710  0.31150  0.35020  Biso   1.000  C
  C268     1.0000 0.27710  0.81150  0.35020  Biso   1.000  C
  C269     1.0000 0.77710  0.68850  0.85020  Biso   1.000  C
  C270     1.0000 0.27710  0.18850  0.85020  Biso   1.000  C
  C271     1.0000 0.22290  0.68850  0.64980  Biso   1.000  C
  C272     1.0000 0.72290  0.18850  0.64980  Biso   1.000  C
  C273     1.0000 0.10120  0.20200  0.16900  Biso   1.000  C
  C274     1.0000 0.60120  0.70200  0.16900  Biso   1.000  C
  C275     1.0000 0.89880  0.20200  0.33100  Biso   1.000  C
  C276     1.0000 0.39880  0.70200  0.33100  Biso   1.000  C
  C277     1.0000 0.89880  0.79800  0.83100  Biso   1.000  C
  C278     1.0000 0.39880  0.29800  0.83100  Biso   1.000  C
  C279     1.0000 0.10120  0.79800  0.66900  Biso   1.000  C
  C280     1.0000 0.60120  0.29800  0.66900  Biso   1.000  C
  C281     1.0000 0.06090  0.20350  0.15950  Biso   1.000  C
  C282     1.0000 0.56090  0.70350  0.15950  Biso   1.000  C
  C283     1.0000 0.93910  0.20350  0.34050  Biso   1.000  C
  C284     1.0000 0.43910  0.70350  0.34050  Biso   1.000  C
  C285     1.0000 0.93910  0.79650  0.84050  Biso   1.000  C
  C286     1.0000 0.43910  0.29650  0.84050  Biso   1.000  C
  C287     1.0000 0.06090  0.79650  0.65950  Biso   1.000  C
  C288     1.0000 0.56090  0.29650  0.65950  Biso   1.000  C
  C289     1.0000 0.03500  0.24440  0.11670  Biso   1.000  C
  C290     1.0000 0.53500  0.74440  0.11670  Biso   1.000  C
  C291     1.0000 0.96500  0.24440  0.38330  Biso   1.000  C
  C292     1.0000 0.46500  0.74440  0.38330  Biso   1.000  C
  C293     1.0000 0.96500  0.75560  0.88330  Biso   1.000  C
  C294     1.0000 0.46500  0.25560  0.88330  Biso   1.000  C
  C295     1.0000 0.03500  0.75560  0.61670  Biso   1.000  C
  C296     1.0000 0.53500  0.25560  0.61670  Biso   1.000  C
  C297     1.0000 0.12990  0.15490  0.21550  Biso   1.000  C
  C298     1.0000 0.62990  0.65490  0.21550  Biso   1.000  C
  C299     1.0000 0.87010  0.15490  0.28450  Biso   1.000  C
  C300     1.0000 0.37010  0.65490  0.28450  Biso   1.000  C
  C301     1.0000 0.87010  0.84510  0.78450  Biso   1.000  C
  C302     1.0000 0.37010  0.34510  0.78450  Biso   1.000  C
  C303     1.0000 0.12990  0.84510  0.71550  Biso   1.000  C
  C304     1.0000 0.62990  0.34510  0.71550  Biso   1.000  C
  C305     1.0000 0.98870  0.24840  0.10940  Biso   1.000  C
  C306     1.0000 0.48870  0.74840  0.10940  Biso   1.000  C
  C307     1.0000 0.01130  0.24840  0.39060  Biso   1.000  C
  C308     1.0000 0.51130  0.74840  0.39060  Biso   1.000  C
  C309     1.0000 0.01130  0.75160  0.89060  Biso   1.000  C
  C310     1.0000 0.51130  0.25160  0.89060  Biso   1.000  C
  C311     1.0000 0.98870  0.75160  0.60940  Biso   1.000  C
  C312     1.0000 0.48870  0.25160  0.60940  Biso   1.000  C
  C313     1.0000 0.06020  0.26300  0.92300  Biso   1.000  C
  C314     1.0000 0.56020  0.76300  0.92300  Biso   1.000  C
  C315     1.0000 0.93980  0.26300  0.57700  Biso   1.000  C
  C316     1.0000 0.43980  0.76300  0.57700  Biso   1.000  C
  C317     1.0000 0.93980  0.73700  0.07700  Biso   1.000  C
  C318     1.0000 0.43980  0.23700  0.07700  Biso   1.000  C
  C319     1.0000 0.06020  0.73700  0.42300  Biso   1.000  C
  C320     1.0000 0.56020  0.23700  0.42300  Biso   1.000  C
  C321     1.0000 0.04500  0.31420  0.90330  Biso   1.000  C
  C322     1.0000 0.54500  0.81420  0.90330  Biso   1.000  C
  C323     1.0000 0.95500  0.31420  0.59670  Biso   1.000  C
  C324     1.0000 0.45500  0.81420  0.59670  Biso   1.000  C
  C325     1.0000 0.95500  0.68580  0.09670  Biso   1.000  C
  C326     1.0000 0.45500  0.18580  0.09670  Biso   1.000  C
  C327     1.0000 0.04500  0.68580  0.40330  Biso   1.000  C
  C328     1.0000 0.54500  0.18580  0.40330  Biso   1.000  C
  C329     1.0000 0.04760  0.35370  0.94510  Biso   1.000  C
  C330     1.0000 0.54760  0.85370  0.94510  Biso   1.000  C
  C331     1.0000 0.95240  0.35370  0.55490  Biso   1.000  C
  C332     1.0000 0.45240  0.85370  0.55490  Biso   1.000  C
  C333     1.0000 0.95240  0.64630  0.05490  Biso   1.000  C
  C334     1.0000 0.45240  0.14630  0.05490  Biso   1.000  C
  C335     1.0000 0.04760  0.64630  0.44510  Biso   1.000  C
  C336     1.0000 0.54760  0.14630  0.44510  Biso   1.000  C
  C337     1.0000 0.05550  0.22040  0.87120  Biso   1.000  C
  C338     1.0000 0.55550  0.72040  0.87120  Biso   1.000  C
  C339     1.0000 0.94450  0.22040  0.62880  Biso   1.000  C
  C340     1.0000 0.44450  0.72040  0.62880  Biso   1.000  C
  C341     1.0000 0.94450  0.77960  0.12880  Biso   1.000  C
  C342     1.0000 0.44450  0.27960  0.12880  Biso   1.000  C
  C343     1.0000 0.05550  0.77960  0.37120  Biso   1.000  C
  C344     1.0000 0.55550  0.27960  0.37120  Biso   1.000  C
  C345     1.0000 0.02800  0.41170  0.91220  Biso   1.000  C
  C346     1.0000 0.52800  0.91170  0.91220  Biso   1.000  C
  C347     1.0000 0.97200  0.41170  0.58780  Biso   1.000  C
  C348     1.0000 0.47200  0.91170  0.58780  Biso   1.000  C
  C349     1.0000 0.97200  0.58830  0.08780  Biso   1.000  C
  C350     1.0000 0.47200  0.08830  0.08780  Biso   1.000  C
  C351     1.0000 0.02800  0.58830  0.41220  Biso   1.000  C
  C352     1.0000 0.52800  0.08830  0.41220  Biso   1.000  C
  C353     1.0000 0.22990  0.60230  0.01720  Biso   1.000  C
  C354     1.0000 0.72990  0.10230  0.01720  Biso   1.000  C
  C355     1.0000 0.77010  0.60230  0.48280  Biso   1.000  C
  C356     1.0000 0.27010  0.10230  0.48280  Biso   1.000  C
  C357     1.0000 0.77010  0.39770  0.98280  Biso   1.000  C
  C358     1.0000 0.27010  0.89770  0.98280  Biso   1.000  C
  C359     1.0000 0.22990  0.39770  0.51720  Biso   1.000  C
  C360     1.0000 0.72990  0.89770  0.51720  Biso   1.000  C
  C361     1.0000 0.19490  0.60560  0.02500  Biso   1.000  C
  C362     1.0000 0.69490  0.10560  0.02500  Biso   1.000  C
  C363     1.0000 0.80510  0.60560  0.47500  Biso   1.000  C
  C364     1.0000 0.30510  0.10560  0.47500  Biso   1.000  C
  C365     1.0000 0.80510  0.39440  0.97500  Biso   1.000  C
  C366     1.0000 0.30510  0.89440  0.97500  Biso   1.000  C
  C367     1.0000 0.19490  0.39440  0.52500  Biso   1.000  C
  C368     1.0000 0.69490  0.89440  0.52500  Biso   1.000  C
  C369     1.0000 0.16780  0.56080  0.00840  Biso   1.000  C
  C370     1.0000 0.66780  0.06080  0.00840  Biso   1.000  C
  C371     1.0000 0.83220  0.56080  0.49160  Biso   1.000  C
  C372     1.0000 0.33220  0.06080  0.49160  Biso   1.000  C
  C373     1.0000 0.83220  0.43920  0.99160  Biso   1.000  C
  C374     1.0000 0.33220  0.93920  0.99160  Biso   1.000  C
  C375     1.0000 0.16780  0.43920  0.50840  Biso   1.000  C
  C376     1.0000 0.66780  0.93920  0.50840  Biso   1.000  C
  C377     1.0000 0.25870  0.65250  0.03780  Biso   1.000  C
  C378     1.0000 0.75870  0.15250  0.03780  Biso   1.000  C
  C379     1.0000 0.74130  0.65250  0.46220  Biso   1.000  C
  C380     1.0000 0.24130  0.15250  0.46220  Biso   1.000  C
  C381     1.0000 0.74130  0.34750  0.96220  Biso   1.000  C
  C382     1.0000 0.24130  0.84750  0.96220  Biso   1.000  C
  C383     1.0000 0.25870  0.34750  0.53780  Biso   1.000  C
  C384     1.0000 0.75870  0.84750  0.53780  Biso   1.000  C
  C385     1.0000 0.13050  0.56640  0.02040  Biso   1.000  C
  C386     1.0000 0.63050  0.06640  0.02040  Biso   1.000  C
  C387     1.0000 0.86950  0.56640  0.47960  Biso   1.000  C
  C388     1.0000 0.36950  0.06640  0.47960  Biso   1.000  C
  C389     1.0000 0.86950  0.43360  0.97960  Biso   1.000  C
  C390     1.0000 0.36950  0.93360  0.97960  Biso   1.000  C
  C391     1.0000 0.13050  0.43360  0.52040  Biso   1.000  C
  C392     1.0000 0.63050  0.93360  0.52040  Biso   1.000  C
  C393     1.0000 0.21190  0.36770  0.94930  Biso   1.000  C
  C394     1.0000 0.71190  0.86770  0.94930  Biso   1.000  C
  C395     1.0000 0.78810  0.36770  0.55070  Biso   1.000  C
  C396     1.0000 0.28810  0.86770  0.55070  Biso   1.000  C
  C397     1.0000 0.78810  0.63230  0.05070  Biso   1.000  C
  C398     1.0000 0.28810  0.13230  0.05070  Biso   1.000  C
  C399     1.0000 0.21190  0.63230  0.44930  Biso   1.000  C
  C400     1.0000 0.71190  0.13230  0.44930  Biso   1.000  C
  C401     1.0000 0.24680  0.36270  0.94870  Biso   1.000  C
  C402     1.0000 0.74680  0.86270  0.94870  Biso   1.000  C
  C403     1.0000 0.75320  0.36270  0.55130  Biso   1.000  C
  C404     1.0000 0.25320  0.86270  0.55130  Biso   1.000  C
  C405     1.0000 0.75320  0.63730  0.05130  Biso   1.000  C
  C406     1.0000 0.25320  0.13730  0.05130  Biso   1.000  C
  C407     1.0000 0.24680  0.63730  0.44870  Biso   1.000  C
  C408     1.0000 0.74680  0.13730  0.44870  Biso   1.000  C
  C409     1.0000 0.27170  0.41090  0.95530  Biso   1.000  C
  C410     1.0000 0.77170  0.91090  0.95530  Biso   1.000  C
  C411     1.0000 0.72830  0.41090  0.54470  Biso   1.000  C
  C412     1.0000 0.22830  0.91090  0.54470  Biso   1.000  C
  C413     1.0000 0.72830  0.58910  0.04470  Biso   1.000  C
  C414     1.0000 0.22830  0.08910  0.04470  Biso   1.000  C
  C415     1.0000 0.27170  0.58910  0.45530  Biso   1.000  C
  C416     1.0000 0.77170  0.08910  0.45530  Biso   1.000  C
  C417     1.0000 0.18090  0.31610  0.92920  Biso   1.000  C
  C418     1.0000 0.68090  0.81610  0.92920  Biso   1.000  C
  C419     1.0000 0.81910  0.31610  0.57080  Biso   1.000  C
  C420     1.0000 0.31910  0.81610  0.57080  Biso   1.000  C
  C421     1.0000 0.81910  0.68390  0.07080  Biso   1.000  C
  C422     1.0000 0.31910  0.18390  0.07080  Biso   1.000  C
  C423     1.0000 0.18090  0.68390  0.42920  Biso   1.000  C
  C424     1.0000 0.68090  0.18390  0.42920  Biso   1.000  C
  C425     1.0000 0.31240  0.40420  0.95010  Biso   1.000  C
  C426     1.0000 0.81240  0.90420  0.95010  Biso   1.000  C
  C427     1.0000 0.68760  0.40420  0.54990  Biso   1.000  C
  C428     1.0000 0.18760  0.90420  0.54990  Biso   1.000  C
  C429     1.0000 0.68760  0.59580  0.04990  Biso   1.000  C
  C430     1.0000 0.18760  0.09580  0.04990  Biso   1.000  C
  C431     1.0000 0.31240  0.59580  0.45010  Biso   1.000  C
  C432     1.0000 0.81240  0.09580  0.45010  Biso   1.000  C
  F1       1.0000 0.26430  0.11670  0.29690  Biso   1.000  F
  F2       1.0000 0.76430  0.61670  0.29690  Biso   1.000  F
  F3       1.0000 0.73570  0.11670  0.20310  Biso   1.000  F
  F4       1.0000 0.23570  0.61670  0.20310  Biso   1.000  F
  F5       1.0000 0.73570  0.88330  0.70310  Biso   1.000  F
  F6       1.0000 0.23570  0.38330  0.70310  Biso   1.000  F
  F7       1.0000 0.26430  0.88330  0.79690  Biso   1.000  F
  F8       1.0000 0.76430  0.38330  0.79690  Biso   1.000  F
  F9       1.0000 0.28960  0.10900  0.22450  Biso   1.000  F
  F10      1.0000 0.78960  0.60900  0.22450  Biso   1.000  F
  F11      1.0000 0.71040  0.10900  0.27550  Biso   1.000  F
  F12      1.0000 0.21040  0.60900  0.27550  Biso   1.000  F
  F13      1.0000 0.71040  0.89100  0.77550  Biso   1.000  F
  F14      1.0000 0.21040  0.39100  0.77550  Biso   1.000  F
  F15      1.0000 0.28960  0.89100  0.72450  Biso   1.000  F
  F16      1.0000 0.78960  0.39100  0.72450  Biso   1.000  F
  F17      1.0000 0.24550  0.16790  0.20500  Biso   1.000  F
  F18      1.0000 0.74550  0.66790  0.20500  Biso   1.000  F
  F19      1.0000 0.75450  0.16790  0.29500  Biso   1.000  F
  F20      1.0000 0.25450  0.66790  0.29500  Biso   1.000  F
  F21      1.0000 0.75450  0.83210  0.79500  Biso   1.000  F
  F22      1.0000 0.25450  0.33210  0.79500  Biso   1.000  F
  F23      1.0000 0.24550  0.83210  0.70500  Biso   1.000  F
  F24      1.0000 0.74550  0.33210  0.70500  Biso   1.000  F
  F25      1.0000 0.42320  0.18940  0.30560  Biso   1.000  F
  F26      1.0000 0.92320  0.68940  0.30560  Biso   1.000  F
  F27      1.0000 0.57680  0.18940  0.19440  Biso   1.000  F
  F28      1.0000 0.07680  0.68940  0.19440  Biso   1.000  F
  F29      1.0000 0.57680  0.81060  0.69440  Biso   1.000  F
  F30      1.0000 0.07680  0.31060  0.69440  Biso   1.000  F
  F31      1.0000 0.42320  0.81060  0.80560  Biso   1.000  F
  F32      1.0000 0.92320  0.31060  0.80560  Biso   1.000  F
  F33      1.0000 0.44610  0.18690  0.40520  Biso   1.000  F
  F34      1.0000 0.94610  0.68690  0.40520  Biso   1.000  F
  F35      1.0000 0.55390  0.18690  0.09480  Biso   1.000  F
  F36      1.0000 0.05390  0.68690  0.09480  Biso   1.000  F
  F37      1.0000 0.55390  0.81310  0.59480  Biso   1.000  F
  F38      1.0000 0.05390  0.31310  0.59480  Biso   1.000  F
  F39      1.0000 0.44610  0.81310  0.90520  Biso   1.000  F
  F40      1.0000 0.94610  0.31310  0.90520  Biso   1.000  F
  F41      1.0000 0.44300  0.25680  0.36630  Biso   1.000  F
  F42      1.0000 0.94300  0.75680  0.36630  Biso   1.000  F
  F43      1.0000 0.55700  0.25680  0.13370  Biso   1.000  F
  F44      1.0000 0.05700  0.75680  0.13370  Biso   1.000  F
  F45      1.0000 0.55700  0.74320  0.63370  Biso   1.000  F
  F46      1.0000 0.05700  0.24320  0.63370  Biso   1.000  F
  F47      1.0000 0.44300  0.74320  0.86630  Biso   1.000  F
  F48      1.0000 0.94300  0.24320  0.86630  Biso   1.000  F
  F49      1.0000 0.37060  0.45840  0.49510  Biso   1.000  F
  F50      1.0000 0.87060  0.95840  0.49510  Biso   1.000  F
  F51      1.0000 0.62940  0.45840  0.00490  Biso   1.000  F
  F52      1.0000 0.12940  0.95840  0.00490  Biso   1.000  F
  F53      1.0000 0.62940  0.54160  0.50490  Biso   1.000  F
  F54      1.0000 0.12940  0.04160  0.50490  Biso   1.000  F
  F55      1.0000 0.37060  0.54160  0.99510  Biso   1.000  F
  F56      1.0000 0.87060  0.04160  0.99510  Biso   1.000  F
  F57      1.0000 0.42140  0.43060  0.50500  Biso   1.000  F
  F58      1.0000 0.92140  0.93060  0.50500  Biso   1.000  F
  F59      1.0000 0.57860  0.43060  0.99500  Biso   1.000  F
  F60      1.0000 0.07860  0.93060  0.99500  Biso   1.000  F
  F61      1.0000 0.57860  0.56940  0.49500  Biso   1.000  F
  F62      1.0000 0.07860  0.06940  0.49500  Biso   1.000  F
  F63      1.0000 0.42140  0.56940  0.00500  Biso   1.000  F
  F64      1.0000 0.92140  0.06940  0.00500  Biso   1.000  F
  F65      1.0000 0.41280  0.43490  0.58880  Biso   1.000  F
  F66      1.0000 0.91280  0.93490  0.58880  Biso   1.000  F
  F67      1.0000 0.58720  0.43490  0.91120  Biso   1.000  F
  F68      1.0000 0.08720  0.93490  0.91120  Biso   1.000  F
  F69      1.0000 0.58720  0.56510  0.41120  Biso   1.000  F
  F70      1.0000 0.08720  0.06510  0.41120  Biso   1.000  F
  F71      1.0000 0.41280  0.56510  0.08880  Biso   1.000  F
  F72      1.0000 0.91280  0.06510  0.08880  Biso   1.000  F
  F73      1.0000 0.34250  0.23600  0.61700  Biso   1.000  F
  F74      1.0000 0.84250  0.73600  0.61700  Biso   1.000  F
  F75      1.0000 0.65750  0.23600  0.88300  Biso   1.000  F
  F76      1.0000 0.15750  0.73600  0.88300  Biso   1.000  F
  F77      1.0000 0.65750  0.76400  0.38300  Biso   1.000  F
  F78      1.0000 0.15750  0.26400  0.38300  Biso   1.000  F
  F79      1.0000 0.34250  0.76400  0.11700  Biso   1.000  F
  F80      1.0000 0.84250  0.26400  0.11700  Biso   1.000  F
  F81      1.0000 0.40300  0.25070  0.66620  Biso   1.000  F
  F82      1.0000 0.90300  0.75070  0.66620  Biso   1.000  F
  F83      1.0000 0.59700  0.25070  0.83380  Biso   1.000  F
  F84      1.0000 0.09700  0.75070  0.83380  Biso   1.000  F
  F85      1.0000 0.59700  0.74930  0.33380  Biso   1.000  F
  F86      1.0000 0.09700  0.24930  0.33380  Biso   1.000  F
  F87      1.0000 0.40300  0.74930  0.16620  Biso   1.000  F
  F88      1.0000 0.90300  0.24930  0.16620  Biso   1.000  F
  F89      1.0000 0.38000  0.18700  0.60080  Biso   1.000  F
  F90      1.0000 0.88000  0.68700  0.60080  Biso   1.000  F
  F91      1.0000 0.62000  0.18700  0.89920  Biso   1.000  F
  F92      1.0000 0.12000  0.68700  0.89920  Biso   1.000  F
  F93      1.0000 0.62000  0.81300  0.39920  Biso   1.000  F
  F94      1.0000 0.12000  0.31300  0.39920  Biso   1.000  F
  F95      1.0000 0.38000  0.81300  0.10080  Biso   1.000  F
  F96      1.0000 0.88000  0.31300  0.10080  Biso   1.000  F
  F97      1.0000 0.16570  0.17420  0.26230  Biso   1.000  F
  F98      1.0000 0.66570  0.67420  0.26230  Biso   1.000  F
  F99      1.0000 0.83430  0.17420  0.23770  Biso   1.000  F
  F100     1.0000 0.33430  0.67420  0.23770  Biso   1.000  F
  F101     1.0000 0.83430  0.82580  0.73770  Biso   1.000  F
  F102     1.0000 0.33430  0.32580  0.73770  Biso   1.000  F
  F103     1.0000 0.16570  0.82580  0.76230  Biso   1.000  F
  F104     1.0000 0.66570  0.32580  0.76230  Biso   1.000  F
  F105     1.0000 0.11660  0.12750  0.25280  Biso   1.000  F
  F106     1.0000 0.61660  0.62750  0.25280  Biso   1.000  F
  F107     1.0000 0.88340  0.12750  0.24720  Biso   1.000  F
  F108     1.0000 0.38340  0.62750  0.24720  Biso   1.000  F
  F109     1.0000 0.88340  0.87250  0.74720  Biso   1.000  F
  F110     1.0000 0.38340  0.37250  0.74720  Biso   1.000  F
  F111     1.0000 0.11660  0.87250  0.75280  Biso   1.000  F
  F112     1.0000 0.61660  0.37250  0.75280  Biso   1.000  F
  F113     1.0000 0.13670  0.12220  0.17690  Biso   1.000  F
  F114     1.0000 0.63670  0.62220  0.17690  Biso   1.000  F
  F115     1.0000 0.86330  0.12220  0.32310  Biso   1.000  F
  F116     1.0000 0.36330  0.62220  0.32310  Biso   1.000  F
  F117     1.0000 0.86330  0.87780  0.82310  Biso   1.000  F
  F118     1.0000 0.36330  0.37780  0.82310  Biso   1.000  F
  F119     1.0000 0.13670  0.87780  0.67690  Biso   1.000  F
  F120     1.0000 0.63670  0.37780  0.67690  Biso   1.000  F
  F121     1.0000 0.98770  0.29350  0.13780  Biso   1.000  F
  F122     1.0000 0.48770  0.79350  0.13780  Biso   1.000  F
  F123     1.0000 0.01230  0.29350  0.36220  Biso   1.000  F
  F124     1.0000 0.51230  0.79350  0.36220  Biso   1.000  F
  F125     1.0000 0.01230  0.70650  0.86220  Biso   1.000  F
  F126     1.0000 0.51230  0.20650  0.86220  Biso   1.000  F
  F127     1.0000 0.98770  0.70650  0.63780  Biso   1.000  F
  F128     1.0000 0.48770  0.20650  0.63780  Biso   1.000  F
  F129     1.0000 0.98410  0.21550  0.14900  Biso   1.000  F
  F130     1.0000 0.48410  0.71550  0.14900  Biso   1.000  F
  F131     1.0000 0.01590  0.21550  0.35100  Biso   1.000  F
  F132     1.0000 0.51590  0.71550  0.35100  Biso   1.000  F
  F133     1.0000 0.01590  0.78450  0.85100  Biso   1.000  F
  F134     1.0000 0.51590  0.28450  0.85100  Biso   1.000  F
  F135     1.0000 0.98410  0.78450  0.64900  Biso   1.000  F
  F136     1.0000 0.48410  0.28450  0.64900  Biso   1.000  F
  F137     1.0000 0.96160  0.24880  0.05360  Biso   1.000  F
  F138     1.0000 0.46160  0.74880  0.05360  Biso   1.000  F
  F139     1.0000 0.03840  0.24880  0.44640  Biso   1.000  F
  F140     1.0000 0.53840  0.74880  0.44640  Biso   1.000  F
  F141     1.0000 0.03840  0.75120  0.94640  Biso   1.000  F
  F142     1.0000 0.53840  0.25120  0.94640  Biso   1.000  F
  F143     1.0000 0.96160  0.75120  0.55360  Biso   1.000  F
  F144     1.0000 0.46160  0.25120  0.55360  Biso   1.000  F
  F145     1.0000 0.06110  0.24010  0.82190  Biso   1.000  F
  F146     1.0000 0.56110  0.74010  0.82190  Biso   1.000  F
  F147     1.0000 0.93890  0.24010  0.67810  Biso   1.000  F
  F148     1.0000 0.43890  0.74010  0.67810  Biso   1.000  F
  F149     1.0000 0.93890  0.75990  0.17810  Biso   1.000  F
  F150     1.0000 0.43890  0.25990  0.17810  Biso   1.000  F
  F151     1.0000 0.06110  0.75990  0.32190  Biso   1.000  F
  F152     1.0000 0.56110  0.25990  0.32190  Biso   1.000  F
  F153     1.0000 0.02330  0.19330  0.84570  Biso   1.000  F
  F154     1.0000 0.52330  0.69330  0.84570  Biso   1.000  F
  F155     1.0000 0.97670  0.19330  0.65430  Biso   1.000  F
  F156     1.0000 0.47670  0.69330  0.65430  Biso   1.000  F
  F157     1.0000 0.97670  0.80670  0.15430  Biso   1.000  F
  F158     1.0000 0.47670  0.30670  0.15430  Biso   1.000  F
  F159     1.0000 0.02330  0.80670  0.34570  Biso   1.000  F
  F160     1.0000 0.52330  0.30670  0.34570  Biso   1.000  F
  F161     1.0000 0.08120  0.17570  0.89650  Biso   1.000  F
  F162     1.0000 0.58120  0.67570  0.89650  Biso   1.000  F
  F163     1.0000 0.91880  0.17570  0.60350  Biso   1.000  F
  F164     1.0000 0.41880  0.67570  0.60350  Biso   1.000  F
  F165     1.0000 0.91880  0.82430  0.10350  Biso   1.000  F
  F166     1.0000 0.41880  0.32430  0.10350  Biso   1.000  F
  F167     1.0000 0.08120  0.82430  0.39650  Biso   1.000  F
  F168     1.0000 0.58120  0.32430  0.39650  Biso   1.000  F
  F169     1.0000 0.05560  0.44990  0.92750  Biso   1.000  F
  F170     1.0000 0.55560  0.94990  0.92750  Biso   1.000  F
  F171     1.0000 0.94440  0.44990  0.57250  Biso   1.000  F
  F172     1.0000 0.44440  0.94990  0.57250  Biso   1.000  F
  F173     1.0000 0.94440  0.55010  0.07250  Biso   1.000  F
  F174     1.0000 0.44440  0.05010  0.07250  Biso   1.000  F
  F175     1.0000 0.05560  0.55010  0.42750  Biso   1.000  F
  F176     1.0000 0.55560  0.05010  0.42750  Biso   1.000  F
  F177     1.0000 0.00300  0.43020  0.93690  Biso   1.000  F
  F178     1.0000 0.50300  0.93020  0.93690  Biso   1.000  F
  F179     1.0000 0.99700  0.43020  0.56310  Biso   1.000  F
  F180     1.0000 0.49700  0.93020  0.56310  Biso   1.000  F
  F181     1.0000 0.99700  0.56980  0.06310  Biso   1.000  F
  F182     1.0000 0.49700  0.06980  0.06310  Biso   1.000  F
  F183     1.0000 0.00300  0.56980  0.43690  Biso   1.000  F
  F184     1.0000 0.50300  0.06980  0.43690  Biso   1.000  F
  F185     1.0000 0.00450  0.41040  0.84640  Biso   1.000  F
  F186     1.0000 0.50450  0.91040  0.84640  Biso   1.000  F
  F187     1.0000 0.99550  0.41040  0.65360  Biso   1.000  F
  F188     1.0000 0.49550  0.91040  0.65360  Biso   1.000  F
  F189     1.0000 0.99550  0.58960  0.15360  Biso   1.000  F
  F190     1.0000 0.49550  0.08960  0.15360  Biso   1.000  F
  F191     1.0000 0.00450  0.58960  0.34640  Biso   1.000  F
  F192     1.0000 0.50450  0.08960  0.34640  Biso   1.000  F
  F193     1.0000 0.25880  0.67660  0.98670  Biso   1.000  F
  F194     1.0000 0.75880  0.17660  0.98670  Biso   1.000  F
  F195     1.0000 0.74120  0.67660  0.51330  Biso   1.000  F
  F196     1.0000 0.24120  0.17660  0.51330  Biso   1.000  F
  F197     1.0000 0.74120  0.32340  0.01330  Biso   1.000  F
  F198     1.0000 0.24120  0.82340  0.01330  Biso   1.000  F
  F199     1.0000 0.25880  0.32340  0.48670  Biso   1.000  F
  F200     1.0000 0.75880  0.82340  0.48670  Biso   1.000  F
  F201     1.0000 0.29680  0.63830  0.07700  Biso   1.000  F
  F202     1.0000 0.79680  0.13830  0.07700  Biso   1.000  F
  F203     1.0000 0.70320  0.63830  0.42300  Biso   1.000  F
  F204     1.0000 0.20320  0.13830  0.42300  Biso   1.000  F
  F205     1.0000 0.70320  0.36170  0.92300  Biso   1.000  F
  F206     1.0000 0.20320  0.86170  0.92300  Biso   1.000  F
  F207     1.0000 0.29680  0.36170  0.57700  Biso   1.000  F
  F208     1.0000 0.79680  0.86170  0.57700  Biso   1.000  F
  F209     1.0000 0.25270  0.69100  0.07250  Biso   1.000  F
  F210     1.0000 0.75270  0.19100  0.07250  Biso   1.000  F
  F211     1.0000 0.74730  0.69100  0.42750  Biso   1.000  F
  F212     1.0000 0.24730  0.19100  0.42750  Biso   1.000  F
  F213     1.0000 0.74730  0.30900  0.92750  Biso   1.000  F
  F214     1.0000 0.24730  0.80900  0.92750  Biso   1.000  F
  F215     1.0000 0.25270  0.30900  0.57250  Biso   1.000  F
  F216     1.0000 0.75270  0.80900  0.57250  Biso   1.000  F
  F217     1.0000 0.09570  0.56180  0.95890  Biso   1.000  F
  F218     1.0000 0.59570  0.06180  0.95890  Biso   1.000  F
  F219     1.0000 0.90430  0.56180  0.54110  Biso   1.000  F
  F220     1.0000 0.40430  0.06180  0.54110  Biso   1.000  F
  F221     1.0000 0.90430  0.43820  0.04110  Biso   1.000  F
  F222     1.0000 0.40430  0.93820  0.04110  Biso   1.000  F
  F223     1.0000 0.09570  0.43820  0.45890  Biso   1.000  F
  F224     1.0000 0.59570  0.93820  0.45890  Biso   1.000  F
  F225     1.0000 0.12750  0.52900  0.05800  Biso   1.000  F
  F226     1.0000 0.62750  0.02900  0.05800  Biso   1.000  F
  F227     1.0000 0.87250  0.52900  0.44200  Biso   1.000  F
  F228     1.0000 0.37250  0.02900  0.44200  Biso   1.000  F
  F229     1.0000 0.87250  0.47100  0.94200  Biso   1.000  F
  F230     1.0000 0.37250  0.97100  0.94200  Biso   1.000  F
  F231     1.0000 0.12750  0.47100  0.55800  Biso   1.000  F
  F232     1.0000 0.62750  0.97100  0.55800  Biso   1.000  F
  F233     1.0000 0.12630  0.61580  0.04260  Biso   1.000  F
  F234     1.0000 0.62630  0.11580  0.04260  Biso   1.000  F
  F235     1.0000 0.87370  0.61580  0.45740  Biso   1.000  F
  F236     1.0000 0.37370  0.11580  0.45740  Biso   1.000  F
  F237     1.0000 0.87370  0.38420  0.95740  Biso   1.000  F
  F238     1.0000 0.37370  0.88420  0.95740  Biso   1.000  F
  F239     1.0000 0.12630  0.38420  0.54260  Biso   1.000  F
  F240     1.0000 0.62630  0.88420  0.54260  Biso   1.000  F
  F241     1.0000 0.16160  0.30480  0.86990  Biso   1.000  F
  F242     1.0000 0.66160  0.80480  0.86990  Biso   1.000  F
  F243     1.0000 0.83840  0.30480  0.63010  Biso   1.000  F
  F244     1.0000 0.33840  0.80480  0.63010  Biso   1.000  F
  F245     1.0000 0.83840  0.69520  0.13010  Biso   1.000  F
  F246     1.0000 0.33840  0.19520  0.13010  Biso   1.000  F
  F247     1.0000 0.16160  0.69520  0.36990  Biso   1.000  F
  F248     1.0000 0.66160  0.19520  0.36990  Biso   1.000  F
  F249     1.0000 0.15910  0.31210  0.95600  Biso   1.000  F
  F250     1.0000 0.65910  0.81210  0.95600  Biso   1.000  F
  F251     1.0000 0.84090  0.31210  0.54400  Biso   1.000  F
  F252     1.0000 0.34090  0.81210  0.54400  Biso   1.000  F
  F253     1.0000 0.84090  0.68790  0.04400  Biso   1.000  F
  F254     1.0000 0.34090  0.18790  0.04400  Biso   1.000  F
  F255     1.0000 0.15910  0.68790  0.45600  Biso   1.000  F
  F256     1.0000 0.65910  0.18790  0.45600  Biso   1.000  F
  F257     1.0000 0.20350  0.27970  0.95840  Biso   1.000  F
  F258     1.0000 0.70350  0.77970  0.95840  Biso   1.000  F
  F259     1.0000 0.79650  0.27970  0.54160  Biso   1.000  F
  F260     1.0000 0.29650  0.77970  0.54160  Biso   1.000  F
  F261     1.0000 0.79650  0.72030  0.04160  Biso   1.000  F
  F262     1.0000 0.29650  0.22030  0.04160  Biso   1.000  F
  F263     1.0000 0.20350  0.72030  0.45840  Biso   1.000  F
  F264     1.0000 0.70350  0.22030  0.45840  Biso   1.000  F
  F265     1.0000 0.34330  0.42380  0.00770  Biso   1.000  F
  F266     1.0000 0.84330  0.92380  0.00770  Biso   1.000  F
  F267     1.0000 0.65670  0.42380  0.49230  Biso   1.000  F
  F268     1.0000 0.15670  0.92380  0.49230  Biso   1.000  F
  F269     1.0000 0.65670  0.57620  0.99230  Biso   1.000  F
  F270     1.0000 0.15670  0.07620  0.99230  Biso   1.000  F
  F271     1.0000 0.34330  0.57620  0.50770  Biso   1.000  F
  F272     1.0000 0.84330  0.07620  0.50770  Biso   1.000  F
  F273     1.0000 0.31970  0.35020  0.94180  Biso   1.000  F
  F274     1.0000 0.81970  0.85020  0.94180  Biso   1.000  F
  F275     1.0000 0.68030  0.35020  0.55820  Biso   1.000  F
  F276     1.0000 0.18030  0.85020  0.55820  Biso   1.000  F
  F277     1.0000 0.68030  0.64980  0.05820  Biso   1.000  F
  F278     1.0000 0.18030  0.14980  0.05820  Biso   1.000  F
  F279     1.0000 0.31970  0.64980  0.44180  Biso   1.000  F
  F280     1.0000 0.81970  0.14980  0.44180  Biso   1.000  F
  F281     1.0000 0.30900  0.43180  0.89610  Biso   1.000  F
  F282     1.0000 0.80900  0.93180  0.89610  Biso   1.000  F
  F283     1.0000 0.69100  0.43180  0.60390  Biso   1.000  F
  F284     1.0000 0.19100  0.93180  0.60390  Biso   1.000  F
  F285     1.0000 0.69100  0.56820  0.10390  Biso   1.000  F
  F286     1.0000 0.19100  0.06820  0.10390  Biso   1.000  F
  F287     1.0000 0.30900  0.56820  0.39610  Biso   1.000  F
  F288     1.0000 0.80900  0.06820  0.39610  Biso   1.000  F
