data_image0
_cell_length_a       48.488
_cell_length_b       48.488
_cell_length_c       33.48
_cell_angle_alpha    90
_cell_angle_beta     90
_cell_angle_gamma    90

_symmetry_space_group_name_H-M    "P 1"
_symmetry_int_tables_number       1

loop_
  _symmetry_equiv_pos_as_xyz
  'x, y, z'

loop_
  _atom_site_label
  _atom_site_occupancy
  _atom_site_fract_x
  _atom_site_fract_y
  _atom_site_fract_z
  _atom_site_thermal_displace_type
  _atom_site_B_iso_or_equiv
  _atom_site_type_symbol
  Cu1      1.0000 0.49126  0.60338  0.60332  Biso   1.000  Cu
  Cu2      1.0000 0.89662  0.49126  0.60332  Biso   1.000  Cu
  Cu3      1.0000 0.99126  0.39662  0.89668  Biso   1.000  Cu
  Cu4      1.0000 0.00874  0.89662  0.60332  Biso   1.000  Cu
  Cu5      1.0000 0.10338  0.99126  0.89668  Biso   1.000  Cu
  Cu6      1.0000 0.60338  0.00874  0.60332  Biso   1.000  Cu
  Cu7      1.0000 0.50874  0.10338  0.89668  Biso   1.000  Cu
  Cu8      1.0000 0.39662  0.50874  0.89668  Biso   1.000  Cu
  Cu9      1.0000 0.50874  0.39662  0.39668  Biso   1.000  Cu
  Cu10     1.0000 0.10338  0.50874  0.39668  Biso   1.000  Cu
  Cu11     1.0000 0.00874  0.60338  0.10332  Biso   1.000  Cu
  Cu12     1.0000 0.99126  0.10338  0.39668  Biso   1.000  Cu
  Cu13     1.0000 0.89662  0.00874  0.10332  Biso   1.000  Cu
  Cu14     1.0000 0.39662  0.99126  0.39668  Biso   1.000  Cu
  Cu15     1.0000 0.49126  0.89662  0.10332  Biso   1.000  Cu
  Cu16     1.0000 0.60338  0.49126  0.10332  Biso   1.000  Cu
  Cu17     1.0000 0.67298  0.46537  0.59792  Biso   1.000  Cu
  Cu18     1.0000 0.03463  0.67298  0.59792  Biso   1.000  Cu
  Cu19     1.0000 0.17298  0.53463  0.90208  Biso   1.000  Cu
  Cu20     1.0000 0.82702  0.03463  0.59792  Biso   1.000  Cu
  Cu21     1.0000 0.96537  0.17298  0.90208  Biso   1.000  Cu
  Cu22     1.0000 0.46537  0.82702  0.59792  Biso   1.000  Cu
  Cu23     1.0000 0.32702  0.96537  0.90208  Biso   1.000  Cu
  Cu24     1.0000 0.53463  0.32702  0.90208  Biso   1.000  Cu
  Cu25     1.0000 0.32702  0.53463  0.40208  Biso   1.000  Cu
  Cu26     1.0000 0.96537  0.32702  0.40208  Biso   1.000  Cu
  Cu27     1.0000 0.82702  0.46537  0.09792  Biso   1.000  Cu
  Cu28     1.0000 0.17298  0.96537  0.40208  Biso   1.000  Cu
  Cu29     1.0000 0.03463  0.82702  0.09792  Biso   1.000  Cu
  Cu30     1.0000 0.53463  0.17298  0.40208  Biso   1.000  Cu
  Cu31     1.0000 0.67298  0.03463  0.09792  Biso   1.000  Cu
  Cu32     1.0000 0.46537  0.67298  0.09792  Biso   1.000  Cu
  N1       1.0000 0.52273  0.60713  0.64190  Biso   1.000  N
  N2       1.0000 0.89287  0.52273  0.64190  Biso   1.000  N
  N3       1.0000 0.02273  0.39287  0.85810  Biso   1.000  N
  N4       1.0000 0.97727  0.89287  0.64190  Biso   1.000  N
  N5       1.0000 0.10713  0.02273  0.85810  Biso   1.000  N
  N6       1.0000 0.60713  0.97727  0.64190  Biso   1.000  N
  N7       1.0000 0.47727  0.10713  0.85810  Biso   1.000  N
  N8       1.0000 0.39287  0.47727  0.85810  Biso   1.000  N
  N9       1.0000 0.47727  0.39287  0.35810  Biso   1.000  N
  N10      1.0000 0.10713  0.47727  0.35810  Biso   1.000  N
  N11      1.0000 0.97727  0.60713  0.14190  Biso   1.000  N
  N12      1.0000 0.02273  0.10713  0.35810  Biso   1.000  N
  N13      1.0000 0.89287  0.97727  0.14190  Biso   1.000  N
  N14      1.0000 0.39287  0.02273  0.35810  Biso   1.000  N
  N15      1.0000 0.52273  0.89287  0.14190  Biso   1.000  N
  N16      1.0000 0.60713  0.52273  0.14190  Biso   1.000  N
  N17      1.0000 0.56499  0.61093  0.66680  Biso   1.000  N
  N18      1.0000 0.88907  0.56499  0.66680  Biso   1.000  N
  N19      1.0000 0.06499  0.38907  0.83320  Biso   1.000  N
  N20      1.0000 0.93501  0.88907  0.66680  Biso   1.000  N
  N21      1.0000 0.11093  0.06499  0.83320  Biso   1.000  N
  N22      1.0000 0.61093  0.93501  0.66680  Biso   1.000  N
  N23      1.0000 0.43501  0.11093  0.83320  Biso   1.000  N
  N24      1.0000 0.38907  0.43501  0.83320  Biso   1.000  N
  N25      1.0000 0.43501  0.38907  0.33320  Biso   1.000  N
  N26      1.0000 0.11093  0.43501  0.33320  Biso   1.000  N
  N27      1.0000 0.93501  0.61093  0.16680  Biso   1.000  N
  N28      1.0000 0.06499  0.11093  0.33320  Biso   1.000  N
  N29      1.0000 0.88907  0.93501  0.16680  Biso   1.000  N
  N30      1.0000 0.38907  0.06499  0.33320  Biso   1.000  N
  N31      1.0000 0.56499  0.88907  0.16680  Biso   1.000  N
  N32      1.0000 0.61093  0.56499  0.16680  Biso   1.000  N
  N33      1.0000 0.55809  0.54717  0.51284  Biso   1.000  N
  N34      1.0000 0.95283  0.55809  0.51284  Biso   1.000  N
  N35      1.0000 0.05809  0.45283  0.98716  Biso   1.000  N
  N36      1.0000 0.94191  0.95283  0.51284  Biso   1.000  N
  N37      1.0000 0.04717  0.05809  0.98716  Biso   1.000  N
  N38      1.0000 0.54717  0.94191  0.51284  Biso   1.000  N
  N39      1.0000 0.44191  0.04717  0.98716  Biso   1.000  N
  N40      1.0000 0.45283  0.44191  0.98716  Biso   1.000  N
  N41      1.0000 0.44191  0.45283  0.48716  Biso   1.000  N
  N42      1.0000 0.04717  0.44191  0.48716  Biso   1.000  N
  N43      1.0000 0.94191  0.54717  0.01284  Biso   1.000  N
  N44      1.0000 0.05809  0.04717  0.48716  Biso   1.000  N
  N45      1.0000 0.95283  0.94191  0.01284  Biso   1.000  N
  N46      1.0000 0.45283  0.05809  0.48716  Biso   1.000  N
  N47      1.0000 0.55809  0.95283  0.01284  Biso   1.000  N
  N48      1.0000 0.54717  0.55809  0.01284  Biso   1.000  N
  N49      1.0000 0.58939  0.57534  0.48548  Biso   1.000  N
  N50      1.0000 0.92466  0.58939  0.48548  Biso   1.000  N
  N51      1.0000 0.08939  0.42466  0.01452  Biso   1.000  N
  N52      1.0000 0.91061  0.92466  0.48548  Biso   1.000  N
  N53      1.0000 0.07534  0.08939  0.01452  Biso   1.000  N
  N54      1.0000 0.57534  0.91061  0.48548  Biso   1.000  N
  N55      1.0000 0.41061  0.07534  0.01452  Biso   1.000  N
  N56      1.0000 0.42466  0.41061  0.01452  Biso   1.000  N
  N57      1.0000 0.41061  0.42466  0.51452  Biso   1.000  N
  N58      1.0000 0.07534  0.41061  0.51452  Biso   1.000  N
  N59      1.0000 0.91061  0.57534  0.98548  Biso   1.000  N
  N60      1.0000 0.08939  0.07534  0.51452  Biso   1.000  N
  N61      1.0000 0.92466  0.91061  0.98548  Biso   1.000  N
  N62      1.0000 0.42466  0.08939  0.51452  Biso   1.000  N
  N63      1.0000 0.58939  0.92466  0.98548  Biso   1.000  N
  N64      1.0000 0.57534  0.58939  0.98548  Biso   1.000  N
  N65      1.0000 0.66579  0.49782  0.56210  Biso   1.000  N
  N66      1.0000 0.00218  0.66579  0.56210  Biso   1.000  N
  N67      1.0000 0.16579  0.50218  0.93790  Biso   1.000  N
  N68      1.0000 0.83421  0.00218  0.56210  Biso   1.000  N
  N69      1.0000 0.99782  0.16579  0.93790  Biso   1.000  N
  N70      1.0000 0.49782  0.83421  0.56210  Biso   1.000  N
  N71      1.0000 0.33421  0.99782  0.93790  Biso   1.000  N
  N72      1.0000 0.50218  0.33421  0.93790  Biso   1.000  N
  N73      1.0000 0.33421  0.50218  0.43790  Biso   1.000  N
  N74      1.0000 0.99782  0.33421  0.43790  Biso   1.000  N
  N75      1.0000 0.83421  0.49782  0.06210  Biso   1.000  N
  N76      1.0000 0.16579  0.99782  0.43790  Biso   1.000  N
  N77      1.0000 0.00218  0.83421  0.06210  Biso   1.000  N
  N78      1.0000 0.50218  0.16579  0.43790  Biso   1.000  N
  N79      1.0000 0.66579  0.00218  0.06210  Biso   1.000  N
  N80      1.0000 0.49782  0.66579  0.06210  Biso   1.000  N
  N81      1.0000 0.66217  0.53963  0.53740  Biso   1.000  N
  N82      1.0000 0.96037  0.66217  0.53740  Biso   1.000  N
  N83      1.0000 0.16217  0.46037  0.96260  Biso   1.000  N
  N84      1.0000 0.83783  0.96037  0.53740  Biso   1.000  N
  N85      1.0000 0.03963  0.16217  0.96260  Biso   1.000  N
  N86      1.0000 0.53963  0.83783  0.53740  Biso   1.000  N
  N87      1.0000 0.33783  0.03963  0.96260  Biso   1.000  N
  N88      1.0000 0.46037  0.33783  0.96260  Biso   1.000  N
  N89      1.0000 0.33783  0.46037  0.46260  Biso   1.000  N
  N90      1.0000 0.03963  0.33783  0.46260  Biso   1.000  N
  N91      1.0000 0.83783  0.53963  0.03740  Biso   1.000  N
  N92      1.0000 0.16217  0.03963  0.46260  Biso   1.000  N
  N93      1.0000 0.96037  0.83783  0.03740  Biso   1.000  N
  N94      1.0000 0.46037  0.16217  0.46260  Biso   1.000  N
  N95      1.0000 0.66217  0.96037  0.03740  Biso   1.000  N
  N96      1.0000 0.53963  0.66217  0.03740  Biso   1.000  N
  N97      1.0000 0.61353  0.52116  0.70260  Biso   1.000  N
  N98      1.0000 0.97884  0.61353  0.70260  Biso   1.000  N
  N99      1.0000 0.11353  0.47884  0.79740  Biso   1.000  N
  N100     1.0000 0.88647  0.97884  0.70260  Biso   1.000  N
  N101     1.0000 0.02116  0.11353  0.79740  Biso   1.000  N
  N102     1.0000 0.52116  0.88647  0.70260  Biso   1.000  N
  N103     1.0000 0.38647  0.02116  0.79740  Biso   1.000  N
  N104     1.0000 0.47884  0.38647  0.79740  Biso   1.000  N
  N105     1.0000 0.38647  0.47884  0.29740  Biso   1.000  N
  N106     1.0000 0.02116  0.38647  0.29740  Biso   1.000  N
  N107     1.0000 0.88647  0.52116  0.20260  Biso   1.000  N
  N108     1.0000 0.11353  0.02116  0.29740  Biso   1.000  N
  N109     1.0000 0.97884  0.88647  0.20260  Biso   1.000  N
  N110     1.0000 0.47884  0.11353  0.29740  Biso   1.000  N
  N111     1.0000 0.61353  0.97884  0.20260  Biso   1.000  N
  N112     1.0000 0.52116  0.61353  0.20260  Biso   1.000  N
  N113     1.0000 0.63396  0.55965  0.72400  Biso   1.000  N
  N114     1.0000 0.94035  0.63396  0.72400  Biso   1.000  N
  N115     1.0000 0.13396  0.44035  0.77600  Biso   1.000  N
  N116     1.0000 0.86604  0.94035  0.72400  Biso   1.000  N
  N117     1.0000 0.05965  0.13396  0.77600  Biso   1.000  N
  N118     1.0000 0.55965  0.86604  0.72400  Biso   1.000  N
  N119     1.0000 0.36604  0.05965  0.77600  Biso   1.000  N
  N120     1.0000 0.44035  0.36604  0.77600  Biso   1.000  N
  N121     1.0000 0.36604  0.44035  0.27600  Biso   1.000  N
  N122     1.0000 0.05965  0.36604  0.27600  Biso   1.000  N
  N123     1.0000 0.86604  0.55965  0.22400  Biso   1.000  N
  N124     1.0000 0.13396  0.05965  0.27600  Biso   1.000  N
  N125     1.0000 0.94035  0.86604  0.22400  Biso   1.000  N
  N126     1.0000 0.44035  0.13396  0.27600  Biso   1.000  N
  N127     1.0000 0.63396  0.94035  0.22400  Biso   1.000  N
  N128     1.0000 0.55965  0.63396  0.22400  Biso   1.000  N
  N129     1.0000 0.48650  0.80307  0.63470  Biso   1.000  N
  N130     1.0000 0.69693  0.48650  0.63470  Biso   1.000  N
  N131     1.0000 0.98650  0.19693  0.86530  Biso   1.000  N
  N132     1.0000 0.01350  0.69693  0.63470  Biso   1.000  N
  N133     1.0000 0.30307  0.98650  0.86530  Biso   1.000  N
  N134     1.0000 0.80307  0.01350  0.63470  Biso   1.000  N
  N135     1.0000 0.51350  0.30307  0.86530  Biso   1.000  N
  N136     1.0000 0.19693  0.51350  0.86530  Biso   1.000  N
  N137     1.0000 0.51350  0.19693  0.36530  Biso   1.000  N
  N138     1.0000 0.30307  0.51350  0.36530  Biso   1.000  N
  N139     1.0000 0.01350  0.80307  0.13470  Biso   1.000  N
  N140     1.0000 0.98650  0.30307  0.36530  Biso   1.000  N
  N141     1.0000 0.69693  0.01350  0.13470  Biso   1.000  N
  N142     1.0000 0.19693  0.98650  0.36530  Biso   1.000  N
  N143     1.0000 0.48650  0.69693  0.13470  Biso   1.000  N
  N144     1.0000 0.80307  0.48650  0.13470  Biso   1.000  N
  N145     1.0000 0.52215  0.77920  0.65970  Biso   1.000  N
  N146     1.0000 0.72080  0.52215  0.65970  Biso   1.000  N
  N147     1.0000 0.02215  0.22080  0.84030  Biso   1.000  N
  N148     1.0000 0.97785  0.72080  0.65970  Biso   1.000  N
  N149     1.0000 0.27920  0.02215  0.84030  Biso   1.000  N
  N150     1.0000 0.77920  0.97785  0.65970  Biso   1.000  N
  N151     1.0000 0.47785  0.27920  0.84030  Biso   1.000  N
  N152     1.0000 0.22080  0.47785  0.84030  Biso   1.000  N
  N153     1.0000 0.47785  0.22080  0.34030  Biso   1.000  N
  N154     1.0000 0.27920  0.47785  0.34030  Biso   1.000  N
  N155     1.0000 0.97785  0.77920  0.15970  Biso   1.000  N
  N156     1.0000 0.02215  0.27920  0.34030  Biso   1.000  N
  N157     1.0000 0.72080  0.97785  0.15970  Biso   1.000  N
  N158     1.0000 0.22080  0.02215  0.34030  Biso   1.000  N
  N159     1.0000 0.52215  0.72080  0.15970  Biso   1.000  N
  N160     1.0000 0.77920  0.52215  0.15970  Biso   1.000  N
  N161     1.0000 0.47671  0.74327  0.49970  Biso   1.000  N
  N162     1.0000 0.75673  0.47671  0.49970  Biso   1.000  N
  N163     1.0000 0.97671  0.25673  0.00030  Biso   1.000  N
  N164     1.0000 0.02329  0.75673  0.49970  Biso   1.000  N
  N165     1.0000 0.24327  0.97671  0.00030  Biso   1.000  N
  N166     1.0000 0.74327  0.02329  0.49970  Biso   1.000  N
  N167     1.0000 0.52329  0.24327  0.00030  Biso   1.000  N
  N168     1.0000 0.25673  0.52329  0.00030  Biso   1.000  N
  N169     1.0000 0.52329  0.25673  0.50030  Biso   1.000  N
  N170     1.0000 0.24327  0.52329  0.50030  Biso   1.000  N
  N171     1.0000 0.02329  0.74327  0.99970  Biso   1.000  N
  N172     1.0000 0.97671  0.24327  0.50030  Biso   1.000  N
  N173     1.0000 0.75673  0.02329  0.99970  Biso   1.000  N
  N174     1.0000 0.25673  0.97671  0.50030  Biso   1.000  N
  N175     1.0000 0.47671  0.75673  0.99970  Biso   1.000  N
  N176     1.0000 0.74327  0.47671  0.99970  Biso   1.000  N
  N177     1.0000 0.51897  0.74275  0.47500  Biso   1.000  N
  N178     1.0000 0.75725  0.51897  0.47500  Biso   1.000  N
  N179     1.0000 0.01897  0.25725  0.02500  Biso   1.000  N
  N180     1.0000 0.98103  0.75725  0.47500  Biso   1.000  N
  N181     1.0000 0.24275  0.01897  0.02500  Biso   1.000  N
  N182     1.0000 0.74275  0.98103  0.47500  Biso   1.000  N
  N183     1.0000 0.48103  0.24275  0.02500  Biso   1.000  N
  N184     1.0000 0.25725  0.48103  0.02500  Biso   1.000  N
  N185     1.0000 0.48103  0.25725  0.52500  Biso   1.000  N
  N186     1.0000 0.24275  0.48103  0.52500  Biso   1.000  N
  N187     1.0000 0.98103  0.74275  0.97500  Biso   1.000  N
  N188     1.0000 0.01897  0.24275  0.52500  Biso   1.000  N
  N189     1.0000 0.75725  0.98103  0.97500  Biso   1.000  N
  N190     1.0000 0.25725  0.01897  0.52500  Biso   1.000  N
  N191     1.0000 0.51897  0.75725  0.97500  Biso   1.000  N
  N192     1.0000 0.74275  0.51897  0.97500  Biso   1.000  N
  N193     1.0000 0.50843  0.62881  0.56400  Biso   1.000  N
  N194     1.0000 0.87119  0.50843  0.56400  Biso   1.000  N
  N195     1.0000 0.00843  0.37119  0.93600  Biso   1.000  N
  N196     1.0000 0.99157  0.87119  0.56400  Biso   1.000  N
  N197     1.0000 0.12881  0.00843  0.93600  Biso   1.000  N
  N198     1.0000 0.62881  0.99157  0.56400  Biso   1.000  N
  N199     1.0000 0.49157  0.12881  0.93600  Biso   1.000  N
  N200     1.0000 0.37119  0.49157  0.93600  Biso   1.000  N
  N201     1.0000 0.49157  0.37119  0.43600  Biso   1.000  N
  N202     1.0000 0.12881  0.49157  0.43600  Biso   1.000  N
  N203     1.0000 0.99157  0.62881  0.06400  Biso   1.000  N
  N204     1.0000 0.00843  0.12881  0.43600  Biso   1.000  N
  N205     1.0000 0.87119  0.99157  0.06400  Biso   1.000  N
  N206     1.0000 0.37119  0.00843  0.43600  Biso   1.000  N
  N207     1.0000 0.50843  0.87119  0.06400  Biso   1.000  N
  N208     1.0000 0.62881  0.50843  0.06400  Biso   1.000  N
  N209     1.0000 0.53361  0.66129  0.53659  Biso   1.000  N
  N210     1.0000 0.83871  0.53361  0.53659  Biso   1.000  N
  N211     1.0000 0.03361  0.33871  0.96341  Biso   1.000  N
  N212     1.0000 0.96639  0.83871  0.53659  Biso   1.000  N
  N213     1.0000 0.16129  0.03361  0.96341  Biso   1.000  N
  N214     1.0000 0.66129  0.96639  0.53659  Biso   1.000  N
  N215     1.0000 0.46639  0.16129  0.96341  Biso   1.000  N
  N216     1.0000 0.33871  0.46639  0.96341  Biso   1.000  N
  N217     1.0000 0.46639  0.33871  0.46341  Biso   1.000  N
  N218     1.0000 0.16129  0.46639  0.46341  Biso   1.000  N
  N219     1.0000 0.96639  0.66129  0.03659  Biso   1.000  N
  N220     1.0000 0.03361  0.16129  0.46341  Biso   1.000  N
  N221     1.0000 0.83871  0.96639  0.03659  Biso   1.000  N
  N222     1.0000 0.33871  0.03361  0.46341  Biso   1.000  N
  N223     1.0000 0.53361  0.83871  0.03659  Biso   1.000  N
  N224     1.0000 0.66129  0.53361  0.03659  Biso   1.000  N
  N225     1.0000 0.47437  0.69064  0.68710  Biso   1.000  N
  N226     1.0000 0.80936  0.47437  0.68710  Biso   1.000  N
  N227     1.0000 0.97437  0.30936  0.81290  Biso   1.000  N
  N228     1.0000 0.02563  0.80936  0.68710  Biso   1.000  N
  N229     1.0000 0.19064  0.97437  0.81290  Biso   1.000  N
  N230     1.0000 0.69064  0.02563  0.68710  Biso   1.000  N
  N231     1.0000 0.52563  0.19064  0.81290  Biso   1.000  N
  N232     1.0000 0.30936  0.52563  0.81290  Biso   1.000  N
  N233     1.0000 0.52563  0.30936  0.31290  Biso   1.000  N
  N234     1.0000 0.19064  0.52563  0.31290  Biso   1.000  N
  N235     1.0000 0.02563  0.69064  0.18710  Biso   1.000  N
  N236     1.0000 0.97437  0.19064  0.31290  Biso   1.000  N
  N237     1.0000 0.80936  0.02563  0.18710  Biso   1.000  N
  N238     1.0000 0.30936  0.97437  0.31290  Biso   1.000  N
  N239     1.0000 0.47437  0.80936  0.18710  Biso   1.000  N
  N240     1.0000 0.69064  0.47437  0.18710  Biso   1.000  N
  N241     1.0000 0.51290  0.70394  0.71950  Biso   1.000  N
  N242     1.0000 0.79606  0.51290  0.71950  Biso   1.000  N
  N243     1.0000 0.01290  0.29606  0.78050  Biso   1.000  N
  N244     1.0000 0.98710  0.79606  0.71950  Biso   1.000  N
  N245     1.0000 0.20394  0.01290  0.78050  Biso   1.000  N
  N246     1.0000 0.70394  0.98710  0.71950  Biso   1.000  N
  N247     1.0000 0.48710  0.20394  0.78050  Biso   1.000  N
  N248     1.0000 0.29606  0.48710  0.78050  Biso   1.000  N
  N249     1.0000 0.48710  0.29606  0.28050  Biso   1.000  N
  N250     1.0000 0.20394  0.48710  0.28050  Biso   1.000  N
  N251     1.0000 0.98710  0.70394  0.21950  Biso   1.000  N
  N252     1.0000 0.01290  0.20394  0.28050  Biso   1.000  N
  N253     1.0000 0.79606  0.98710  0.21950  Biso   1.000  N
  N254     1.0000 0.29606  0.01290  0.28050  Biso   1.000  N
  N255     1.0000 0.51290  0.79606  0.21950  Biso   1.000  N
  N256     1.0000 0.70394  0.51290  0.21950  Biso   1.000  N
  O1       1.0000 0.64255  0.44468  0.57331  Biso   1.000  O
  O2       1.0000 0.05532  0.64255  0.57331  Biso   1.000  O
  O3       1.0000 0.14255  0.55532  0.92669  Biso   1.000  O
  O4       1.0000 0.85745  0.05532  0.57331  Biso   1.000  O
  O5       1.0000 0.94468  0.14255  0.92669  Biso   1.000  O
  O6       1.0000 0.44468  0.85745  0.57331  Biso   1.000  O
  O7       1.0000 0.35745  0.94468  0.92669  Biso   1.000  O
  O8       1.0000 0.55532  0.35745  0.92669  Biso   1.000  O
  O9       1.0000 0.35745  0.55532  0.42669  Biso   1.000  O
  O10      1.0000 0.94468  0.35745  0.42669  Biso   1.000  O
  O11      1.0000 0.85745  0.44468  0.07331  Biso   1.000  O
  O12      1.0000 0.14255  0.94468  0.42669  Biso   1.000  O
  O13      1.0000 0.05532  0.85745  0.07331  Biso   1.000  O
  O14      1.0000 0.55532  0.14255  0.42669  Biso   1.000  O
  O15      1.0000 0.64255  0.05532  0.07331  Biso   1.000  O
  O16      1.0000 0.44468  0.64255  0.07331  Biso   1.000  O
  O17      1.0000 0.62621  0.44899  0.63507  Biso   1.000  O
  O18      1.0000 0.05101  0.62621  0.63507  Biso   1.000  O
  O19      1.0000 0.12621  0.55101  0.86493  Biso   1.000  O
  O20      1.0000 0.87379  0.05101  0.63507  Biso   1.000  O
  O21      1.0000 0.94899  0.12621  0.86493  Biso   1.000  O
  O22      1.0000 0.44899  0.87379  0.63507  Biso   1.000  O
  O23      1.0000 0.37379  0.94899  0.86493  Biso   1.000  O
  O24      1.0000 0.55101  0.37379  0.86493  Biso   1.000  O
  O25      1.0000 0.37379  0.55101  0.36493  Biso   1.000  O
  O26      1.0000 0.94899  0.37379  0.36493  Biso   1.000  O
  O27      1.0000 0.87379  0.44899  0.13507  Biso   1.000  O
  O28      1.0000 0.12621  0.94899  0.36493  Biso   1.000  O
  O29      1.0000 0.05101  0.87379  0.13507  Biso   1.000  O
  O30      1.0000 0.55101  0.12621  0.36493  Biso   1.000  O
  O31      1.0000 0.62621  0.05101  0.13507  Biso   1.000  O
  O32      1.0000 0.44899  0.62621  0.13507  Biso   1.000  O
  O33      1.0000 0.47363  0.57854  0.64139  Biso   1.000  O
  O34      1.0000 0.92146  0.47363  0.64139  Biso   1.000  O
  O35      1.0000 0.97363  0.42146  0.85861  Biso   1.000  O
  O36      1.0000 0.02637  0.92146  0.64139  Biso   1.000  O
  O37      1.0000 0.07854  0.97363  0.85861  Biso   1.000  O
  O38      1.0000 0.57854  0.02637  0.64139  Biso   1.000  O
  O39      1.0000 0.52637  0.07854  0.85861  Biso   1.000  O
  O40      1.0000 0.42146  0.52637  0.85861  Biso   1.000  O
  O41      1.0000 0.52637  0.42146  0.35861  Biso   1.000  O
  O42      1.0000 0.07854  0.52637  0.35861  Biso   1.000  O
  O43      1.0000 0.02637  0.57854  0.14139  Biso   1.000  O
  O44      1.0000 0.97363  0.07854  0.35861  Biso   1.000  O
  O45      1.0000 0.92146  0.02637  0.14139  Biso   1.000  O
  O46      1.0000 0.42146  0.97363  0.35861  Biso   1.000  O
  O47      1.0000 0.47363  0.92146  0.14139  Biso   1.000  O
  O48      1.0000 0.57854  0.47363  0.14139  Biso   1.000  O
  O49      1.0000 0.49282  0.54428  0.60596  Biso   1.000  O
  O50      1.0000 0.95572  0.49282  0.60596  Biso   1.000  O
  O51      1.0000 0.99282  0.45572  0.89404  Biso   1.000  O
  O52      1.0000 0.00718  0.95572  0.60596  Biso   1.000  O
  O53      1.0000 0.04428  0.99282  0.89404  Biso   1.000  O
  O54      1.0000 0.54428  0.00718  0.60596  Biso   1.000  O
  O55      1.0000 0.50718  0.04428  0.89404  Biso   1.000  O
  O56      1.0000 0.45572  0.50718  0.89404  Biso   1.000  O
  O57      1.0000 0.50718  0.45572  0.39404  Biso   1.000  O
  O58      1.0000 0.04428  0.50718  0.39404  Biso   1.000  O
  O59      1.0000 0.00718  0.54428  0.10596  Biso   1.000  O
  O60      1.0000 0.99282  0.04428  0.39404  Biso   1.000  O
  O61      1.0000 0.95572  0.00718  0.10596  Biso   1.000  O
  O62      1.0000 0.45572  0.99282  0.39404  Biso   1.000  O
  O63      1.0000 0.49282  0.95572  0.10596  Biso   1.000  O
  O64      1.0000 0.54428  0.49282  0.10596  Biso   1.000  O
  O65      1.0000 0.43947  0.63015  0.60755  Biso   1.000  O
  O66      1.0000 0.86985  0.43947  0.60755  Biso   1.000  O
  O67      1.0000 0.93947  0.36985  0.89245  Biso   1.000  O
  O68      1.0000 0.06053  0.86985  0.60755  Biso   1.000  O
  O69      1.0000 0.13015  0.93947  0.89245  Biso   1.000  O
  O70      1.0000 0.63015  0.06053  0.60755  Biso   1.000  O
  O71      1.0000 0.56053  0.13015  0.89245  Biso   1.000  O
  O72      1.0000 0.36985  0.56053  0.89245  Biso   1.000  O
  O73      1.0000 0.56053  0.36985  0.39245  Biso   1.000  O
  O74      1.0000 0.13015  0.56053  0.39245  Biso   1.000  O
  O75      1.0000 0.06053  0.63015  0.10755  Biso   1.000  O
  O76      1.0000 0.93947  0.13015  0.39245  Biso   1.000  O
  O77      1.0000 0.86985  0.06053  0.10755  Biso   1.000  O
  O78      1.0000 0.36985  0.93947  0.39245  Biso   1.000  O
  O79      1.0000 0.43947  0.86985  0.10755  Biso   1.000  O
  O80      1.0000 0.63015  0.43947  0.10755  Biso   1.000  O
  O81      1.0000 0.45968  0.59911  0.56810  Biso   1.000  O
  O82      1.0000 0.90089  0.45968  0.56810  Biso   1.000  O
  O83      1.0000 0.95968  0.40089  0.93190  Biso   1.000  O
  O84      1.0000 0.04032  0.90089  0.56810  Biso   1.000  O
  O85      1.0000 0.09911  0.95968  0.93190  Biso   1.000  O
  O86      1.0000 0.59911  0.04032  0.56810  Biso   1.000  O
  O87      1.0000 0.54032  0.09911  0.93190  Biso   1.000  O
  O88      1.0000 0.40089  0.54032  0.93190  Biso   1.000  O
  O89      1.0000 0.54032  0.40089  0.43190  Biso   1.000  O
  O90      1.0000 0.09911  0.54032  0.43190  Biso   1.000  O
  O91      1.0000 0.04032  0.59911  0.06810  Biso   1.000  O
  O92      1.0000 0.95968  0.09911  0.43190  Biso   1.000  O
  O93      1.0000 0.90089  0.04032  0.06810  Biso   1.000  O
  O94      1.0000 0.40089  0.95968  0.43190  Biso   1.000  O
  O95      1.0000 0.45968  0.90089  0.06810  Biso   1.000  O
  O96      1.0000 0.59911  0.45968  0.06810  Biso   1.000  O
  O97      1.0000 0.42532  0.79656  0.55920  Biso   1.000  O
  O98      1.0000 0.70344  0.42532  0.55920  Biso   1.000  O
  O99      1.0000 0.92532  0.20344  0.94080  Biso   1.000  O
  O100     1.0000 0.07468  0.70344  0.55920  Biso   1.000  O
  O101     1.0000 0.29656  0.92532  0.94080  Biso   1.000  O
  O102     1.0000 0.79656  0.07468  0.55920  Biso   1.000  O
  O103     1.0000 0.57468  0.29656  0.94080  Biso   1.000  O
  O104     1.0000 0.20344  0.57468  0.94080  Biso   1.000  O
  O105     1.0000 0.57468  0.20344  0.44080  Biso   1.000  O
  O106     1.0000 0.29656  0.57468  0.44080  Biso   1.000  O
  O107     1.0000 0.07468  0.79656  0.05920  Biso   1.000  O
  O108     1.0000 0.92532  0.29656  0.44080  Biso   1.000  O
  O109     1.0000 0.70344  0.07468  0.05920  Biso   1.000  O
  O110     1.0000 0.20344  0.92532  0.44080  Biso   1.000  O
  O111     1.0000 0.42532  0.70344  0.05920  Biso   1.000  O
  O112     1.0000 0.79656  0.42532  0.05920  Biso   1.000  O
  O113     1.0000 0.43021  0.81384  0.61990  Biso   1.000  O
  O114     1.0000 0.68616  0.43021  0.61990  Biso   1.000  O
  O115     1.0000 0.93021  0.18616  0.88010  Biso   1.000  O
  O116     1.0000 0.06979  0.68616  0.61990  Biso   1.000  O
  O117     1.0000 0.31384  0.93021  0.88010  Biso   1.000  O
  O118     1.0000 0.81384  0.06979  0.61990  Biso   1.000  O
  O119     1.0000 0.56979  0.31384  0.88010  Biso   1.000  O
  O120     1.0000 0.18616  0.56979  0.88010  Biso   1.000  O
  O121     1.0000 0.56979  0.18616  0.38010  Biso   1.000  O
  O122     1.0000 0.31384  0.56979  0.38010  Biso   1.000  O
  O123     1.0000 0.06979  0.81384  0.11990  Biso   1.000  O
  O124     1.0000 0.93021  0.31384  0.38010  Biso   1.000  O
  O125     1.0000 0.68616  0.06979  0.11990  Biso   1.000  O
  O126     1.0000 0.18616  0.93021  0.38010  Biso   1.000  O
  O127     1.0000 0.43021  0.68616  0.11990  Biso   1.000  O
  O128     1.0000 0.81384  0.43021  0.11990  Biso   1.000  O
  C1       1.0000 0.55015  0.60441  0.63360  Biso   1.000  C
  C2       1.0000 0.89559  0.55015  0.63360  Biso   1.000  C
  C3       1.0000 0.05015  0.39559  0.86640  Biso   1.000  C
  C4       1.0000 0.94985  0.89559  0.63360  Biso   1.000  C
  C5       1.0000 0.10441  0.05015  0.86640  Biso   1.000  C
  C6       1.0000 0.60441  0.94985  0.63360  Biso   1.000  C
  C7       1.0000 0.44985  0.10441  0.86640  Biso   1.000  C
  C8       1.0000 0.39559  0.44985  0.86640  Biso   1.000  C
  C9       1.0000 0.44985  0.39559  0.36640  Biso   1.000  C
  C10      1.0000 0.10441  0.44985  0.36640  Biso   1.000  C
  C11      1.0000 0.94985  0.60441  0.13360  Biso   1.000  C
  C12      1.0000 0.05015  0.10441  0.36640  Biso   1.000  C
  C13      1.0000 0.89559  0.94985  0.13360  Biso   1.000  C
  C14      1.0000 0.39559  0.05015  0.36640  Biso   1.000  C
  C15      1.0000 0.55015  0.89559  0.13360  Biso   1.000  C
  C16      1.0000 0.60441  0.55015  0.13360  Biso   1.000  C
  C17      1.0000 0.52036  0.61610  0.68110  Biso   1.000  C
  C18      1.0000 0.88390  0.52036  0.68110  Biso   1.000  C
  C19      1.0000 0.02036  0.38390  0.81890  Biso   1.000  C
  C20      1.0000 0.97964  0.88390  0.68110  Biso   1.000  C
  C21      1.0000 0.11610  0.02036  0.81890  Biso   1.000  C
  C22      1.0000 0.61610  0.97964  0.68110  Biso   1.000  C
  C23      1.0000 0.47964  0.11610  0.81890  Biso   1.000  C
  C24      1.0000 0.38390  0.47964  0.81890  Biso   1.000  C
  C25      1.0000 0.47964  0.38390  0.31890  Biso   1.000  C
  C26      1.0000 0.11610  0.47964  0.31890  Biso   1.000  C
  C27      1.0000 0.97964  0.61610  0.18110  Biso   1.000  C
  C28      1.0000 0.02036  0.11610  0.31890  Biso   1.000  C
  C29      1.0000 0.88390  0.97964  0.18110  Biso   1.000  C
  C30      1.0000 0.38390  0.02036  0.31890  Biso   1.000  C
  C31      1.0000 0.52036  0.88390  0.18110  Biso   1.000  C
  C32      1.0000 0.61610  0.52036  0.18110  Biso   1.000  C
  C33      1.0000 0.49652  0.62319  0.70200  Biso   1.000  C
  C34      1.0000 0.87681  0.49652  0.70200  Biso   1.000  C
  C35      1.0000 0.99652  0.37681  0.79800  Biso   1.000  C
  C36      1.0000 0.00348  0.87681  0.70200  Biso   1.000  C
  C37      1.0000 0.12319  0.99652  0.79800  Biso   1.000  C
  C38      1.0000 0.62319  0.00348  0.70200  Biso   1.000  C
  C39      1.0000 0.50348  0.12319  0.79800  Biso   1.000  C
  C40      1.0000 0.37681  0.50348  0.79800  Biso   1.000  C
  C41      1.0000 0.50348  0.37681  0.29800  Biso   1.000  C
  C42      1.0000 0.12319  0.50348  0.29800  Biso   1.000  C
  C43      1.0000 0.00348  0.62319  0.20200  Biso   1.000  C
  C44      1.0000 0.99652  0.12319  0.29800  Biso   1.000  C
  C45      1.0000 0.87681  0.00348  0.20200  Biso   1.000  C
  C46      1.0000 0.37681  0.99652  0.29800  Biso   1.000  C
  C47      1.0000 0.49652  0.87681  0.20200  Biso   1.000  C
  C48      1.0000 0.62319  0.49652  0.20200  Biso   1.000  C
  H1       1.0000 0.47890  0.62120  0.69050  Biso   1.000  H
  H2       1.0000 0.87880  0.47890  0.69050  Biso   1.000  H
  H3       1.0000 0.97890  0.37880  0.80950  Biso   1.000  H
  H4       1.0000 0.02110  0.87880  0.69050  Biso   1.000  H
  H5       1.0000 0.12120  0.97890  0.80950  Biso   1.000  H
  H6       1.0000 0.62120  0.02110  0.69050  Biso   1.000  H
  H7       1.0000 0.52110  0.12120  0.80950  Biso   1.000  H
  H8       1.0000 0.37880  0.52110  0.80950  Biso   1.000  H
  H9       1.0000 0.52110  0.37880  0.30950  Biso   1.000  H
  H10      1.0000 0.12120  0.52110  0.30950  Biso   1.000  H
  H11      1.0000 0.02110  0.62120  0.19050  Biso   1.000  H
  H12      1.0000 0.97890  0.12120  0.30950  Biso   1.000  H
  H13      1.0000 0.87880  0.02110  0.19050  Biso   1.000  H
  H14      1.0000 0.37880  0.97890  0.30950  Biso   1.000  H
  H15      1.0000 0.47890  0.87880  0.19050  Biso   1.000  H
  H16      1.0000 0.62120  0.47890  0.19050  Biso   1.000  H
  C49      1.0000 0.49990  0.63339  0.74080  Biso   1.000  C
  C50      1.0000 0.86661  0.49990  0.74080  Biso   1.000  C
  C51      1.0000 0.99990  0.36661  0.75920  Biso   1.000  C
  C52      1.0000 0.00010  0.86661  0.74080  Biso   1.000  C
  C53      1.0000 0.13339  0.99990  0.75920  Biso   1.000  C
  C54      1.0000 0.63339  0.00010  0.74080  Biso   1.000  C
  C55      1.0000 0.50010  0.13339  0.75920  Biso   1.000  C
  C56      1.0000 0.36661  0.50010  0.75920  Biso   1.000  C
  C57      1.0000 0.50010  0.36661  0.25920  Biso   1.000  C
  C58      1.0000 0.13339  0.50010  0.25920  Biso   1.000  C
  C59      1.0000 0.00010  0.63339  0.24080  Biso   1.000  C
  C60      1.0000 0.99990  0.13339  0.25920  Biso   1.000  C
  C61      1.0000 0.86661  0.00010  0.24080  Biso   1.000  C
  C62      1.0000 0.36661  0.99990  0.25920  Biso   1.000  C
  C63      1.0000 0.49990  0.86661  0.24080  Biso   1.000  C
  C64      1.0000 0.63339  0.49990  0.24080  Biso   1.000  C
  H17      1.0000 0.48440  0.63910  0.75560  Biso   1.000  H
  H18      1.0000 0.86090  0.48440  0.75560  Biso   1.000  H
  H19      1.0000 0.98440  0.36090  0.74440  Biso   1.000  H
  H20      1.0000 0.01560  0.86090  0.75560  Biso   1.000  H
  H21      1.0000 0.13910  0.98440  0.74440  Biso   1.000  H
  H22      1.0000 0.63910  0.01560  0.75560  Biso   1.000  H
  H23      1.0000 0.51560  0.13910  0.74440  Biso   1.000  H
  H24      1.0000 0.36090  0.51560  0.74440  Biso   1.000  H
  H25      1.0000 0.51560  0.36090  0.24440  Biso   1.000  H
  H26      1.0000 0.13910  0.51560  0.24440  Biso   1.000  H
  H27      1.0000 0.01560  0.63910  0.25560  Biso   1.000  H
  H28      1.0000 0.98440  0.13910  0.24440  Biso   1.000  H
  H29      1.0000 0.86090  0.01560  0.25560  Biso   1.000  H
  H30      1.0000 0.36090  0.98440  0.24440  Biso   1.000  H
  H31      1.0000 0.48440  0.86090  0.25560  Biso   1.000  H
  H32      1.0000 0.63910  0.48440  0.25560  Biso   1.000  H
  C65      1.0000 0.52660  0.63523  0.75810  Biso   1.000  C
  C66      1.0000 0.86477  0.52660  0.75810  Biso   1.000  C
  C67      1.0000 0.02660  0.36477  0.74190  Biso   1.000  C
  C68      1.0000 0.97340  0.86477  0.75810  Biso   1.000  C
  C69      1.0000 0.13523  0.02660  0.74190  Biso   1.000  C
  C70      1.0000 0.63523  0.97340  0.75810  Biso   1.000  C
  C71      1.0000 0.47340  0.13523  0.74190  Biso   1.000  C
  C72      1.0000 0.36477  0.47340  0.74190  Biso   1.000  C
  C73      1.0000 0.47340  0.36477  0.24190  Biso   1.000  C
  C74      1.0000 0.13523  0.47340  0.24190  Biso   1.000  C
  C75      1.0000 0.97340  0.63523  0.25810  Biso   1.000  C
  C76      1.0000 0.02660  0.13523  0.24190  Biso   1.000  C
  C77      1.0000 0.86477  0.97340  0.25810  Biso   1.000  C
  C78      1.0000 0.36477  0.02660  0.24190  Biso   1.000  C
  C79      1.0000 0.52660  0.86477  0.25810  Biso   1.000  C
  C80      1.0000 0.63523  0.52660  0.25810  Biso   1.000  C
  H33      1.0000 0.52860  0.64130  0.78460  Biso   1.000  H
  H34      1.0000 0.85870  0.52860  0.78460  Biso   1.000  H
  H35      1.0000 0.02860  0.35870  0.71540  Biso   1.000  H
  H36      1.0000 0.97140  0.85870  0.78460  Biso   1.000  H
  H37      1.0000 0.14130  0.02860  0.71540  Biso   1.000  H
  H38      1.0000 0.64130  0.97140  0.78460  Biso   1.000  H
  H39      1.0000 0.47140  0.14130  0.71540  Biso   1.000  H
  H40      1.0000 0.35870  0.47140  0.71540  Biso   1.000  H
  H41      1.0000 0.47140  0.35870  0.21540  Biso   1.000  H
  H42      1.0000 0.14130  0.47140  0.21540  Biso   1.000  H
  H43      1.0000 0.97140  0.64130  0.28460  Biso   1.000  H
  H44      1.0000 0.02860  0.14130  0.21540  Biso   1.000  H
  H45      1.0000 0.85870  0.97140  0.28460  Biso   1.000  H
  H46      1.0000 0.35870  0.02860  0.21540  Biso   1.000  H
  H47      1.0000 0.52860  0.85870  0.28460  Biso   1.000  H
  H48      1.0000 0.64130  0.52860  0.28460  Biso   1.000  H
  C81      1.0000 0.54980  0.62817  0.73610  Biso   1.000  C
  C82      1.0000 0.87183  0.54980  0.73610  Biso   1.000  C
  C83      1.0000 0.04980  0.37183  0.76390  Biso   1.000  C
  C84      1.0000 0.95020  0.87183  0.73610  Biso   1.000  C
  C85      1.0000 0.12817  0.04980  0.76390  Biso   1.000  C
  C86      1.0000 0.62817  0.95020  0.73610  Biso   1.000  C
  C87      1.0000 0.45020  0.12817  0.76390  Biso   1.000  C
  C88      1.0000 0.37183  0.45020  0.76390  Biso   1.000  C
  C89      1.0000 0.45020  0.37183  0.26390  Biso   1.000  C
  C90      1.0000 0.12817  0.45020  0.26390  Biso   1.000  C
  C91      1.0000 0.95020  0.62817  0.23610  Biso   1.000  C
  C92      1.0000 0.04980  0.12817  0.26390  Biso   1.000  C
  C93      1.0000 0.87183  0.95020  0.23610  Biso   1.000  C
  C94      1.0000 0.37183  0.04980  0.26390  Biso   1.000  C
  C95      1.0000 0.54980  0.87183  0.23610  Biso   1.000  C
  C96      1.0000 0.62817  0.54980  0.23610  Biso   1.000  C
  H49      1.0000 0.56730  0.62980  0.74790  Biso   1.000  H
  H50      1.0000 0.87020  0.56730  0.74790  Biso   1.000  H
  H51      1.0000 0.06730  0.37020  0.75210  Biso   1.000  H
  H52      1.0000 0.93270  0.87020  0.74790  Biso   1.000  H
  H53      1.0000 0.12980  0.06730  0.75210  Biso   1.000  H
  H54      1.0000 0.62980  0.93270  0.74790  Biso   1.000  H
  H55      1.0000 0.43270  0.12980  0.75210  Biso   1.000  H
  H56      1.0000 0.37020  0.43270  0.75210  Biso   1.000  H
  H57      1.0000 0.43270  0.37020  0.25210  Biso   1.000  H
  H58      1.0000 0.12980  0.43270  0.25210  Biso   1.000  H
  H59      1.0000 0.93270  0.62980  0.24790  Biso   1.000  H
  H60      1.0000 0.06730  0.12980  0.25210  Biso   1.000  H
  H61      1.0000 0.87020  0.93270  0.24790  Biso   1.000  H
  H62      1.0000 0.37020  0.06730  0.25210  Biso   1.000  H
  H63      1.0000 0.56730  0.87020  0.24790  Biso   1.000  H
  H64      1.0000 0.62980  0.56730  0.24790  Biso   1.000  H
  C97      1.0000 0.54760  0.61873  0.69700  Biso   1.000  C
  C98      1.0000 0.88127  0.54760  0.69700  Biso   1.000  C
  C99      1.0000 0.04760  0.38127  0.80300  Biso   1.000  C
  C100     1.0000 0.95240  0.88127  0.69700  Biso   1.000  C
  C101     1.0000 0.11873  0.04760  0.80300  Biso   1.000  C
  C102     1.0000 0.61873  0.95240  0.69700  Biso   1.000  C
  C103     1.0000 0.45240  0.11873  0.80300  Biso   1.000  C
  C104     1.0000 0.38127  0.45240  0.80300  Biso   1.000  C
  C105     1.0000 0.45240  0.38127  0.30300  Biso   1.000  C
  C106     1.0000 0.11873  0.45240  0.30300  Biso   1.000  C
  C107     1.0000 0.95240  0.61873  0.19700  Biso   1.000  C
  C108     1.0000 0.04760  0.11873  0.30300  Biso   1.000  C
  C109     1.0000 0.88127  0.95240  0.19700  Biso   1.000  C
  C110     1.0000 0.38127  0.04760  0.30300  Biso   1.000  C
  C111     1.0000 0.54760  0.88127  0.19700  Biso   1.000  C
  C112     1.0000 0.61873  0.54760  0.19700  Biso   1.000  C
  C113     1.0000 0.59471  0.60925  0.67340  Biso   1.000  C
  C114     1.0000 0.89075  0.59471  0.67340  Biso   1.000  C
  C115     1.0000 0.09471  0.39075  0.82660  Biso   1.000  C
  C116     1.0000 0.90529  0.89075  0.67340  Biso   1.000  C
  C117     1.0000 0.10925  0.09471  0.82660  Biso   1.000  C
  C118     1.0000 0.60925  0.90529  0.67340  Biso   1.000  C
  C119     1.0000 0.40529  0.10925  0.82660  Biso   1.000  C
  C120     1.0000 0.39075  0.40529  0.82660  Biso   1.000  C
  C121     1.0000 0.40529  0.39075  0.32660  Biso   1.000  C
  C122     1.0000 0.10925  0.40529  0.32660  Biso   1.000  C
  C123     1.0000 0.90529  0.60925  0.17340  Biso   1.000  C
  C124     1.0000 0.09471  0.10925  0.32660  Biso   1.000  C
  C125     1.0000 0.89075  0.90529  0.17340  Biso   1.000  C
  C126     1.0000 0.39075  0.09471  0.32660  Biso   1.000  C
  C127     1.0000 0.59471  0.89075  0.17340  Biso   1.000  C
  C128     1.0000 0.60925  0.59471  0.17340  Biso   1.000  C
  H65      1.0000 0.60270  0.59630  0.65460  Biso   1.000  H
  H66      1.0000 0.90370  0.60270  0.65460  Biso   1.000  H
  H67      1.0000 0.10270  0.40370  0.84540  Biso   1.000  H
  H68      1.0000 0.89730  0.90370  0.65460  Biso   1.000  H
  H69      1.0000 0.09630  0.10270  0.84540  Biso   1.000  H
  H70      1.0000 0.59630  0.89730  0.65460  Biso   1.000  H
  H71      1.0000 0.39730  0.09630  0.84540  Biso   1.000  H
  H72      1.0000 0.40370  0.39730  0.84540  Biso   1.000  H
  H73      1.0000 0.39730  0.40370  0.34540  Biso   1.000  H
  H74      1.0000 0.09630  0.39730  0.34540  Biso   1.000  H
  H75      1.0000 0.89730  0.59630  0.15460  Biso   1.000  H
  H76      1.0000 0.10270  0.09630  0.34540  Biso   1.000  H
  H77      1.0000 0.90370  0.89730  0.15460  Biso   1.000  H
  H78      1.0000 0.40370  0.10270  0.34540  Biso   1.000  H
  H79      1.0000 0.60270  0.90370  0.15460  Biso   1.000  H
  H80      1.0000 0.59630  0.60270  0.15460  Biso   1.000  H
  H81      1.0000 0.59830  0.60300  0.70050  Biso   1.000  H
  H82      1.0000 0.89700  0.59830  0.70050  Biso   1.000  H
  H83      1.0000 0.09830  0.39700  0.79950  Biso   1.000  H
  H84      1.0000 0.90170  0.89700  0.70050  Biso   1.000  H
  H85      1.0000 0.10300  0.09830  0.79950  Biso   1.000  H
  H86      1.0000 0.60300  0.90170  0.70050  Biso   1.000  H
  H87      1.0000 0.40170  0.10300  0.79950  Biso   1.000  H
  H88      1.0000 0.39700  0.40170  0.79950  Biso   1.000  H
  H89      1.0000 0.40170  0.39700  0.29950  Biso   1.000  H
  H90      1.0000 0.10300  0.40170  0.29950  Biso   1.000  H
  H91      1.0000 0.90170  0.60300  0.20050  Biso   1.000  H
  H92      1.0000 0.09830  0.10300  0.29950  Biso   1.000  H
  H93      1.0000 0.89700  0.90170  0.20050  Biso   1.000  H
  H94      1.0000 0.39700  0.09830  0.29950  Biso   1.000  H
  H95      1.0000 0.59830  0.89700  0.20050  Biso   1.000  H
  H96      1.0000 0.60300  0.59830  0.20050  Biso   1.000  H
  H97      1.0000 0.60290  0.62730  0.66950  Biso   1.000  H
  H98      1.0000 0.87270  0.60290  0.66950  Biso   1.000  H
  H99      1.0000 0.10290  0.37270  0.83050  Biso   1.000  H
  H100     1.0000 0.89710  0.87270  0.66950  Biso   1.000  H
  H101     1.0000 0.12730  0.10290  0.83050  Biso   1.000  H
  H102     1.0000 0.62730  0.89710  0.66950  Biso   1.000  H
  H103     1.0000 0.39710  0.12730  0.83050  Biso   1.000  H
  H104     1.0000 0.37270  0.39710  0.83050  Biso   1.000  H
  H105     1.0000 0.39710  0.37270  0.33050  Biso   1.000  H
  H106     1.0000 0.12730  0.39710  0.33050  Biso   1.000  H
  H107     1.0000 0.89710  0.62730  0.16950  Biso   1.000  H
  H108     1.0000 0.10290  0.12730  0.33050  Biso   1.000  H
  H109     1.0000 0.87270  0.89710  0.16950  Biso   1.000  H
  H110     1.0000 0.37270  0.10290  0.33050  Biso   1.000  H
  H111     1.0000 0.60290  0.87270  0.16950  Biso   1.000  H
  H112     1.0000 0.62730  0.60290  0.16950  Biso   1.000  H
  C129     1.0000 0.56217  0.59717  0.59580  Biso   1.000  C
  C130     1.0000 0.90283  0.56217  0.59580  Biso   1.000  C
  C131     1.0000 0.06217  0.40283  0.90420  Biso   1.000  C
  C132     1.0000 0.93783  0.90283  0.59580  Biso   1.000  C
  C133     1.0000 0.09717  0.06217  0.90420  Biso   1.000  C
  C134     1.0000 0.59717  0.93783  0.59580  Biso   1.000  C
  C135     1.0000 0.43783  0.09717  0.90420  Biso   1.000  C
  C136     1.0000 0.40283  0.43783  0.90420  Biso   1.000  C
  C137     1.0000 0.43783  0.40283  0.40420  Biso   1.000  C
  C138     1.0000 0.09717  0.43783  0.40420  Biso   1.000  C
  C139     1.0000 0.93783  0.59717  0.09580  Biso   1.000  C
  C140     1.0000 0.06217  0.09717  0.40420  Biso   1.000  C
  C141     1.0000 0.90283  0.93783  0.09580  Biso   1.000  C
  C142     1.0000 0.40283  0.06217  0.40420  Biso   1.000  C
  C143     1.0000 0.56217  0.90283  0.09580  Biso   1.000  C
  C144     1.0000 0.59717  0.56217  0.09580  Biso   1.000  C
  C145     1.0000 0.55203  0.57357  0.57780  Biso   1.000  C
  C146     1.0000 0.92643  0.55203  0.57780  Biso   1.000  C
  C147     1.0000 0.05203  0.42643  0.92220  Biso   1.000  C
  C148     1.0000 0.94797  0.92643  0.57780  Biso   1.000  C
  C149     1.0000 0.07357  0.05203  0.92220  Biso   1.000  C
  C150     1.0000 0.57357  0.94797  0.57780  Biso   1.000  C
  C151     1.0000 0.44797  0.07357  0.92220  Biso   1.000  C
  C152     1.0000 0.42643  0.44797  0.92220  Biso   1.000  C
  C153     1.0000 0.44797  0.42643  0.42220  Biso   1.000  C
  C154     1.0000 0.07357  0.44797  0.42220  Biso   1.000  C
  C155     1.0000 0.94797  0.57357  0.07780  Biso   1.000  C
  C156     1.0000 0.05203  0.07357  0.42220  Biso   1.000  C
  C157     1.0000 0.92643  0.94797  0.07780  Biso   1.000  C
  C158     1.0000 0.42643  0.05203  0.42220  Biso   1.000  C
  C159     1.0000 0.55203  0.92643  0.07780  Biso   1.000  C
  C160     1.0000 0.57357  0.55203  0.07780  Biso   1.000  C
  H113     1.0000 0.53880  0.56220  0.58990  Biso   1.000  H
  H114     1.0000 0.93780  0.53880  0.58990  Biso   1.000  H
  H115     1.0000 0.03880  0.43780  0.91010  Biso   1.000  H
  H116     1.0000 0.96120  0.93780  0.58990  Biso   1.000  H
  H117     1.0000 0.06220  0.03880  0.91010  Biso   1.000  H
  H118     1.0000 0.56220  0.96120  0.58990  Biso   1.000  H
  H119     1.0000 0.46120  0.06220  0.91010  Biso   1.000  H
  H120     1.0000 0.43780  0.46120  0.91010  Biso   1.000  H
  H121     1.0000 0.46120  0.43780  0.41010  Biso   1.000  H
  H122     1.0000 0.06220  0.46120  0.41010  Biso   1.000  H
  H123     1.0000 0.96120  0.56220  0.08990  Biso   1.000  H
  H124     1.0000 0.03880  0.06220  0.41010  Biso   1.000  H
  H125     1.0000 0.93780  0.96120  0.08990  Biso   1.000  H
  H126     1.0000 0.43780  0.03880  0.41010  Biso   1.000  H
  H127     1.0000 0.53880  0.93780  0.08990  Biso   1.000  H
  H128     1.0000 0.56220  0.53880  0.08990  Biso   1.000  H
  C161     1.0000 0.56267  0.56811  0.54110  Biso   1.000  C
  C162     1.0000 0.93189  0.56267  0.54110  Biso   1.000  C
  C163     1.0000 0.06267  0.43189  0.95890  Biso   1.000  C
  C164     1.0000 0.93733  0.93189  0.54110  Biso   1.000  C
  C165     1.0000 0.06811  0.06267  0.95890  Biso   1.000  C
  C166     1.0000 0.56811  0.93733  0.54110  Biso   1.000  C
  C167     1.0000 0.43733  0.06811  0.95890  Biso   1.000  C
  C168     1.0000 0.43189  0.43733  0.95890  Biso   1.000  C
  C169     1.0000 0.43733  0.43189  0.45890  Biso   1.000  C
  C170     1.0000 0.06811  0.43733  0.45890  Biso   1.000  C
  C171     1.0000 0.93733  0.56811  0.04110  Biso   1.000  C
  C172     1.0000 0.06267  0.06811  0.45890  Biso   1.000  C
  C173     1.0000 0.93189  0.93733  0.04110  Biso   1.000  C
  C174     1.0000 0.43189  0.06267  0.45890  Biso   1.000  C
  C175     1.0000 0.56267  0.93189  0.04110  Biso   1.000  C
  C176     1.0000 0.56811  0.56267  0.04110  Biso   1.000  C
  C177     1.0000 0.57378  0.55209  0.48070  Biso   1.000  C
  C178     1.0000 0.94791  0.57378  0.48070  Biso   1.000  C
  C179     1.0000 0.07378  0.44791  0.01930  Biso   1.000  C
  C180     1.0000 0.92622  0.94791  0.48070  Biso   1.000  C
  C181     1.0000 0.05209  0.07378  0.01930  Biso   1.000  C
  C182     1.0000 0.55209  0.92622  0.48070  Biso   1.000  C
  C183     1.0000 0.42622  0.05209  0.01930  Biso   1.000  C
  C184     1.0000 0.44791  0.42622  0.01930  Biso   1.000  C
  C185     1.0000 0.42622  0.44791  0.51930  Biso   1.000  C
  C186     1.0000 0.05209  0.42622  0.51930  Biso   1.000  C
  C187     1.0000 0.92622  0.55209  0.98070  Biso   1.000  C
  C188     1.0000 0.07378  0.05209  0.51930  Biso   1.000  C
  C189     1.0000 0.94791  0.92622  0.98070  Biso   1.000  C
  C190     1.0000 0.44791  0.07378  0.51930  Biso   1.000  C
  C191     1.0000 0.57378  0.94791  0.98070  Biso   1.000  C
  C192     1.0000 0.55209  0.57378  0.98070  Biso   1.000  C
  C193     1.0000 0.58240  0.58566  0.52260  Biso   1.000  C
  C194     1.0000 0.91434  0.58240  0.52260  Biso   1.000  C
  C195     1.0000 0.08240  0.41434  0.97740  Biso   1.000  C
  C196     1.0000 0.91760  0.91434  0.52260  Biso   1.000  C
  C197     1.0000 0.08566  0.08240  0.97740  Biso   1.000  C
  C198     1.0000 0.58566  0.91760  0.52260  Biso   1.000  C
  C199     1.0000 0.41760  0.08566  0.97740  Biso   1.000  C
  C200     1.0000 0.41434  0.41760  0.97740  Biso   1.000  C
  C201     1.0000 0.41760  0.41434  0.47740  Biso   1.000  C
  C202     1.0000 0.08566  0.41760  0.47740  Biso   1.000  C
  C203     1.0000 0.91760  0.58566  0.02260  Biso   1.000  C
  C204     1.0000 0.08240  0.08566  0.47740  Biso   1.000  C
  C205     1.0000 0.91434  0.91760  0.02260  Biso   1.000  C
  C206     1.0000 0.41434  0.08240  0.47740  Biso   1.000  C
  C207     1.0000 0.58240  0.91434  0.02260  Biso   1.000  C
  C208     1.0000 0.58566  0.58240  0.02260  Biso   1.000  C
  C209     1.0000 0.59210  0.60932  0.54130  Biso   1.000  C
  C210     1.0000 0.89068  0.59210  0.54130  Biso   1.000  C
  C211     1.0000 0.09210  0.39068  0.95870  Biso   1.000  C
  C212     1.0000 0.90790  0.89068  0.54130  Biso   1.000  C
  C213     1.0000 0.10932  0.09210  0.95870  Biso   1.000  C
  C214     1.0000 0.60932  0.90790  0.54130  Biso   1.000  C
  C215     1.0000 0.40790  0.10932  0.95870  Biso   1.000  C
  C216     1.0000 0.39068  0.40790  0.95870  Biso   1.000  C
  C217     1.0000 0.40790  0.39068  0.45870  Biso   1.000  C
  C218     1.0000 0.10932  0.40790  0.45870  Biso   1.000  C
  C219     1.0000 0.90790  0.60932  0.04130  Biso   1.000  C
  C220     1.0000 0.09210  0.10932  0.45870  Biso   1.000  C
  C221     1.0000 0.89068  0.90790  0.04130  Biso   1.000  C
  C222     1.0000 0.39068  0.09210  0.45870  Biso   1.000  C
  C223     1.0000 0.59210  0.89068  0.04130  Biso   1.000  C
  C224     1.0000 0.60932  0.59210  0.04130  Biso   1.000  C
  C225     1.0000 0.58182  0.61396  0.57780  Biso   1.000  C
  C226     1.0000 0.88604  0.58182  0.57780  Biso   1.000  C
  C227     1.0000 0.08182  0.38604  0.92220  Biso   1.000  C
  C228     1.0000 0.91818  0.88604  0.57780  Biso   1.000  C
  C229     1.0000 0.11396  0.08182  0.92220  Biso   1.000  C
  C230     1.0000 0.61396  0.91818  0.57780  Biso   1.000  C
  C231     1.0000 0.41818  0.11396  0.92220  Biso   1.000  C
  C232     1.0000 0.38604  0.41818  0.92220  Biso   1.000  C
  C233     1.0000 0.41818  0.38604  0.42220  Biso   1.000  C
  C234     1.0000 0.11396  0.41818  0.42220  Biso   1.000  C
  C235     1.0000 0.91818  0.61396  0.07780  Biso   1.000  C
  C236     1.0000 0.08182  0.11396  0.42220  Biso   1.000  C
  C237     1.0000 0.88604  0.91818  0.07780  Biso   1.000  C
  C238     1.0000 0.38604  0.08182  0.42220  Biso   1.000  C
  C239     1.0000 0.58182  0.88604  0.07780  Biso   1.000  C
  C240     1.0000 0.61396  0.58182  0.07780  Biso   1.000  C
  H129     1.0000 0.58820  0.62940  0.59200  Biso   1.000  H
  H130     1.0000 0.87060  0.58820  0.59200  Biso   1.000  H
  H131     1.0000 0.08820  0.37060  0.90800  Biso   1.000  H
  H132     1.0000 0.91180  0.87060  0.59200  Biso   1.000  H
  H133     1.0000 0.12940  0.08820  0.90800  Biso   1.000  H
  H134     1.0000 0.62940  0.91180  0.59200  Biso   1.000  H
  H135     1.0000 0.41180  0.12940  0.90800  Biso   1.000  H
  H136     1.0000 0.37060  0.41180  0.90800  Biso   1.000  H
  H137     1.0000 0.41180  0.37060  0.40800  Biso   1.000  H
  H138     1.0000 0.12940  0.41180  0.40800  Biso   1.000  H
  H139     1.0000 0.91180  0.62940  0.09200  Biso   1.000  H
  H140     1.0000 0.08820  0.12940  0.40800  Biso   1.000  H
  H141     1.0000 0.87060  0.91180  0.09200  Biso   1.000  H
  H142     1.0000 0.37060  0.08820  0.40800  Biso   1.000  H
  H143     1.0000 0.58820  0.87060  0.09200  Biso   1.000  H
  H144     1.0000 0.62940  0.58820  0.09200  Biso   1.000  H
  C241     1.0000 0.61123  0.62852  0.52080  Biso   1.000  C
  C242     1.0000 0.87148  0.61123  0.52080  Biso   1.000  C
  C243     1.0000 0.11123  0.37148  0.97920  Biso   1.000  C
  C244     1.0000 0.88877  0.87148  0.52080  Biso   1.000  C
  C245     1.0000 0.12852  0.11123  0.97920  Biso   1.000  C
  C246     1.0000 0.62852  0.88877  0.52080  Biso   1.000  C
  C247     1.0000 0.38877  0.12852  0.97920  Biso   1.000  C
  C248     1.0000 0.37148  0.38877  0.97920  Biso   1.000  C
  C249     1.0000 0.38877  0.37148  0.47920  Biso   1.000  C
  C250     1.0000 0.12852  0.38877  0.47920  Biso   1.000  C
  C251     1.0000 0.88877  0.62852  0.02080  Biso   1.000  C
  C252     1.0000 0.11123  0.12852  0.47920  Biso   1.000  C
  C253     1.0000 0.87148  0.88877  0.02080  Biso   1.000  C
  C254     1.0000 0.37148  0.11123  0.47920  Biso   1.000  C
  C255     1.0000 0.61123  0.87148  0.02080  Biso   1.000  C
  C256     1.0000 0.62852  0.61123  0.02080  Biso   1.000  C
  H145     1.0000 0.60310  0.63450  0.49580  Biso   1.000  H
  H146     1.0000 0.86550  0.60310  0.49580  Biso   1.000  H
  H147     1.0000 0.10310  0.36550  0.00420  Biso   1.000  H
  H148     1.0000 0.89690  0.86550  0.49580  Biso   1.000  H
  H149     1.0000 0.13450  0.10310  0.00420  Biso   1.000  H
  H150     1.0000 0.63450  0.89690  0.49580  Biso   1.000  H
  H151     1.0000 0.39690  0.13450  0.00420  Biso   1.000  H
  H152     1.0000 0.36550  0.39690  0.00420  Biso   1.000  H
  H153     1.0000 0.39690  0.36550  0.50420  Biso   1.000  H
  H154     1.0000 0.13450  0.39690  0.50420  Biso   1.000  H
  H155     1.0000 0.89690  0.63450  0.99580  Biso   1.000  H
  H156     1.0000 0.10310  0.13450  0.50420  Biso   1.000  H
  H157     1.0000 0.86550  0.89690  0.99580  Biso   1.000  H
  H158     1.0000 0.36550  0.10310  0.50420  Biso   1.000  H
  H159     1.0000 0.60310  0.86550  0.99580  Biso   1.000  H
  H160     1.0000 0.63450  0.60310  0.99580  Biso   1.000  H
  H161     1.0000 0.62850  0.61920  0.51550  Biso   1.000  H
  H162     1.0000 0.88080  0.62850  0.51550  Biso   1.000  H
  H163     1.0000 0.12850  0.38080  0.98450  Biso   1.000  H
  H164     1.0000 0.87150  0.88080  0.51550  Biso   1.000  H
  H165     1.0000 0.11920  0.12850  0.98450  Biso   1.000  H
  H166     1.0000 0.61920  0.87150  0.51550  Biso   1.000  H
  H167     1.0000 0.37150  0.11920  0.98450  Biso   1.000  H
  H168     1.0000 0.38080  0.37150  0.98450  Biso   1.000  H
  H169     1.0000 0.37150  0.38080  0.48450  Biso   1.000  H
  H170     1.0000 0.11920  0.37150  0.48450  Biso   1.000  H
  H171     1.0000 0.87150  0.61920  0.01550  Biso   1.000  H
  H172     1.0000 0.12850  0.11920  0.48450  Biso   1.000  H
  H173     1.0000 0.88080  0.87150  0.01550  Biso   1.000  H
  H174     1.0000 0.38080  0.12850  0.48450  Biso   1.000  H
  H175     1.0000 0.62850  0.88080  0.01550  Biso   1.000  H
  H176     1.0000 0.61920  0.62850  0.01550  Biso   1.000  H
  H177     1.0000 0.61460  0.64440  0.53770  Biso   1.000  H
  H178     1.0000 0.85560  0.61460  0.53770  Biso   1.000  H
  H179     1.0000 0.11460  0.35560  0.96230  Biso   1.000  H
  H180     1.0000 0.88540  0.85560  0.53770  Biso   1.000  H
  H181     1.0000 0.14440  0.11460  0.96230  Biso   1.000  H
  H182     1.0000 0.64440  0.88540  0.53770  Biso   1.000  H
  H183     1.0000 0.38540  0.14440  0.96230  Biso   1.000  H
  H184     1.0000 0.35560  0.38540  0.96230  Biso   1.000  H
  H185     1.0000 0.38540  0.35560  0.46230  Biso   1.000  H
  H186     1.0000 0.14440  0.38540  0.46230  Biso   1.000  H
  H187     1.0000 0.88540  0.64440  0.03770  Biso   1.000  H
  H188     1.0000 0.11460  0.14440  0.46230  Biso   1.000  H
  H189     1.0000 0.85560  0.88540  0.03770  Biso   1.000  H
  H190     1.0000 0.35560  0.11460  0.46230  Biso   1.000  H
  H191     1.0000 0.61460  0.85560  0.03770  Biso   1.000  H
  H192     1.0000 0.64440  0.61460  0.03770  Biso   1.000  H
  C257     1.0000 0.57592  0.53362  0.44580  Biso   1.000  C
  C258     1.0000 0.96638  0.57592  0.44580  Biso   1.000  C
  C259     1.0000 0.07592  0.46638  0.05420  Biso   1.000  C
  C260     1.0000 0.92408  0.96638  0.44580  Biso   1.000  C
  C261     1.0000 0.03362  0.07592  0.05420  Biso   1.000  C
  C262     1.0000 0.53362  0.92408  0.44580  Biso   1.000  C
  C263     1.0000 0.42408  0.03362  0.05420  Biso   1.000  C
  C264     1.0000 0.46638  0.42408  0.05420  Biso   1.000  C
  C265     1.0000 0.42408  0.46638  0.55420  Biso   1.000  C
  C266     1.0000 0.03362  0.42408  0.55420  Biso   1.000  C
  C267     1.0000 0.92408  0.53362  0.94580  Biso   1.000  C
  C268     1.0000 0.07592  0.03362  0.55420  Biso   1.000  C
  C269     1.0000 0.96638  0.92408  0.94580  Biso   1.000  C
  C270     1.0000 0.46638  0.07592  0.55420  Biso   1.000  C
  C271     1.0000 0.57592  0.96638  0.94580  Biso   1.000  C
  C272     1.0000 0.53362  0.57592  0.94580  Biso   1.000  C
  H193     1.0000 0.57680  0.54460  0.42130  Biso   1.000  H
  H194     1.0000 0.95540  0.57680  0.42130  Biso   1.000  H
  H195     1.0000 0.07680  0.45540  0.07870  Biso   1.000  H
  H196     1.0000 0.92320  0.95540  0.42130  Biso   1.000  H
  H197     1.0000 0.04460  0.07680  0.07870  Biso   1.000  H
  H198     1.0000 0.54460  0.92320  0.42130  Biso   1.000  H
  H199     1.0000 0.42320  0.04460  0.07870  Biso   1.000  H
  H200     1.0000 0.45540  0.42320  0.07870  Biso   1.000  H
  H201     1.0000 0.42320  0.45540  0.57870  Biso   1.000  H
  H202     1.0000 0.04460  0.42320  0.57870  Biso   1.000  H
  H203     1.0000 0.92320  0.54460  0.92130  Biso   1.000  H
  H204     1.0000 0.07680  0.04460  0.57870  Biso   1.000  H
  H205     1.0000 0.95540  0.92320  0.92130  Biso   1.000  H
  H206     1.0000 0.45540  0.07680  0.57870  Biso   1.000  H
  H207     1.0000 0.57680  0.95540  0.92130  Biso   1.000  H
  H208     1.0000 0.54460  0.57680  0.92130  Biso   1.000  H
  H209     1.0000 0.55960  0.52180  0.44440  Biso   1.000  H
  H210     1.0000 0.97820  0.55960  0.44440  Biso   1.000  H
  H211     1.0000 0.05960  0.47820  0.05560  Biso   1.000  H
  H212     1.0000 0.94040  0.97820  0.44440  Biso   1.000  H
  H213     1.0000 0.02180  0.05960  0.05560  Biso   1.000  H
  H214     1.0000 0.52180  0.94040  0.44440  Biso   1.000  H
  H215     1.0000 0.44040  0.02180  0.05560  Biso   1.000  H
  H216     1.0000 0.47820  0.44040  0.05560  Biso   1.000  H
  H217     1.0000 0.44040  0.47820  0.55560  Biso   1.000  H
  H218     1.0000 0.02180  0.44040  0.55560  Biso   1.000  H
  H219     1.0000 0.94040  0.52180  0.94440  Biso   1.000  H
  H220     1.0000 0.05960  0.02180  0.55560  Biso   1.000  H
  H221     1.0000 0.97820  0.94040  0.94440  Biso   1.000  H
  H222     1.0000 0.47820  0.05960  0.55560  Biso   1.000  H
  H223     1.0000 0.55960  0.97820  0.94440  Biso   1.000  H
  H224     1.0000 0.52180  0.55960  0.94440  Biso   1.000  H
  C273     1.0000 0.60247  0.51550  0.44960  Biso   1.000  C
  C274     1.0000 0.98450  0.60247  0.44960  Biso   1.000  C
  C275     1.0000 0.10247  0.48450  0.05040  Biso   1.000  C
  C276     1.0000 0.89753  0.98450  0.44960  Biso   1.000  C
  C277     1.0000 0.01550  0.10247  0.05040  Biso   1.000  C
  C278     1.0000 0.51550  0.89753  0.44960  Biso   1.000  C
  C279     1.0000 0.39753  0.01550  0.05040  Biso   1.000  C
  C280     1.0000 0.48450  0.39753  0.05040  Biso   1.000  C
  C281     1.0000 0.39753  0.48450  0.55040  Biso   1.000  C
  C282     1.0000 0.01550  0.39753  0.55040  Biso   1.000  C
  C283     1.0000 0.89753  0.51550  0.94960  Biso   1.000  C
  C284     1.0000 0.10247  0.01550  0.55040  Biso   1.000  C
  C285     1.0000 0.98450  0.89753  0.94960  Biso   1.000  C
  C286     1.0000 0.48450  0.10247  0.55040  Biso   1.000  C
  C287     1.0000 0.60247  0.98450  0.94960  Biso   1.000  C
  C288     1.0000 0.51550  0.60247  0.94960  Biso   1.000  C
  H225     1.0000 0.61870  0.52740  0.45040  Biso   1.000  H
  H226     1.0000 0.97260  0.61870  0.45040  Biso   1.000  H
  H227     1.0000 0.11870  0.47260  0.04960  Biso   1.000  H
  H228     1.0000 0.88130  0.97260  0.45040  Biso   1.000  H
  H229     1.0000 0.02740  0.11870  0.04960  Biso   1.000  H
  H230     1.0000 0.52740  0.88130  0.45040  Biso   1.000  H
  H231     1.0000 0.38130  0.02740  0.04960  Biso   1.000  H
  H232     1.0000 0.47260  0.38130  0.04960  Biso   1.000  H
  H233     1.0000 0.38130  0.47260  0.54960  Biso   1.000  H
  H234     1.0000 0.02740  0.38130  0.54960  Biso   1.000  H
  H235     1.0000 0.88130  0.52740  0.95040  Biso   1.000  H
  H236     1.0000 0.11870  0.02740  0.54960  Biso   1.000  H
  H237     1.0000 0.97260  0.88130  0.95040  Biso   1.000  H
  H238     1.0000 0.47260  0.11870  0.54960  Biso   1.000  H
  H239     1.0000 0.61870  0.97260  0.95040  Biso   1.000  H
  H240     1.0000 0.52740  0.61870  0.95040  Biso   1.000  H
  H241     1.0000 0.60180  0.50510  0.47480  Biso   1.000  H
  H242     1.0000 0.99490  0.60180  0.47480  Biso   1.000  H
  H243     1.0000 0.10180  0.49490  0.02520  Biso   1.000  H
  H244     1.0000 0.89820  0.99490  0.47480  Biso   1.000  H
  H245     1.0000 0.00510  0.10180  0.02520  Biso   1.000  H
  H246     1.0000 0.50510  0.89820  0.47480  Biso   1.000  H
  H247     1.0000 0.39820  0.00510  0.02520  Biso   1.000  H
  H248     1.0000 0.49490  0.39820  0.02520  Biso   1.000  H
  H249     1.0000 0.39820  0.49490  0.52520  Biso   1.000  H
  H250     1.0000 0.00510  0.39820  0.52520  Biso   1.000  H
  H251     1.0000 0.89820  0.50510  0.97480  Biso   1.000  H
  H252     1.0000 0.10180  0.00510  0.52520  Biso   1.000  H
  H253     1.0000 0.99490  0.89820  0.97480  Biso   1.000  H
  H254     1.0000 0.49490  0.10180  0.52520  Biso   1.000  H
  H255     1.0000 0.60180  0.99490  0.97480  Biso   1.000  H
  H256     1.0000 0.50510  0.60180  0.97480  Biso   1.000  H
  C289     1.0000 0.60499  0.49670  0.41740  Biso   1.000  C
  C290     1.0000 0.00330  0.60499  0.41740  Biso   1.000  C
  C291     1.0000 0.10499  0.50330  0.08260  Biso   1.000  C
  C292     1.0000 0.89501  0.00330  0.41740  Biso   1.000  C
  C293     1.0000 0.99670  0.10499  0.08260  Biso   1.000  C
  C294     1.0000 0.49670  0.89501  0.41740  Biso   1.000  C
  C295     1.0000 0.39501  0.99670  0.08260  Biso   1.000  C
  C296     1.0000 0.50330  0.39501  0.08260  Biso   1.000  C
  C297     1.0000 0.39501  0.50330  0.58260  Biso   1.000  C
  C298     1.0000 0.99670  0.39501  0.58260  Biso   1.000  C
  C299     1.0000 0.89501  0.49670  0.91740  Biso   1.000  C
  C300     1.0000 0.10499  0.99670  0.58260  Biso   1.000  C
  C301     1.0000 0.00330  0.89501  0.91740  Biso   1.000  C
  C302     1.0000 0.50330  0.10499  0.58260  Biso   1.000  C
  C303     1.0000 0.60499  0.00330  0.91740  Biso   1.000  C
  C304     1.0000 0.49670  0.60499  0.91740  Biso   1.000  C
  H257     1.0000 0.60700  0.50690  0.39260  Biso   1.000  H
  H258     1.0000 0.99310  0.60700  0.39260  Biso   1.000  H
  H259     1.0000 0.10700  0.49310  0.10740  Biso   1.000  H
  H260     1.0000 0.89300  0.99310  0.39260  Biso   1.000  H
  H261     1.0000 0.00690  0.10700  0.10740  Biso   1.000  H
  H262     1.0000 0.50690  0.89300  0.39260  Biso   1.000  H
  H263     1.0000 0.39300  0.00690  0.10740  Biso   1.000  H
  H264     1.0000 0.49310  0.39300  0.10740  Biso   1.000  H
  H265     1.0000 0.39300  0.49310  0.60740  Biso   1.000  H
  H266     1.0000 0.00690  0.39300  0.60740  Biso   1.000  H
  H267     1.0000 0.89300  0.50690  0.89260  Biso   1.000  H
  H268     1.0000 0.10700  0.00690  0.60740  Biso   1.000  H
  H269     1.0000 0.99310  0.89300  0.89260  Biso   1.000  H
  H270     1.0000 0.49310  0.10700  0.60740  Biso   1.000  H
  H271     1.0000 0.60700  0.99310  0.89260  Biso   1.000  H
  H272     1.0000 0.50690  0.60700  0.89260  Biso   1.000  H
  H273     1.0000 0.58860  0.48520  0.41600  Biso   1.000  H
  H274     1.0000 0.01480  0.58860  0.41600  Biso   1.000  H
  H275     1.0000 0.08860  0.51480  0.08400  Biso   1.000  H
  H276     1.0000 0.91140  0.01480  0.41600  Biso   1.000  H
  H277     1.0000 0.98520  0.08860  0.08400  Biso   1.000  H
  H278     1.0000 0.48520  0.91140  0.41600  Biso   1.000  H
  H279     1.0000 0.41140  0.98520  0.08400  Biso   1.000  H
  H280     1.0000 0.51480  0.41140  0.08400  Biso   1.000  H
  H281     1.0000 0.41140  0.51480  0.58400  Biso   1.000  H
  H282     1.0000 0.98520  0.41140  0.58400  Biso   1.000  H
  H283     1.0000 0.91140  0.48520  0.91600  Biso   1.000  H
  H284     1.0000 0.08860  0.98520  0.58400  Biso   1.000  H
  H285     1.0000 0.01480  0.91140  0.91600  Biso   1.000  H
  H286     1.0000 0.51480  0.08860  0.58400  Biso   1.000  H
  H287     1.0000 0.58860  0.01480  0.91600  Biso   1.000  H
  H288     1.0000 0.48520  0.58860  0.91600  Biso   1.000  H
  H289     1.0000 0.62110  0.48510  0.42140  Biso   1.000  H
  H290     1.0000 0.01490  0.62110  0.42140  Biso   1.000  H
  H291     1.0000 0.12110  0.51490  0.07860  Biso   1.000  H
  H292     1.0000 0.87890  0.01490  0.42140  Biso   1.000  H
  H293     1.0000 0.98510  0.12110  0.07860  Biso   1.000  H
  H294     1.0000 0.48510  0.87890  0.42140  Biso   1.000  H
  H295     1.0000 0.37890  0.98510  0.07860  Biso   1.000  H
  H296     1.0000 0.51490  0.37890  0.07860  Biso   1.000  H
  H297     1.0000 0.37890  0.51490  0.57860  Biso   1.000  H
  H298     1.0000 0.98510  0.37890  0.57860  Biso   1.000  H
  H299     1.0000 0.87890  0.48510  0.92140  Biso   1.000  H
  H300     1.0000 0.12110  0.98510  0.57860  Biso   1.000  H
  H301     1.0000 0.01490  0.87890  0.92140  Biso   1.000  H
  H302     1.0000 0.51490  0.12110  0.57860  Biso   1.000  H
  H303     1.0000 0.62110  0.01490  0.92140  Biso   1.000  H
  H304     1.0000 0.48510  0.62110  0.92140  Biso   1.000  H
  C305     1.0000 0.53723  0.52510  0.51828  Biso   1.000  C
  C306     1.0000 0.97490  0.53723  0.51828  Biso   1.000  C
  C307     1.0000 0.03723  0.47490  0.98172  Biso   1.000  C
  C308     1.0000 0.96277  0.97490  0.51828  Biso   1.000  C
  C309     1.0000 0.02510  0.03723  0.98172  Biso   1.000  C
  C310     1.0000 0.52510  0.96277  0.51828  Biso   1.000  C
  C311     1.0000 0.46277  0.02510  0.98172  Biso   1.000  C
  C312     1.0000 0.47490  0.46277  0.98172  Biso   1.000  C
  C313     1.0000 0.46277  0.47490  0.48172  Biso   1.000  C
  C314     1.0000 0.02510  0.46277  0.48172  Biso   1.000  C
  C315     1.0000 0.96277  0.52510  0.01828  Biso   1.000  C
  C316     1.0000 0.03723  0.02510  0.48172  Biso   1.000  C
  C317     1.0000 0.97490  0.96277  0.01828  Biso   1.000  C
  C318     1.0000 0.47490  0.03723  0.48172  Biso   1.000  C
  C319     1.0000 0.53723  0.97490  0.01828  Biso   1.000  C
  C320     1.0000 0.52510  0.53723  0.01828  Biso   1.000  C
  H305     1.0000 0.52720  0.52250  0.49320  Biso   1.000  H
  H306     1.0000 0.97750  0.52720  0.49320  Biso   1.000  H
  H307     1.0000 0.02720  0.47750  0.00680  Biso   1.000  H
  H308     1.0000 0.97280  0.97750  0.49320  Biso   1.000  H
  H309     1.0000 0.02250  0.02720  0.00680  Biso   1.000  H
  H310     1.0000 0.52250  0.97280  0.49320  Biso   1.000  H
  H311     1.0000 0.47280  0.02250  0.00680  Biso   1.000  H
  H312     1.0000 0.47750  0.47280  0.00680  Biso   1.000  H
  H313     1.0000 0.47280  0.47750  0.50680  Biso   1.000  H
  H314     1.0000 0.02250  0.47280  0.50680  Biso   1.000  H
  H315     1.0000 0.97280  0.52250  0.99320  Biso   1.000  H
  H316     1.0000 0.02720  0.02250  0.50680  Biso   1.000  H
  H317     1.0000 0.97750  0.97280  0.99320  Biso   1.000  H
  H318     1.0000 0.47750  0.02720  0.50680  Biso   1.000  H
  H319     1.0000 0.52720  0.97750  0.99320  Biso   1.000  H
  H320     1.0000 0.52250  0.52720  0.99320  Biso   1.000  H
  H321     1.0000 0.52390  0.53090  0.53860  Biso   1.000  H
  H322     1.0000 0.96910  0.52390  0.53860  Biso   1.000  H
  H323     1.0000 0.02390  0.46910  0.96140  Biso   1.000  H
  H324     1.0000 0.97610  0.96910  0.53860  Biso   1.000  H
  H325     1.0000 0.03090  0.02390  0.96140  Biso   1.000  H
  H326     1.0000 0.53090  0.97610  0.53860  Biso   1.000  H
  H327     1.0000 0.47610  0.03090  0.96140  Biso   1.000  H
  H328     1.0000 0.46910  0.47610  0.96140  Biso   1.000  H
  H329     1.0000 0.47610  0.46910  0.46140  Biso   1.000  H
  H330     1.0000 0.03090  0.47610  0.46140  Biso   1.000  H
  H331     1.0000 0.97610  0.53090  0.03860  Biso   1.000  H
  H332     1.0000 0.02390  0.03090  0.46140  Biso   1.000  H
  H333     1.0000 0.96910  0.97610  0.03860  Biso   1.000  H
  H334     1.0000 0.46910  0.02390  0.46140  Biso   1.000  H
  H335     1.0000 0.52390  0.96910  0.03860  Biso   1.000  H
  H336     1.0000 0.53090  0.52390  0.03860  Biso   1.000  H
  C321     1.0000 0.55000  0.49757  0.53090  Biso   1.000  C
  C322     1.0000 0.00243  0.55000  0.53090  Biso   1.000  C
  C323     1.0000 0.05000  0.50243  0.96910  Biso   1.000  C
  C324     1.0000 0.95000  0.00243  0.53090  Biso   1.000  C
  C325     1.0000 0.99757  0.05000  0.96910  Biso   1.000  C
  C326     1.0000 0.49757  0.95000  0.53090  Biso   1.000  C
  C327     1.0000 0.45000  0.99757  0.96910  Biso   1.000  C
  C328     1.0000 0.50243  0.45000  0.96910  Biso   1.000  C
  C329     1.0000 0.45000  0.50243  0.46910  Biso   1.000  C
  C330     1.0000 0.99757  0.45000  0.46910  Biso   1.000  C
  C331     1.0000 0.95000  0.49757  0.03090  Biso   1.000  C
  C332     1.0000 0.05000  0.99757  0.46910  Biso   1.000  C
  C333     1.0000 0.00243  0.95000  0.03090  Biso   1.000  C
  C334     1.0000 0.50243  0.05000  0.46910  Biso   1.000  C
  C335     1.0000 0.55000  0.00243  0.03090  Biso   1.000  C
  C336     1.0000 0.49757  0.55000  0.03090  Biso   1.000  C
  C337     1.0000 0.56263  0.49504  0.56640  Biso   1.000  C
  C338     1.0000 0.00496  0.56263  0.56640  Biso   1.000  C
  C339     1.0000 0.06263  0.50496  0.93360  Biso   1.000  C
  C340     1.0000 0.93737  0.00496  0.56640  Biso   1.000  C
  C341     1.0000 0.99504  0.06263  0.93360  Biso   1.000  C
  C342     1.0000 0.49504  0.93737  0.56640  Biso   1.000  C
  C343     1.0000 0.43737  0.99504  0.93360  Biso   1.000  C
  C344     1.0000 0.50496  0.43737  0.93360  Biso   1.000  C
  C345     1.0000 0.43737  0.50496  0.43360  Biso   1.000  C
  C346     1.0000 0.99504  0.43737  0.43360  Biso   1.000  C
  C347     1.0000 0.93737  0.49504  0.06640  Biso   1.000  C
  C348     1.0000 0.06263  0.99504  0.43360  Biso   1.000  C
  C349     1.0000 0.00496  0.93737  0.06640  Biso   1.000  C
  C350     1.0000 0.50496  0.06263  0.43360  Biso   1.000  C
  C351     1.0000 0.56263  0.00496  0.06640  Biso   1.000  C
  C352     1.0000 0.49504  0.56263  0.06640  Biso   1.000  C
  H337     1.0000 0.56430  0.51050  0.58330  Biso   1.000  H
  H338     1.0000 0.98950  0.56430  0.58330  Biso   1.000  H
  H339     1.0000 0.06430  0.48950  0.91670  Biso   1.000  H
  H340     1.0000 0.93570  0.98950  0.58330  Biso   1.000  H
  H341     1.0000 0.01050  0.06430  0.91670  Biso   1.000  H
  H342     1.0000 0.51050  0.93570  0.58330  Biso   1.000  H
  H343     1.0000 0.43570  0.01050  0.91670  Biso   1.000  H
  H344     1.0000 0.48950  0.43570  0.91670  Biso   1.000  H
  H345     1.0000 0.43570  0.48950  0.41670  Biso   1.000  H
  H346     1.0000 0.01050  0.43570  0.41670  Biso   1.000  H
  H347     1.0000 0.93570  0.51050  0.08330  Biso   1.000  H
  H348     1.0000 0.06430  0.01050  0.41670  Biso   1.000  H
  H349     1.0000 0.98950  0.93570  0.08330  Biso   1.000  H
  H350     1.0000 0.48950  0.06430  0.41670  Biso   1.000  H
  H351     1.0000 0.56430  0.98950  0.08330  Biso   1.000  H
  H352     1.0000 0.51050  0.56430  0.08330  Biso   1.000  H
  C353     1.0000 0.57310  0.47007  0.57830  Biso   1.000  C
  C354     1.0000 0.02993  0.57310  0.57830  Biso   1.000  C
  C355     1.0000 0.07310  0.52993  0.92170  Biso   1.000  C
  C356     1.0000 0.92690  0.02993  0.57830  Biso   1.000  C
  C357     1.0000 0.97007  0.07310  0.92170  Biso   1.000  C
  C358     1.0000 0.47007  0.92690  0.57830  Biso   1.000  C
  C359     1.0000 0.42690  0.97007  0.92170  Biso   1.000  C
  C360     1.0000 0.52993  0.42690  0.92170  Biso   1.000  C
  C361     1.0000 0.42690  0.52993  0.42170  Biso   1.000  C
  C362     1.0000 0.97007  0.42690  0.42170  Biso   1.000  C
  C363     1.0000 0.92690  0.47007  0.07830  Biso   1.000  C
  C364     1.0000 0.07310  0.97007  0.42170  Biso   1.000  C
  C365     1.0000 0.02993  0.92690  0.07830  Biso   1.000  C
  C366     1.0000 0.52993  0.07310  0.42170  Biso   1.000  C
  C367     1.0000 0.57310  0.02993  0.07830  Biso   1.000  C
  C368     1.0000 0.47007  0.57310  0.07830  Biso   1.000  C
  H353     1.0000 0.58180  0.46860  0.60330  Biso   1.000  H
  H354     1.0000 0.03140  0.58180  0.60330  Biso   1.000  H
  H355     1.0000 0.08180  0.53140  0.89670  Biso   1.000  H
  H356     1.0000 0.91820  0.03140  0.60330  Biso   1.000  H
  H357     1.0000 0.96860  0.08180  0.89670  Biso   1.000  H
  H358     1.0000 0.46860  0.91820  0.60330  Biso   1.000  H
  H359     1.0000 0.41820  0.96860  0.89670  Biso   1.000  H
  H360     1.0000 0.53140  0.41820  0.89670  Biso   1.000  H
  H361     1.0000 0.41820  0.53140  0.39670  Biso   1.000  H
  H362     1.0000 0.96860  0.41820  0.39670  Biso   1.000  H
  H363     1.0000 0.91820  0.46860  0.10330  Biso   1.000  H
  H364     1.0000 0.08180  0.96860  0.39670  Biso   1.000  H
  H365     1.0000 0.03140  0.91820  0.10330  Biso   1.000  H
  H366     1.0000 0.53140  0.08180  0.39670  Biso   1.000  H
  H367     1.0000 0.58180  0.03140  0.10330  Biso   1.000  H
  H368     1.0000 0.46860  0.58180  0.10330  Biso   1.000  H
  C369     1.0000 0.57102  0.44681  0.55400  Biso   1.000  C
  C370     1.0000 0.05319  0.57102  0.55400  Biso   1.000  C
  C371     1.0000 0.07102  0.55319  0.94600  Biso   1.000  C
  C372     1.0000 0.92898  0.05319  0.55400  Biso   1.000  C
  C373     1.0000 0.94681  0.07102  0.94600  Biso   1.000  C
  C374     1.0000 0.44681  0.92898  0.55400  Biso   1.000  C
  C375     1.0000 0.42898  0.94681  0.94600  Biso   1.000  C
  C376     1.0000 0.55319  0.42898  0.94600  Biso   1.000  C
  C377     1.0000 0.42898  0.55319  0.44600  Biso   1.000  C
  C378     1.0000 0.94681  0.42898  0.44600  Biso   1.000  C
  C379     1.0000 0.92898  0.44681  0.05400  Biso   1.000  C
  C380     1.0000 0.07102  0.94681  0.44600  Biso   1.000  C
  C381     1.0000 0.05319  0.92898  0.05400  Biso   1.000  C
  C382     1.0000 0.55319  0.07102  0.44600  Biso   1.000  C
  C383     1.0000 0.57102  0.05319  0.05400  Biso   1.000  C
  C384     1.0000 0.44681  0.57102  0.05400  Biso   1.000  C
  C385     1.0000 0.55830  0.44970  0.51890  Biso   1.000  C
  C386     1.0000 0.05030  0.55830  0.51890  Biso   1.000  C
  C387     1.0000 0.05830  0.55030  0.98110  Biso   1.000  C
  C388     1.0000 0.94170  0.05030  0.51890  Biso   1.000  C
  C389     1.0000 0.94970  0.05830  0.98110  Biso   1.000  C
  C390     1.0000 0.44970  0.94170  0.51890  Biso   1.000  C
  C391     1.0000 0.44170  0.94970  0.98110  Biso   1.000  C
  C392     1.0000 0.55030  0.44170  0.98110  Biso   1.000  C
  C393     1.0000 0.44170  0.55030  0.48110  Biso   1.000  C
  C394     1.0000 0.94970  0.44170  0.48110  Biso   1.000  C
  C395     1.0000 0.94170  0.44970  0.01890  Biso   1.000  C
  C396     1.0000 0.05830  0.94970  0.48110  Biso   1.000  C
  C397     1.0000 0.05030  0.94170  0.01890  Biso   1.000  C
  C398     1.0000 0.55030  0.05830  0.48110  Biso   1.000  C
  C399     1.0000 0.55830  0.05030  0.01890  Biso   1.000  C
  C400     1.0000 0.44970  0.55830  0.01890  Biso   1.000  C
  H369     1.0000 0.55660  0.43440  0.50190  Biso   1.000  H
  H370     1.0000 0.06560  0.55660  0.50190  Biso   1.000  H
  H371     1.0000 0.05660  0.56560  0.99810  Biso   1.000  H
  H372     1.0000 0.94340  0.06560  0.50190  Biso   1.000  H
  H373     1.0000 0.93440  0.05660  0.99810  Biso   1.000  H
  H374     1.0000 0.43440  0.94340  0.50190  Biso   1.000  H
  H375     1.0000 0.44340  0.93440  0.99810  Biso   1.000  H
  H376     1.0000 0.56560  0.44340  0.99810  Biso   1.000  H
  H377     1.0000 0.44340  0.56560  0.49810  Biso   1.000  H
  H378     1.0000 0.93440  0.44340  0.49810  Biso   1.000  H
  H379     1.0000 0.94340  0.43440  0.00190  Biso   1.000  H
  H380     1.0000 0.05660  0.93440  0.49810  Biso   1.000  H
  H381     1.0000 0.06560  0.94340  0.00190  Biso   1.000  H
  H382     1.0000 0.56560  0.05660  0.49810  Biso   1.000  H
  H383     1.0000 0.55660  0.06560  0.00190  Biso   1.000  H
  H384     1.0000 0.43440  0.55660  0.00190  Biso   1.000  H
  C401     1.0000 0.54745  0.47496  0.50710  Biso   1.000  C
  C402     1.0000 0.02504  0.54745  0.50710  Biso   1.000  C
  C403     1.0000 0.04745  0.52504  0.99290  Biso   1.000  C
  C404     1.0000 0.95255  0.02504  0.50710  Biso   1.000  C
  C405     1.0000 0.97496  0.04745  0.99290  Biso   1.000  C
  C406     1.0000 0.47496  0.95255  0.50710  Biso   1.000  C
  C407     1.0000 0.45255  0.97496  0.99290  Biso   1.000  C
  C408     1.0000 0.52504  0.45255  0.99290  Biso   1.000  C
  C409     1.0000 0.45255  0.52504  0.49290  Biso   1.000  C
  C410     1.0000 0.97496  0.45255  0.49290  Biso   1.000  C
  C411     1.0000 0.95255  0.47496  0.00710  Biso   1.000  C
  C412     1.0000 0.04745  0.97496  0.49290  Biso   1.000  C
  C413     1.0000 0.02504  0.95255  0.00710  Biso   1.000  C
  C414     1.0000 0.52504  0.04745  0.49290  Biso   1.000  C
  C415     1.0000 0.54745  0.02504  0.00710  Biso   1.000  C
  C416     1.0000 0.47496  0.54745  0.00710  Biso   1.000  C
  H385     1.0000 0.53830  0.47640  0.48250  Biso   1.000  H
  H386     1.0000 0.02360  0.53830  0.48250  Biso   1.000  H
  H387     1.0000 0.03830  0.52360  0.01750  Biso   1.000  H
  H388     1.0000 0.96170  0.02360  0.48250  Biso   1.000  H
  H389     1.0000 0.97640  0.03830  0.01750  Biso   1.000  H
  H390     1.0000 0.47640  0.96170  0.48250  Biso   1.000  H
  H391     1.0000 0.46170  0.97640  0.01750  Biso   1.000  H
  H392     1.0000 0.52360  0.46170  0.01750  Biso   1.000  H
  H393     1.0000 0.46170  0.52360  0.51750  Biso   1.000  H
  H394     1.0000 0.97640  0.46170  0.51750  Biso   1.000  H
  H395     1.0000 0.96170  0.47640  0.98250  Biso   1.000  H
  H396     1.0000 0.03830  0.97640  0.51750  Biso   1.000  H
  H397     1.0000 0.02360  0.96170  0.98250  Biso   1.000  H
  H398     1.0000 0.52360  0.03830  0.51750  Biso   1.000  H
  H399     1.0000 0.53830  0.02360  0.98250  Biso   1.000  H
  H400     1.0000 0.47640  0.53830  0.98250  Biso   1.000  H
  C417     1.0000 0.58109  0.41965  0.56960  Biso   1.000  C
  C418     1.0000 0.08035  0.58109  0.56960  Biso   1.000  C
  C419     1.0000 0.08109  0.58035  0.93040  Biso   1.000  C
  C420     1.0000 0.91891  0.08035  0.56960  Biso   1.000  C
  C421     1.0000 0.91965  0.08109  0.93040  Biso   1.000  C
  C422     1.0000 0.41965  0.91891  0.56960  Biso   1.000  C
  C423     1.0000 0.41891  0.91965  0.93040  Biso   1.000  C
  C424     1.0000 0.58035  0.41891  0.93040  Biso   1.000  C
  C425     1.0000 0.41891  0.58035  0.43040  Biso   1.000  C
  C426     1.0000 0.91965  0.41891  0.43040  Biso   1.000  C
  C427     1.0000 0.91891  0.41965  0.06960  Biso   1.000  C
  C428     1.0000 0.08109  0.91965  0.43040  Biso   1.000  C
  C429     1.0000 0.08035  0.91891  0.06960  Biso   1.000  C
  C430     1.0000 0.58035  0.08109  0.43040  Biso   1.000  C
  C431     1.0000 0.58109  0.08035  0.06960  Biso   1.000  C
  C432     1.0000 0.41965  0.58109  0.06960  Biso   1.000  C
  C433     1.0000 0.60507  0.41608  0.59090  Biso   1.000  C
  C434     1.0000 0.08392  0.60507  0.59090  Biso   1.000  C
  C435     1.0000 0.10507  0.58392  0.90910  Biso   1.000  C
  C436     1.0000 0.89493  0.08392  0.59090  Biso   1.000  C
  C437     1.0000 0.91608  0.10507  0.90910  Biso   1.000  C
  C438     1.0000 0.41608  0.89493  0.59090  Biso   1.000  C
  C439     1.0000 0.39493  0.91608  0.90910  Biso   1.000  C
  C440     1.0000 0.58392  0.39493  0.90910  Biso   1.000  C
  C441     1.0000 0.39493  0.58392  0.40910  Biso   1.000  C
  C442     1.0000 0.91608  0.39493  0.40910  Biso   1.000  C
  C443     1.0000 0.89493  0.41608  0.09090  Biso   1.000  C
  C444     1.0000 0.10507  0.91608  0.40910  Biso   1.000  C
  C445     1.0000 0.08392  0.89493  0.09090  Biso   1.000  C
  C446     1.0000 0.58392  0.10507  0.40910  Biso   1.000  C
  C447     1.0000 0.60507  0.08392  0.09090  Biso   1.000  C
  C448     1.0000 0.41608  0.60507  0.09090  Biso   1.000  C
  C449     1.0000 0.61265  0.39010  0.60460  Biso   1.000  C
  C450     1.0000 0.10990  0.61265  0.60460  Biso   1.000  C
  C451     1.0000 0.11265  0.60990  0.89540  Biso   1.000  C
  C452     1.0000 0.88735  0.10990  0.60460  Biso   1.000  C
  C453     1.0000 0.89010  0.11265  0.89540  Biso   1.000  C
  C454     1.0000 0.39010  0.88735  0.60460  Biso   1.000  C
  C455     1.0000 0.38735  0.89010  0.89540  Biso   1.000  C
  C456     1.0000 0.60990  0.38735  0.89540  Biso   1.000  C
  C457     1.0000 0.38735  0.60990  0.39540  Biso   1.000  C
  C458     1.0000 0.89010  0.38735  0.39540  Biso   1.000  C
  C459     1.0000 0.88735  0.39010  0.10460  Biso   1.000  C
  C460     1.0000 0.11265  0.89010  0.39540  Biso   1.000  C
  C461     1.0000 0.10990  0.88735  0.10460  Biso   1.000  C
  C462     1.0000 0.60990  0.11265  0.39540  Biso   1.000  C
  C463     1.0000 0.61265  0.10990  0.10460  Biso   1.000  C
  C464     1.0000 0.39010  0.61265  0.10460  Biso   1.000  C
  H401     1.0000 0.62870  0.38790  0.62010  Biso   1.000  H
  H402     1.0000 0.11210  0.62870  0.62010  Biso   1.000  H
  H403     1.0000 0.12870  0.61210  0.87990  Biso   1.000  H
  H404     1.0000 0.87130  0.11210  0.62010  Biso   1.000  H
  H405     1.0000 0.88790  0.12870  0.87990  Biso   1.000  H
  H406     1.0000 0.38790  0.87130  0.62010  Biso   1.000  H
  H407     1.0000 0.37130  0.88790  0.87990  Biso   1.000  H
  H408     1.0000 0.61210  0.37130  0.87990  Biso   1.000  H
  H409     1.0000 0.37130  0.61210  0.37990  Biso   1.000  H
  H410     1.0000 0.88790  0.37130  0.37990  Biso   1.000  H
  H411     1.0000 0.87130  0.38790  0.12010  Biso   1.000  H
  H412     1.0000 0.12870  0.88790  0.37990  Biso   1.000  H
  H413     1.0000 0.11210  0.87130  0.12010  Biso   1.000  H
  H414     1.0000 0.61210  0.12870  0.37990  Biso   1.000  H
  H415     1.0000 0.62870  0.11210  0.12010  Biso   1.000  H
  H416     1.0000 0.38790  0.62870  0.12010  Biso   1.000  H
  C465     1.0000 0.59620  0.36737  0.59540  Biso   1.000  C
  C466     1.0000 0.13263  0.59620  0.59540  Biso   1.000  C
  C467     1.0000 0.09620  0.63263  0.90460  Biso   1.000  C
  C468     1.0000 0.90380  0.13263  0.59540  Biso   1.000  C
  C469     1.0000 0.86737  0.09620  0.90460  Biso   1.000  C
  C470     1.0000 0.36737  0.90380  0.59540  Biso   1.000  C
  C471     1.0000 0.40380  0.86737  0.90460  Biso   1.000  C
  C472     1.0000 0.63263  0.40380  0.90460  Biso   1.000  C
  C473     1.0000 0.40380  0.63263  0.40460  Biso   1.000  C
  C474     1.0000 0.86737  0.40380  0.40460  Biso   1.000  C
  C475     1.0000 0.90380  0.36737  0.09540  Biso   1.000  C
  C476     1.0000 0.09620  0.86737  0.40460  Biso   1.000  C
  C477     1.0000 0.13263  0.90380  0.09540  Biso   1.000  C
  C478     1.0000 0.63263  0.09620  0.40460  Biso   1.000  C
  C479     1.0000 0.59620  0.13263  0.09540  Biso   1.000  C
  C480     1.0000 0.36737  0.59620  0.09540  Biso   1.000  C
  H417     1.0000 0.60140  0.34980  0.60440  Biso   1.000  H
  H418     1.0000 0.15020  0.60140  0.60440  Biso   1.000  H
  H419     1.0000 0.10140  0.65020  0.89560  Biso   1.000  H
  H420     1.0000 0.89860  0.15020  0.60440  Biso   1.000  H
  H421     1.0000 0.84980  0.10140  0.89560  Biso   1.000  H
  H422     1.0000 0.34980  0.89860  0.60440  Biso   1.000  H
  H423     1.0000 0.39860  0.84980  0.89560  Biso   1.000  H
  H424     1.0000 0.65020  0.39860  0.89560  Biso   1.000  H
  H425     1.0000 0.39860  0.65020  0.39560  Biso   1.000  H
  H426     1.0000 0.84980  0.39860  0.39560  Biso   1.000  H
  H427     1.0000 0.89860  0.34980  0.10440  Biso   1.000  H
  H428     1.0000 0.10140  0.84980  0.39560  Biso   1.000  H
  H429     1.0000 0.15020  0.89860  0.10440  Biso   1.000  H
  H430     1.0000 0.65020  0.10140  0.39560  Biso   1.000  H
  H431     1.0000 0.60140  0.15020  0.10440  Biso   1.000  H
  H432     1.0000 0.34980  0.60140  0.10440  Biso   1.000  H
  C481     1.0000 0.57366  0.37018  0.57430  Biso   1.000  C
  C482     1.0000 0.12982  0.57366  0.57430  Biso   1.000  C
  C483     1.0000 0.07366  0.62982  0.92570  Biso   1.000  C
  C484     1.0000 0.92634  0.12982  0.57430  Biso   1.000  C
  C485     1.0000 0.87018  0.07366  0.92570  Biso   1.000  C
  C486     1.0000 0.37018  0.92634  0.57430  Biso   1.000  C
  C487     1.0000 0.42634  0.87018  0.92570  Biso   1.000  C
  C488     1.0000 0.62982  0.42634  0.92570  Biso   1.000  C
  C489     1.0000 0.42634  0.62982  0.42570  Biso   1.000  C
  C490     1.0000 0.87018  0.42634  0.42570  Biso   1.000  C
  C491     1.0000 0.92634  0.37018  0.07430  Biso   1.000  C
  C492     1.0000 0.07366  0.87018  0.42570  Biso   1.000  C
  C493     1.0000 0.12982  0.92634  0.07430  Biso   1.000  C
  C494     1.0000 0.62982  0.07366  0.42570  Biso   1.000  C
  C495     1.0000 0.57366  0.12982  0.07430  Biso   1.000  C
  C496     1.0000 0.37018  0.57366  0.07430  Biso   1.000  C
  H433     1.0000 0.56280  0.35470  0.56810  Biso   1.000  H
  H434     1.0000 0.14530  0.56280  0.56810  Biso   1.000  H
  H435     1.0000 0.06280  0.64530  0.93190  Biso   1.000  H
  H436     1.0000 0.93720  0.14530  0.56810  Biso   1.000  H
  H437     1.0000 0.85470  0.06280  0.93190  Biso   1.000  H
  H438     1.0000 0.35470  0.93720  0.56810  Biso   1.000  H
  H439     1.0000 0.43720  0.85470  0.93190  Biso   1.000  H
  H440     1.0000 0.64530  0.43720  0.93190  Biso   1.000  H
  H441     1.0000 0.43720  0.64530  0.43190  Biso   1.000  H
  H442     1.0000 0.85470  0.43720  0.43190  Biso   1.000  H
  H443     1.0000 0.93720  0.35470  0.06810  Biso   1.000  H
  H444     1.0000 0.06280  0.85470  0.43190  Biso   1.000  H
  H445     1.0000 0.14530  0.93720  0.06810  Biso   1.000  H
  H446     1.0000 0.64530  0.06280  0.43190  Biso   1.000  H
  H447     1.0000 0.56280  0.14530  0.06810  Biso   1.000  H
  H448     1.0000 0.35470  0.56280  0.06810  Biso   1.000  H
  C497     1.0000 0.56598  0.39592  0.56130  Biso   1.000  C
  C498     1.0000 0.10408  0.56598  0.56130  Biso   1.000  C
  C499     1.0000 0.06598  0.60408  0.93870  Biso   1.000  C
  C500     1.0000 0.93402  0.10408  0.56130  Biso   1.000  C
  C501     1.0000 0.89592  0.06598  0.93870  Biso   1.000  C
  C502     1.0000 0.39592  0.93402  0.56130  Biso   1.000  C
  C503     1.0000 0.43402  0.89592  0.93870  Biso   1.000  C
  C504     1.0000 0.60408  0.43402  0.93870  Biso   1.000  C
  C505     1.0000 0.43402  0.60408  0.43870  Biso   1.000  C
  C506     1.0000 0.89592  0.43402  0.43870  Biso   1.000  C
  C507     1.0000 0.93402  0.39592  0.06130  Biso   1.000  C
  C508     1.0000 0.06598  0.89592  0.43870  Biso   1.000  C
  C509     1.0000 0.10408  0.93402  0.06130  Biso   1.000  C
  C510     1.0000 0.60408  0.06598  0.43870  Biso   1.000  C
  C511     1.0000 0.56598  0.10408  0.06130  Biso   1.000  C
  C512     1.0000 0.39592  0.56598  0.06130  Biso   1.000  C
  H449     1.0000 0.54980  0.39760  0.54610  Biso   1.000  H
  H450     1.0000 0.10240  0.54980  0.54610  Biso   1.000  H
  H451     1.0000 0.04980  0.60240  0.95390  Biso   1.000  H
  H452     1.0000 0.95020  0.10240  0.54610  Biso   1.000  H
  H453     1.0000 0.89760  0.04980  0.95390  Biso   1.000  H
  H454     1.0000 0.39760  0.95020  0.54610  Biso   1.000  H
  H455     1.0000 0.45020  0.89760  0.95390  Biso   1.000  H
  H456     1.0000 0.60240  0.45020  0.95390  Biso   1.000  H
  H457     1.0000 0.45020  0.60240  0.45390  Biso   1.000  H
  H458     1.0000 0.89760  0.45020  0.45390  Biso   1.000  H
  H459     1.0000 0.95020  0.39760  0.04610  Biso   1.000  H
  H460     1.0000 0.04980  0.89760  0.45390  Biso   1.000  H
  H461     1.0000 0.10240  0.95020  0.04610  Biso   1.000  H
  H462     1.0000 0.60240  0.04980  0.45390  Biso   1.000  H
  H463     1.0000 0.54980  0.10240  0.04610  Biso   1.000  H
  H464     1.0000 0.39760  0.54980  0.04610  Biso   1.000  H
  C513     1.0000 0.62528  0.43865  0.60070  Biso   1.000  C
  C514     1.0000 0.06135  0.62528  0.60070  Biso   1.000  C
  C515     1.0000 0.12528  0.56135  0.89930  Biso   1.000  C
  C516     1.0000 0.87472  0.06135  0.60070  Biso   1.000  C
  C517     1.0000 0.93865  0.12528  0.89930  Biso   1.000  C
  C518     1.0000 0.43865  0.87472  0.60070  Biso   1.000  C
  C519     1.0000 0.37472  0.93865  0.89930  Biso   1.000  C
  C520     1.0000 0.56135  0.37472  0.89930  Biso   1.000  C
  C521     1.0000 0.37472  0.56135  0.39930  Biso   1.000  C
  C522     1.0000 0.93865  0.37472  0.39930  Biso   1.000  C
  C523     1.0000 0.87472  0.43865  0.10070  Biso   1.000  C
  C524     1.0000 0.12528  0.93865  0.39930  Biso   1.000  C
  C525     1.0000 0.06135  0.87472  0.10070  Biso   1.000  C
  C526     1.0000 0.56135  0.12528  0.39930  Biso   1.000  C
  C527     1.0000 0.62528  0.06135  0.10070  Biso   1.000  C
  C528     1.0000 0.43865  0.62528  0.10070  Biso   1.000  C
  C529     1.0000 0.65964  0.52445  0.57040  Biso   1.000  C
  C530     1.0000 0.97555  0.65964  0.57040  Biso   1.000  C
  C531     1.0000 0.15964  0.47555  0.92960  Biso   1.000  C
  C532     1.0000 0.84036  0.97555  0.57040  Biso   1.000  C
  C533     1.0000 0.02445  0.15964  0.92960  Biso   1.000  C
  C534     1.0000 0.52445  0.84036  0.57040  Biso   1.000  C
  C535     1.0000 0.34036  0.02445  0.92960  Biso   1.000  C
  C536     1.0000 0.47555  0.34036  0.92960  Biso   1.000  C
  C537     1.0000 0.34036  0.47555  0.42960  Biso   1.000  C
  C538     1.0000 0.02445  0.34036  0.42960  Biso   1.000  C
  C539     1.0000 0.84036  0.52445  0.07040  Biso   1.000  C
  C540     1.0000 0.15964  0.02445  0.42960  Biso   1.000  C
  C541     1.0000 0.97555  0.84036  0.07040  Biso   1.000  C
  C542     1.0000 0.47555  0.15964  0.42960  Biso   1.000  C
  C543     1.0000 0.65964  0.97555  0.07040  Biso   1.000  C
  C544     1.0000 0.52445  0.65964  0.07040  Biso   1.000  C
  C545     1.0000 0.67245  0.49677  0.52330  Biso   1.000  C
  C546     1.0000 0.00323  0.67245  0.52330  Biso   1.000  C
  C547     1.0000 0.17245  0.50323  0.97670  Biso   1.000  C
  C548     1.0000 0.82755  0.00323  0.52330  Biso   1.000  C
  C549     1.0000 0.99677  0.17245  0.97670  Biso   1.000  C
  C550     1.0000 0.49677  0.82755  0.52330  Biso   1.000  C
  C551     1.0000 0.32755  0.99677  0.97670  Biso   1.000  C
  C552     1.0000 0.50323  0.32755  0.97670  Biso   1.000  C
  C553     1.0000 0.32755  0.50323  0.47670  Biso   1.000  C
  C554     1.0000 0.99677  0.32755  0.47670  Biso   1.000  C
  C555     1.0000 0.82755  0.49677  0.02330  Biso   1.000  C
  C556     1.0000 0.17245  0.99677  0.47670  Biso   1.000  C
  C557     1.0000 0.00323  0.82755  0.02330  Biso   1.000  C
  C558     1.0000 0.50323  0.17245  0.47670  Biso   1.000  C
  C559     1.0000 0.67245  0.00323  0.02330  Biso   1.000  C
  C560     1.0000 0.49677  0.67245  0.02330  Biso   1.000  C
  C561     1.0000 0.68094  0.47461  0.50040  Biso   1.000  C
  C562     1.0000 0.02539  0.68094  0.50040  Biso   1.000  C
  C563     1.0000 0.18094  0.52539  0.99960  Biso   1.000  C
  C564     1.0000 0.81906  0.02539  0.50040  Biso   1.000  C
  C565     1.0000 0.97461  0.18094  0.99960  Biso   1.000  C
  C566     1.0000 0.47461  0.81906  0.50040  Biso   1.000  C
  C567     1.0000 0.31906  0.97461  0.99960  Biso   1.000  C
  C568     1.0000 0.52539  0.31906  0.99960  Biso   1.000  C
  C569     1.0000 0.31906  0.52539  0.49960  Biso   1.000  C
  C570     1.0000 0.97461  0.31906  0.49960  Biso   1.000  C
  C571     1.0000 0.81906  0.47461  0.00040  Biso   1.000  C
  C572     1.0000 0.18094  0.97461  0.49960  Biso   1.000  C
  C573     1.0000 0.02539  0.81906  0.00040  Biso   1.000  C
  C574     1.0000 0.52539  0.18094  0.49960  Biso   1.000  C
  C575     1.0000 0.68094  0.02539  0.00040  Biso   1.000  C
  C576     1.0000 0.47461  0.68094  0.00040  Biso   1.000  C
  H465     1.0000 0.68200  0.45680  0.51150  Biso   1.000  H
  H466     1.0000 0.04320  0.68200  0.51150  Biso   1.000  H
  H467     1.0000 0.18200  0.54320  0.98850  Biso   1.000  H
  H468     1.0000 0.81800  0.04320  0.51150  Biso   1.000  H
  H469     1.0000 0.95680  0.18200  0.98850  Biso   1.000  H
  H470     1.0000 0.45680  0.81800  0.51150  Biso   1.000  H
  H471     1.0000 0.31800  0.95680  0.98850  Biso   1.000  H
  H472     1.0000 0.54320  0.31800  0.98850  Biso   1.000  H
  H473     1.0000 0.31800  0.54320  0.48850  Biso   1.000  H
  H474     1.0000 0.95680  0.31800  0.48850  Biso   1.000  H
  H475     1.0000 0.81800  0.45680  0.01150  Biso   1.000  H
  H476     1.0000 0.18200  0.95680  0.48850  Biso   1.000  H
  H477     1.0000 0.04320  0.81800  0.01150  Biso   1.000  H
  H478     1.0000 0.54320  0.18200  0.48850  Biso   1.000  H
  H479     1.0000 0.68200  0.04320  0.01150  Biso   1.000  H
  H480     1.0000 0.45680  0.68200  0.01150  Biso   1.000  H
  C577     1.0000 0.68768  0.47910  0.46180  Biso   1.000  C
  C578     1.0000 0.02090  0.68768  0.46180  Biso   1.000  C
  C579     1.0000 0.18768  0.52090  0.03820  Biso   1.000  C
  C580     1.0000 0.81232  0.02090  0.46180  Biso   1.000  C
  C581     1.0000 0.97910  0.18768  0.03820  Biso   1.000  C
  C582     1.0000 0.47910  0.81232  0.46180  Biso   1.000  C
  C583     1.0000 0.31232  0.97910  0.03820  Biso   1.000  C
  C584     1.0000 0.52090  0.31232  0.03820  Biso   1.000  C
  C585     1.0000 0.31232  0.52090  0.53820  Biso   1.000  C
  C586     1.0000 0.97910  0.31232  0.53820  Biso   1.000  C
  C587     1.0000 0.81232  0.47910  0.96180  Biso   1.000  C
  C588     1.0000 0.18768  0.97910  0.53820  Biso   1.000  C
  C589     1.0000 0.02090  0.81232  0.96180  Biso   1.000  C
  C590     1.0000 0.52090  0.18768  0.53820  Biso   1.000  C
  C591     1.0000 0.68768  0.02090  0.96180  Biso   1.000  C
  C592     1.0000 0.47910  0.68768  0.96180  Biso   1.000  C
  H481     1.0000 0.69340  0.46420  0.44590  Biso   1.000  H
  H482     1.0000 0.03580  0.69340  0.44590  Biso   1.000  H
  H483     1.0000 0.19340  0.53580  0.05410  Biso   1.000  H
  H484     1.0000 0.80660  0.03580  0.44590  Biso   1.000  H
  H485     1.0000 0.96420  0.19340  0.05410  Biso   1.000  H
  H486     1.0000 0.46420  0.80660  0.44590  Biso   1.000  H
  H487     1.0000 0.30660  0.96420  0.05410  Biso   1.000  H
  H488     1.0000 0.53580  0.30660  0.05410  Biso   1.000  H
  H489     1.0000 0.30660  0.53580  0.55410  Biso   1.000  H
  H490     1.0000 0.96420  0.30660  0.55410  Biso   1.000  H
  H491     1.0000 0.80660  0.46420  0.94590  Biso   1.000  H
  H492     1.0000 0.19340  0.96420  0.55410  Biso   1.000  H
  H493     1.0000 0.03580  0.80660  0.94590  Biso   1.000  H
  H494     1.0000 0.53580  0.19340  0.55410  Biso   1.000  H
  H495     1.0000 0.69340  0.03580  0.94590  Biso   1.000  H
  H496     1.0000 0.46420  0.69340  0.94590  Biso   1.000  H
  C593     1.0000 0.68614  0.50680  0.44430  Biso   1.000  C
  C594     1.0000 0.99320  0.68614  0.44430  Biso   1.000  C
  C595     1.0000 0.18614  0.49320  0.05570  Biso   1.000  C
  C596     1.0000 0.81386  0.99320  0.44430  Biso   1.000  C
  C597     1.0000 0.00680  0.18614  0.05570  Biso   1.000  C
  C598     1.0000 0.50680  0.81386  0.44430  Biso   1.000  C
  C599     1.0000 0.31386  0.00680  0.05570  Biso   1.000  C
  C600     1.0000 0.49320  0.31386  0.05570  Biso   1.000  C
  C601     1.0000 0.31386  0.49320  0.55570  Biso   1.000  C
  C602     1.0000 0.00680  0.31386  0.55570  Biso   1.000  C
  C603     1.0000 0.81386  0.50680  0.94430  Biso   1.000  C
  C604     1.0000 0.18614  0.00680  0.55570  Biso   1.000  C
  C605     1.0000 0.99320  0.81386  0.94430  Biso   1.000  C
  C606     1.0000 0.49320  0.18614  0.55570  Biso   1.000  C
  C607     1.0000 0.68614  0.99320  0.94430  Biso   1.000  C
  C608     1.0000 0.50680  0.68614  0.94430  Biso   1.000  C
  H497     1.0000 0.69130  0.50970  0.41750  Biso   1.000  H
  H498     1.0000 0.99030  0.69130  0.41750  Biso   1.000  H
  H499     1.0000 0.19130  0.49030  0.08250  Biso   1.000  H
  H500     1.0000 0.80870  0.99030  0.41750  Biso   1.000  H
  H501     1.0000 0.00970  0.19130  0.08250  Biso   1.000  H
  H502     1.0000 0.50970  0.80870  0.41750  Biso   1.000  H
  H503     1.0000 0.30870  0.00970  0.08250  Biso   1.000  H
  H504     1.0000 0.49030  0.30870  0.08250  Biso   1.000  H
  H505     1.0000 0.30870  0.49030  0.58250  Biso   1.000  H
  H506     1.0000 0.00970  0.30870  0.58250  Biso   1.000  H
  H507     1.0000 0.80870  0.50970  0.91750  Biso   1.000  H
  H508     1.0000 0.19130  0.00970  0.58250  Biso   1.000  H
  H509     1.0000 0.99030  0.80870  0.91750  Biso   1.000  H
  H510     1.0000 0.49030  0.19130  0.58250  Biso   1.000  H
  H511     1.0000 0.69130  0.99030  0.91750  Biso   1.000  H
  H512     1.0000 0.50970  0.69130  0.91750  Biso   1.000  H
  C609     1.0000 0.67694  0.52875  0.46760  Biso   1.000  C
  C610     1.0000 0.97125  0.67694  0.46760  Biso   1.000  C
  C611     1.0000 0.17694  0.47125  0.03240  Biso   1.000  C
  C612     1.0000 0.82306  0.97125  0.46760  Biso   1.000  C
  C613     1.0000 0.02875  0.17694  0.03240  Biso   1.000  C
  C614     1.0000 0.52875  0.82306  0.46760  Biso   1.000  C
  C615     1.0000 0.32306  0.02875  0.03240  Biso   1.000  C
  C616     1.0000 0.47125  0.32306  0.03240  Biso   1.000  C
  C617     1.0000 0.32306  0.47125  0.53240  Biso   1.000  C
  C618     1.0000 0.02875  0.32306  0.53240  Biso   1.000  C
  C619     1.0000 0.82306  0.52875  0.96760  Biso   1.000  C
  C620     1.0000 0.17694  0.02875  0.53240  Biso   1.000  C
  C621     1.0000 0.97125  0.82306  0.96760  Biso   1.000  C
  C622     1.0000 0.47125  0.17694  0.53240  Biso   1.000  C
  C623     1.0000 0.67694  0.97125  0.96760  Biso   1.000  C
  C624     1.0000 0.52875  0.67694  0.96760  Biso   1.000  C
  H513     1.0000 0.67530  0.54660  0.45710  Biso   1.000  H
  H514     1.0000 0.95340  0.67530  0.45710  Biso   1.000  H
  H515     1.0000 0.17530  0.45340  0.04290  Biso   1.000  H
  H516     1.0000 0.82470  0.95340  0.45710  Biso   1.000  H
  H517     1.0000 0.04660  0.17530  0.04290  Biso   1.000  H
  H518     1.0000 0.54660  0.82470  0.45710  Biso   1.000  H
  H519     1.0000 0.32470  0.04660  0.04290  Biso   1.000  H
  H520     1.0000 0.45340  0.32470  0.04290  Biso   1.000  H
  H521     1.0000 0.32470  0.45340  0.54290  Biso   1.000  H
  H522     1.0000 0.04660  0.32470  0.54290  Biso   1.000  H
  H523     1.0000 0.82470  0.54660  0.95710  Biso   1.000  H
  H524     1.0000 0.17530  0.04660  0.54290  Biso   1.000  H
  H525     1.0000 0.95340  0.82470  0.95710  Biso   1.000  H
  H526     1.0000 0.45340  0.17530  0.54290  Biso   1.000  H
  H527     1.0000 0.67530  0.95340  0.95710  Biso   1.000  H
  H528     1.0000 0.54660  0.67530  0.95710  Biso   1.000  H
  C625     1.0000 0.67053  0.52313  0.50600  Biso   1.000  C
  C626     1.0000 0.97687  0.67053  0.50600  Biso   1.000  C
  C627     1.0000 0.17053  0.47687  0.99400  Biso   1.000  C
  C628     1.0000 0.82947  0.97687  0.50600  Biso   1.000  C
  C629     1.0000 0.02313  0.17053  0.99400  Biso   1.000  C
  C630     1.0000 0.52313  0.82947  0.50600  Biso   1.000  C
  C631     1.0000 0.32947  0.02313  0.99400  Biso   1.000  C
  C632     1.0000 0.47687  0.32947  0.99400  Biso   1.000  C
  C633     1.0000 0.32947  0.47687  0.49400  Biso   1.000  C
  C634     1.0000 0.02313  0.32947  0.49400  Biso   1.000  C
  C635     1.0000 0.82947  0.52313  0.00600  Biso   1.000  C
  C636     1.0000 0.17053  0.02313  0.49400  Biso   1.000  C
  C637     1.0000 0.97687  0.82947  0.00600  Biso   1.000  C
  C638     1.0000 0.47687  0.17053  0.49400  Biso   1.000  C
  C639     1.0000 0.67053  0.97687  0.00600  Biso   1.000  C
  C640     1.0000 0.52313  0.67053  0.00600  Biso   1.000  C
  C641     1.0000 0.65464  0.56924  0.53130  Biso   1.000  C
  C642     1.0000 0.93076  0.65464  0.53130  Biso   1.000  C
  C643     1.0000 0.15464  0.43076  0.96870  Biso   1.000  C
  C644     1.0000 0.84536  0.93076  0.53130  Biso   1.000  C
  C645     1.0000 0.06924  0.15464  0.96870  Biso   1.000  C
  C646     1.0000 0.56924  0.84536  0.53130  Biso   1.000  C
  C647     1.0000 0.34536  0.06924  0.96870  Biso   1.000  C
  C648     1.0000 0.43076  0.34536  0.96870  Biso   1.000  C
  C649     1.0000 0.34536  0.43076  0.46870  Biso   1.000  C
  C650     1.0000 0.06924  0.34536  0.46870  Biso   1.000  C
  C651     1.0000 0.84536  0.56924  0.03130  Biso   1.000  C
  C652     1.0000 0.15464  0.06924  0.46870  Biso   1.000  C
  C653     1.0000 0.93076  0.84536  0.03130  Biso   1.000  C
  C654     1.0000 0.43076  0.15464  0.46870  Biso   1.000  C
  C655     1.0000 0.65464  0.93076  0.03130  Biso   1.000  C
  C656     1.0000 0.56924  0.65464  0.03130  Biso   1.000  C
  H529     1.0000 0.64320  0.57100  0.50770  Biso   1.000  H
  H530     1.0000 0.92900  0.64320  0.50770  Biso   1.000  H
  H531     1.0000 0.14320  0.42900  0.99230  Biso   1.000  H
  H532     1.0000 0.85680  0.92900  0.50770  Biso   1.000  H
  H533     1.0000 0.07100  0.14320  0.99230  Biso   1.000  H
  H534     1.0000 0.57100  0.85680  0.50770  Biso   1.000  H
  H535     1.0000 0.35680  0.07100  0.99230  Biso   1.000  H
  H536     1.0000 0.42900  0.35680  0.99230  Biso   1.000  H
  H537     1.0000 0.35680  0.42900  0.49230  Biso   1.000  H
  H538     1.0000 0.07100  0.35680  0.49230  Biso   1.000  H
  H539     1.0000 0.85680  0.57100  0.00770  Biso   1.000  H
  H540     1.0000 0.14320  0.07100  0.49230  Biso   1.000  H
  H541     1.0000 0.92900  0.85680  0.00770  Biso   1.000  H
  H542     1.0000 0.42900  0.14320  0.49230  Biso   1.000  H
  H543     1.0000 0.64320  0.92900  0.00770  Biso   1.000  H
  H544     1.0000 0.57100  0.64320  0.00770  Biso   1.000  H
  H545     1.0000 0.67130  0.58010  0.52780  Biso   1.000  H
  H546     1.0000 0.91990  0.67130  0.52780  Biso   1.000  H
  H547     1.0000 0.17130  0.41990  0.97220  Biso   1.000  H
  H548     1.0000 0.82870  0.91990  0.52780  Biso   1.000  H
  H549     1.0000 0.08010  0.17130  0.97220  Biso   1.000  H
  H550     1.0000 0.58010  0.82870  0.52780  Biso   1.000  H
  H551     1.0000 0.32870  0.08010  0.97220  Biso   1.000  H
  H552     1.0000 0.41990  0.32870  0.97220  Biso   1.000  H
  H553     1.0000 0.32870  0.41990  0.47220  Biso   1.000  H
  H554     1.0000 0.08010  0.32870  0.47220  Biso   1.000  H
  H555     1.0000 0.82870  0.58010  0.02780  Biso   1.000  H
  H556     1.0000 0.17130  0.08010  0.47220  Biso   1.000  H
  H557     1.0000 0.91990  0.82870  0.02780  Biso   1.000  H
  H558     1.0000 0.41990  0.17130  0.47220  Biso   1.000  H
  H559     1.0000 0.67130  0.91990  0.02780  Biso   1.000  H
  H560     1.0000 0.58010  0.67130  0.02780  Biso   1.000  H
  H561     1.0000 0.64460  0.57590  0.55440  Biso   1.000  H
  H562     1.0000 0.92410  0.64460  0.55440  Biso   1.000  H
  H563     1.0000 0.14460  0.42410  0.94560  Biso   1.000  H
  H564     1.0000 0.85540  0.92410  0.55440  Biso   1.000  H
  H565     1.0000 0.07590  0.14460  0.94560  Biso   1.000  H
  H566     1.0000 0.57590  0.85540  0.55440  Biso   1.000  H
  H567     1.0000 0.35540  0.07590  0.94560  Biso   1.000  H
  H568     1.0000 0.42410  0.35540  0.94560  Biso   1.000  H
  H569     1.0000 0.35540  0.42410  0.44560  Biso   1.000  H
  H570     1.0000 0.07590  0.35540  0.44560  Biso   1.000  H
  H571     1.0000 0.85540  0.57590  0.05440  Biso   1.000  H
  H572     1.0000 0.14460  0.07590  0.44560  Biso   1.000  H
  H573     1.0000 0.92410  0.85540  0.05440  Biso   1.000  H
  H574     1.0000 0.42410  0.14460  0.44560  Biso   1.000  H
  H575     1.0000 0.64460  0.92410  0.05440  Biso   1.000  H
  H576     1.0000 0.57590  0.64460  0.05440  Biso   1.000  H
  C657     1.0000 0.65187  0.53469  0.60970  Biso   1.000  C
  C658     1.0000 0.96531  0.65187  0.60970  Biso   1.000  C
  C659     1.0000 0.15187  0.46531  0.89030  Biso   1.000  C
  C660     1.0000 0.84813  0.96531  0.60970  Biso   1.000  C
  C661     1.0000 0.03469  0.15187  0.89030  Biso   1.000  C
  C662     1.0000 0.53469  0.84813  0.60970  Biso   1.000  C
  C663     1.0000 0.34813  0.03469  0.89030  Biso   1.000  C
  C664     1.0000 0.46531  0.34813  0.89030  Biso   1.000  C
  C665     1.0000 0.34813  0.46531  0.39030  Biso   1.000  C
  C666     1.0000 0.03469  0.34813  0.39030  Biso   1.000  C
  C667     1.0000 0.84813  0.53469  0.10970  Biso   1.000  C
  C668     1.0000 0.15187  0.03469  0.39030  Biso   1.000  C
  C669     1.0000 0.96531  0.84813  0.10970  Biso   1.000  C
  C670     1.0000 0.46531  0.15187  0.39030  Biso   1.000  C
  C671     1.0000 0.65187  0.96531  0.10970  Biso   1.000  C
  C672     1.0000 0.53469  0.65187  0.10970  Biso   1.000  C
  C673     1.0000 0.63394  0.52027  0.63450  Biso   1.000  C
  C674     1.0000 0.97973  0.63394  0.63450  Biso   1.000  C
  C675     1.0000 0.13394  0.47973  0.86550  Biso   1.000  C
  C676     1.0000 0.86606  0.97973  0.63450  Biso   1.000  C
  C677     1.0000 0.02027  0.13394  0.86550  Biso   1.000  C
  C678     1.0000 0.52027  0.86606  0.63450  Biso   1.000  C
  C679     1.0000 0.36606  0.02027  0.86550  Biso   1.000  C
  C680     1.0000 0.47973  0.36606  0.86550  Biso   1.000  C
  C681     1.0000 0.36606  0.47973  0.36550  Biso   1.000  C
  C682     1.0000 0.02027  0.36606  0.36550  Biso   1.000  C
  C683     1.0000 0.86606  0.52027  0.13450  Biso   1.000  C
  C684     1.0000 0.13394  0.02027  0.36550  Biso   1.000  C
  C685     1.0000 0.97973  0.86606  0.13450  Biso   1.000  C
  C686     1.0000 0.47973  0.13394  0.36550  Biso   1.000  C
  C687     1.0000 0.63394  0.97973  0.13450  Biso   1.000  C
  C688     1.0000 0.52027  0.63394  0.13450  Biso   1.000  C
  H577     1.0000 0.62550  0.50390  0.62580  Biso   1.000  H
  H578     1.0000 0.99610  0.62550  0.62580  Biso   1.000  H
  H579     1.0000 0.12550  0.49610  0.87420  Biso   1.000  H
  H580     1.0000 0.87450  0.99610  0.62580  Biso   1.000  H
  H581     1.0000 0.00390  0.12550  0.87420  Biso   1.000  H
  H582     1.0000 0.50390  0.87450  0.62580  Biso   1.000  H
  H583     1.0000 0.37450  0.00390  0.87420  Biso   1.000  H
  H584     1.0000 0.49610  0.37450  0.87420  Biso   1.000  H
  H585     1.0000 0.37450  0.49610  0.37420  Biso   1.000  H
  H586     1.0000 0.00390  0.37450  0.37420  Biso   1.000  H
  H587     1.0000 0.87450  0.50390  0.12580  Biso   1.000  H
  H588     1.0000 0.12550  0.00390  0.37420  Biso   1.000  H
  H589     1.0000 0.99610  0.87450  0.12580  Biso   1.000  H
  H590     1.0000 0.49610  0.12550  0.37420  Biso   1.000  H
  H591     1.0000 0.62550  0.99610  0.12580  Biso   1.000  H
  H592     1.0000 0.50390  0.62550  0.12580  Biso   1.000  H
  C689     1.0000 0.62910  0.53003  0.67030  Biso   1.000  C
  C690     1.0000 0.96997  0.62910  0.67030  Biso   1.000  C
  C691     1.0000 0.12910  0.46997  0.82970  Biso   1.000  C
  C692     1.0000 0.87090  0.96997  0.67030  Biso   1.000  C
  C693     1.0000 0.03003  0.12910  0.82970  Biso   1.000  C
  C694     1.0000 0.53003  0.87090  0.67030  Biso   1.000  C
  C695     1.0000 0.37090  0.03003  0.82970  Biso   1.000  C
  C696     1.0000 0.46997  0.37090  0.82970  Biso   1.000  C
  C697     1.0000 0.37090  0.46997  0.32970  Biso   1.000  C
  C698     1.0000 0.03003  0.37090  0.32970  Biso   1.000  C
  C699     1.0000 0.87090  0.53003  0.17030  Biso   1.000  C
  C700     1.0000 0.12910  0.03003  0.32970  Biso   1.000  C
  C701     1.0000 0.96997  0.87090  0.17030  Biso   1.000  C
  C702     1.0000 0.46997  0.12910  0.32970  Biso   1.000  C
  C703     1.0000 0.62910  0.96997  0.17030  Biso   1.000  C
  C704     1.0000 0.53003  0.62910  0.17030  Biso   1.000  C
  C705     1.0000 0.61663  0.53950  0.73480  Biso   1.000  C
  C706     1.0000 0.96050  0.61663  0.73480  Biso   1.000  C
  C707     1.0000 0.11663  0.46050  0.76520  Biso   1.000  C
  C708     1.0000 0.88337  0.96050  0.73480  Biso   1.000  C
  C709     1.0000 0.03950  0.11663  0.76520  Biso   1.000  C
  C710     1.0000 0.53950  0.88337  0.73480  Biso   1.000  C
  C711     1.0000 0.38337  0.03950  0.76520  Biso   1.000  C
  C712     1.0000 0.46050  0.38337  0.76520  Biso   1.000  C
  C713     1.0000 0.38337  0.46050  0.26520  Biso   1.000  C
  C714     1.0000 0.03950  0.38337  0.26520  Biso   1.000  C
  C715     1.0000 0.88337  0.53950  0.23480  Biso   1.000  C
  C716     1.0000 0.11663  0.03950  0.26520  Biso   1.000  C
  C717     1.0000 0.96050  0.88337  0.23480  Biso   1.000  C
  C718     1.0000 0.46050  0.11663  0.26520  Biso   1.000  C
  C719     1.0000 0.61663  0.96050  0.23480  Biso   1.000  C
  C720     1.0000 0.53950  0.61663  0.23480  Biso   1.000  C
  C721     1.0000 0.64232  0.55491  0.68460  Biso   1.000  C
  C722     1.0000 0.94509  0.64232  0.68460  Biso   1.000  C
  C723     1.0000 0.14232  0.44509  0.81540  Biso   1.000  C
  C724     1.0000 0.85768  0.94509  0.68460  Biso   1.000  C
  C725     1.0000 0.05491  0.14232  0.81540  Biso   1.000  C
  C726     1.0000 0.55491  0.85768  0.68460  Biso   1.000  C
  C727     1.0000 0.35768  0.05491  0.81540  Biso   1.000  C
  C728     1.0000 0.44509  0.35768  0.81540  Biso   1.000  C
  C729     1.0000 0.35768  0.44509  0.31540  Biso   1.000  C
  C730     1.0000 0.05491  0.35768  0.31540  Biso   1.000  C
  C731     1.0000 0.85768  0.55491  0.18460  Biso   1.000  C
  C732     1.0000 0.14232  0.05491  0.31540  Biso   1.000  C
  C733     1.0000 0.94509  0.85768  0.18460  Biso   1.000  C
  C734     1.0000 0.44509  0.14232  0.31540  Biso   1.000  C
  C735     1.0000 0.64232  0.94509  0.18460  Biso   1.000  C
  C736     1.0000 0.55491  0.64232  0.18460  Biso   1.000  C
  C737     1.0000 0.65964  0.56929  0.66190  Biso   1.000  C
  C738     1.0000 0.93071  0.65964  0.66190  Biso   1.000  C
  C739     1.0000 0.15964  0.43071  0.83810  Biso   1.000  C
  C740     1.0000 0.84036  0.93071  0.66190  Biso   1.000  C
  C741     1.0000 0.06929  0.15964  0.83810  Biso   1.000  C
  C742     1.0000 0.56929  0.84036  0.66190  Biso   1.000  C
  C743     1.0000 0.34036  0.06929  0.83810  Biso   1.000  C
  C744     1.0000 0.43071  0.34036  0.83810  Biso   1.000  C
  C745     1.0000 0.34036  0.43071  0.33810  Biso   1.000  C
  C746     1.0000 0.06929  0.34036  0.33810  Biso   1.000  C
  C747     1.0000 0.84036  0.56929  0.16190  Biso   1.000  C
  C748     1.0000 0.15964  0.06929  0.33810  Biso   1.000  C
  C749     1.0000 0.93071  0.84036  0.16190  Biso   1.000  C
  C750     1.0000 0.43071  0.15964  0.33810  Biso   1.000  C
  C751     1.0000 0.65964  0.93071  0.16190  Biso   1.000  C
  C752     1.0000 0.56929  0.65964  0.16190  Biso   1.000  C
  C753     1.0000 0.66461  0.55959  0.62410  Biso   1.000  C
  C754     1.0000 0.94041  0.66461  0.62410  Biso   1.000  C
  C755     1.0000 0.16461  0.44041  0.87590  Biso   1.000  C
  C756     1.0000 0.83539  0.94041  0.62410  Biso   1.000  C
  C757     1.0000 0.05959  0.16461  0.87590  Biso   1.000  C
  C758     1.0000 0.55959  0.83539  0.62410  Biso   1.000  C
  C759     1.0000 0.33539  0.05959  0.87590  Biso   1.000  C
  C760     1.0000 0.44041  0.33539  0.87590  Biso   1.000  C
  C761     1.0000 0.33539  0.44041  0.37590  Biso   1.000  C
  C762     1.0000 0.05959  0.33539  0.37590  Biso   1.000  C
  C763     1.0000 0.83539  0.55959  0.12410  Biso   1.000  C
  C764     1.0000 0.16461  0.05959  0.37590  Biso   1.000  C
  C765     1.0000 0.94041  0.83539  0.12410  Biso   1.000  C
  C766     1.0000 0.44041  0.16461  0.37590  Biso   1.000  C
  C767     1.0000 0.66461  0.94041  0.12410  Biso   1.000  C
  C768     1.0000 0.55959  0.66461  0.12410  Biso   1.000  C
  H593     1.0000 0.67660  0.56940  0.60730  Biso   1.000  H
  H594     1.0000 0.93060  0.67660  0.60730  Biso   1.000  H
  H595     1.0000 0.17660  0.43060  0.89270  Biso   1.000  H
  H596     1.0000 0.82340  0.93060  0.60730  Biso   1.000  H
  H597     1.0000 0.06940  0.17660  0.89270  Biso   1.000  H
  H598     1.0000 0.56940  0.82340  0.60730  Biso   1.000  H
  H599     1.0000 0.32340  0.06940  0.89270  Biso   1.000  H
  H600     1.0000 0.43060  0.32340  0.89270  Biso   1.000  H
  H601     1.0000 0.32340  0.43060  0.39270  Biso   1.000  H
  H602     1.0000 0.06940  0.32340  0.39270  Biso   1.000  H
  H603     1.0000 0.82340  0.56940  0.10730  Biso   1.000  H
  H604     1.0000 0.17660  0.06940  0.39270  Biso   1.000  H
  H605     1.0000 0.93060  0.82340  0.10730  Biso   1.000  H
  H606     1.0000 0.43060  0.17660  0.39270  Biso   1.000  H
  H607     1.0000 0.67660  0.93060  0.10730  Biso   1.000  H
  H608     1.0000 0.56940  0.67660  0.10730  Biso   1.000  H
  C769     1.0000 0.67453  0.59512  0.67780  Biso   1.000  C
  C770     1.0000 0.90488  0.67453  0.67780  Biso   1.000  C
  C771     1.0000 0.17453  0.40488  0.82220  Biso   1.000  C
  C772     1.0000 0.82547  0.90488  0.67780  Biso   1.000  C
  C773     1.0000 0.09512  0.17453  0.82220  Biso   1.000  C
  C774     1.0000 0.59512  0.82547  0.67780  Biso   1.000  C
  C775     1.0000 0.32547  0.09512  0.82220  Biso   1.000  C
  C776     1.0000 0.40488  0.32547  0.82220  Biso   1.000  C
  C777     1.0000 0.32547  0.40488  0.32220  Biso   1.000  C
  C778     1.0000 0.09512  0.32547  0.32220  Biso   1.000  C
  C779     1.0000 0.82547  0.59512  0.17780  Biso   1.000  C
  C780     1.0000 0.17453  0.09512  0.32220  Biso   1.000  C
  C781     1.0000 0.90488  0.82547  0.17780  Biso   1.000  C
  C782     1.0000 0.40488  0.17453  0.32220  Biso   1.000  C
  C783     1.0000 0.67453  0.90488  0.17780  Biso   1.000  C
  C784     1.0000 0.59512  0.67453  0.17780  Biso   1.000  C
  H609     1.0000 0.66110  0.60800  0.68830  Biso   1.000  H
  H610     1.0000 0.89200  0.66110  0.68830  Biso   1.000  H
  H611     1.0000 0.16110  0.39200  0.81170  Biso   1.000  H
  H612     1.0000 0.83890  0.89200  0.68830  Biso   1.000  H
  H613     1.0000 0.10800  0.16110  0.81170  Biso   1.000  H
  H614     1.0000 0.60800  0.83890  0.68830  Biso   1.000  H
  H615     1.0000 0.33890  0.10800  0.81170  Biso   1.000  H
  H616     1.0000 0.39200  0.33890  0.81170  Biso   1.000  H
  H617     1.0000 0.33890  0.39200  0.31170  Biso   1.000  H
  H618     1.0000 0.10800  0.33890  0.31170  Biso   1.000  H
  H619     1.0000 0.83890  0.60800  0.18830  Biso   1.000  H
  H620     1.0000 0.16110  0.10800  0.31170  Biso   1.000  H
  H621     1.0000 0.89200  0.83890  0.18830  Biso   1.000  H
  H622     1.0000 0.39200  0.16110  0.31170  Biso   1.000  H
  H623     1.0000 0.66110  0.89200  0.18830  Biso   1.000  H
  H624     1.0000 0.60800  0.66110  0.18830  Biso   1.000  H
  H625     1.0000 0.68470  0.60380  0.65620  Biso   1.000  H
  H626     1.0000 0.89620  0.68470  0.65620  Biso   1.000  H
  H627     1.0000 0.18470  0.39620  0.84380  Biso   1.000  H
  H628     1.0000 0.81530  0.89620  0.65620  Biso   1.000  H
  H629     1.0000 0.10380  0.18470  0.84380  Biso   1.000  H
  H630     1.0000 0.60380  0.81530  0.65620  Biso   1.000  H
  H631     1.0000 0.31530  0.10380  0.84380  Biso   1.000  H
  H632     1.0000 0.39620  0.31530  0.84380  Biso   1.000  H
  H633     1.0000 0.31530  0.39620  0.34380  Biso   1.000  H
  H634     1.0000 0.10380  0.31530  0.34380  Biso   1.000  H
  H635     1.0000 0.81530  0.60380  0.15620  Biso   1.000  H
  H636     1.0000 0.18470  0.10380  0.34380  Biso   1.000  H
  H637     1.0000 0.89620  0.81530  0.15620  Biso   1.000  H
  H638     1.0000 0.39620  0.18470  0.34380  Biso   1.000  H
  H639     1.0000 0.68470  0.89620  0.15620  Biso   1.000  H
  H640     1.0000 0.60380  0.68470  0.15620  Biso   1.000  H
  H641     1.0000 0.68720  0.58980  0.69880  Biso   1.000  H
  H642     1.0000 0.91020  0.68720  0.69880  Biso   1.000  H
  H643     1.0000 0.18720  0.41020  0.80120  Biso   1.000  H
  H644     1.0000 0.81280  0.91020  0.69880  Biso   1.000  H
  H645     1.0000 0.08980  0.18720  0.80120  Biso   1.000  H
  H646     1.0000 0.58980  0.81280  0.69880  Biso   1.000  H
  H647     1.0000 0.31280  0.08980  0.80120  Biso   1.000  H
  H648     1.0000 0.41020  0.31280  0.80120  Biso   1.000  H
  H649     1.0000 0.31280  0.41020  0.30120  Biso   1.000  H
  H650     1.0000 0.08980  0.31280  0.30120  Biso   1.000  H
  H651     1.0000 0.81280  0.58980  0.19880  Biso   1.000  H
  H652     1.0000 0.18720  0.08980  0.30120  Biso   1.000  H
  H653     1.0000 0.91020  0.81280  0.19880  Biso   1.000  H
  H654     1.0000 0.41020  0.18720  0.30120  Biso   1.000  H
  H655     1.0000 0.68720  0.91020  0.19880  Biso   1.000  H
  H656     1.0000 0.58980  0.68720  0.19880  Biso   1.000  H
  C785     1.0000 0.60307  0.53617  0.77380  Biso   1.000  C
  C786     1.0000 0.96383  0.60307  0.77380  Biso   1.000  C
  C787     1.0000 0.10307  0.46383  0.72620  Biso   1.000  C
  C788     1.0000 0.89693  0.96383  0.77380  Biso   1.000  C
  C789     1.0000 0.03617  0.10307  0.72620  Biso   1.000  C
  C790     1.0000 0.53617  0.89693  0.77380  Biso   1.000  C
  C791     1.0000 0.39693  0.03617  0.72620  Biso   1.000  C
  C792     1.0000 0.46383  0.39693  0.72620  Biso   1.000  C
  C793     1.0000 0.39693  0.46383  0.22620  Biso   1.000  C
  C794     1.0000 0.03617  0.39693  0.22620  Biso   1.000  C
  C795     1.0000 0.89693  0.53617  0.27380  Biso   1.000  C
  C796     1.0000 0.10307  0.03617  0.22620  Biso   1.000  C
  C797     1.0000 0.96383  0.89693  0.27380  Biso   1.000  C
  C798     1.0000 0.46383  0.10307  0.22620  Biso   1.000  C
  C799     1.0000 0.60307  0.96383  0.27380  Biso   1.000  C
  C800     1.0000 0.53617  0.60307  0.27380  Biso   1.000  C
  H657     1.0000 0.59280  0.51870  0.77360  Biso   1.000  H
  H658     1.0000 0.98130  0.59280  0.77360  Biso   1.000  H
  H659     1.0000 0.09280  0.48130  0.72640  Biso   1.000  H
  H660     1.0000 0.90720  0.98130  0.77360  Biso   1.000  H
  H661     1.0000 0.01870  0.09280  0.72640  Biso   1.000  H
  H662     1.0000 0.51870  0.90720  0.77360  Biso   1.000  H
  H663     1.0000 0.40720  0.01870  0.72640  Biso   1.000  H
  H664     1.0000 0.48130  0.40720  0.72640  Biso   1.000  H
  H665     1.0000 0.40720  0.48130  0.22640  Biso   1.000  H
  H666     1.0000 0.01870  0.40720  0.22640  Biso   1.000  H
  H667     1.0000 0.90720  0.51870  0.27360  Biso   1.000  H
  H668     1.0000 0.09280  0.01870  0.22640  Biso   1.000  H
  H669     1.0000 0.98130  0.90720  0.27360  Biso   1.000  H
  H670     1.0000 0.48130  0.09280  0.22640  Biso   1.000  H
  H671     1.0000 0.59280  0.98130  0.27360  Biso   1.000  H
  H672     1.0000 0.51870  0.59280  0.27360  Biso   1.000  H
  H673     1.0000 0.61740  0.53470  0.79440  Biso   1.000  H
  H674     1.0000 0.96530  0.61740  0.79440  Biso   1.000  H
  H675     1.0000 0.11740  0.46530  0.70560  Biso   1.000  H
  H676     1.0000 0.88260  0.96530  0.79440  Biso   1.000  H
  H677     1.0000 0.03470  0.11740  0.70560  Biso   1.000  H
  H678     1.0000 0.53470  0.88260  0.79440  Biso   1.000  H
  H679     1.0000 0.38260  0.03470  0.70560  Biso   1.000  H
  H680     1.0000 0.46530  0.38260  0.70560  Biso   1.000  H
  H681     1.0000 0.38260  0.46530  0.20560  Biso   1.000  H
  H682     1.0000 0.03470  0.38260  0.20560  Biso   1.000  H
  H683     1.0000 0.88260  0.53470  0.29440  Biso   1.000  H
  H684     1.0000 0.11740  0.03470  0.20560  Biso   1.000  H
  H685     1.0000 0.96530  0.88260  0.29440  Biso   1.000  H
  H686     1.0000 0.46530  0.11740  0.20560  Biso   1.000  H
  H687     1.0000 0.61740  0.96530  0.29440  Biso   1.000  H
  H688     1.0000 0.53470  0.61740  0.29440  Biso   1.000  H
  C801     1.0000 0.58420  0.55820  0.78500  Biso   1.000  C
  C802     1.0000 0.94180  0.58420  0.78500  Biso   1.000  C
  C803     1.0000 0.08420  0.44180  0.71500  Biso   1.000  C
  C804     1.0000 0.91580  0.94180  0.78500  Biso   1.000  C
  C805     1.0000 0.05820  0.08420  0.71500  Biso   1.000  C
  C806     1.0000 0.55820  0.91580  0.78500  Biso   1.000  C
  C807     1.0000 0.41580  0.05820  0.71500  Biso   1.000  C
  C808     1.0000 0.44180  0.41580  0.71500  Biso   1.000  C
  C809     1.0000 0.41580  0.44180  0.21500  Biso   1.000  C
  C810     1.0000 0.05820  0.41580  0.21500  Biso   1.000  C
  C811     1.0000 0.91580  0.55820  0.28500  Biso   1.000  C
  C812     1.0000 0.08420  0.05820  0.21500  Biso   1.000  C
  C813     1.0000 0.94180  0.91580  0.28500  Biso   1.000  C
  C814     1.0000 0.44180  0.08420  0.21500  Biso   1.000  C
  C815     1.0000 0.58420  0.94180  0.28500  Biso   1.000  C
  C816     1.0000 0.55820  0.58420  0.28500  Biso   1.000  C
  H689     1.0000 0.56900  0.55860  0.76570  Biso   1.000  H
  H690     1.0000 0.94140  0.56900  0.76570  Biso   1.000  H
  H691     1.0000 0.06900  0.44140  0.73430  Biso   1.000  H
  H692     1.0000 0.93100  0.94140  0.76570  Biso   1.000  H
  H693     1.0000 0.05860  0.06900  0.73430  Biso   1.000  H
  H694     1.0000 0.55860  0.93100  0.76570  Biso   1.000  H
  H695     1.0000 0.43100  0.05860  0.73430  Biso   1.000  H
  H696     1.0000 0.44140  0.43100  0.73430  Biso   1.000  H
  H697     1.0000 0.43100  0.44140  0.23430  Biso   1.000  H
  H698     1.0000 0.05860  0.43100  0.23430  Biso   1.000  H
  H699     1.0000 0.93100  0.55860  0.26570  Biso   1.000  H
  H700     1.0000 0.06900  0.05860  0.23430  Biso   1.000  H
  H701     1.0000 0.94140  0.93100  0.26570  Biso   1.000  H
  H702     1.0000 0.44140  0.06900  0.23430  Biso   1.000  H
  H703     1.0000 0.56900  0.94140  0.26570  Biso   1.000  H
  H704     1.0000 0.55860  0.56900  0.26570  Biso   1.000  H
  H705     1.0000 0.59400  0.57580  0.78290  Biso   1.000  H
  H706     1.0000 0.92420  0.59400  0.78290  Biso   1.000  H
  H707     1.0000 0.09400  0.42420  0.71710  Biso   1.000  H
  H708     1.0000 0.90600  0.92420  0.78290  Biso   1.000  H
  H709     1.0000 0.07580  0.09400  0.71710  Biso   1.000  H
  H710     1.0000 0.57580  0.90600  0.78290  Biso   1.000  H
  H711     1.0000 0.40600  0.07580  0.71710  Biso   1.000  H
  H712     1.0000 0.42420  0.40600  0.71710  Biso   1.000  H
  H713     1.0000 0.40600  0.42420  0.21710  Biso   1.000  H
  H714     1.0000 0.07580  0.40600  0.21710  Biso   1.000  H
  H715     1.0000 0.90600  0.57580  0.28290  Biso   1.000  H
  H716     1.0000 0.09400  0.07580  0.21710  Biso   1.000  H
  H717     1.0000 0.92420  0.90600  0.28290  Biso   1.000  H
  H718     1.0000 0.42420  0.09400  0.21710  Biso   1.000  H
  H719     1.0000 0.59400  0.92420  0.28290  Biso   1.000  H
  H720     1.0000 0.57580  0.59400  0.28290  Biso   1.000  H
  C817     1.0000 0.57190  0.55590  0.82730  Biso   1.000  C
  C818     1.0000 0.94410  0.57190  0.82730  Biso   1.000  C
  C819     1.0000 0.07190  0.44410  0.67270  Biso   1.000  C
  C820     1.0000 0.92810  0.94410  0.82730  Biso   1.000  C
  C821     1.0000 0.05590  0.07190  0.67270  Biso   1.000  C
  C822     1.0000 0.55590  0.92810  0.82730  Biso   1.000  C
  C823     1.0000 0.42810  0.05590  0.67270  Biso   1.000  C
  C824     1.0000 0.44410  0.42810  0.67270  Biso   1.000  C
  C825     1.0000 0.42810  0.44410  0.17270  Biso   1.000  C
  C826     1.0000 0.05590  0.42810  0.17270  Biso   1.000  C
  C827     1.0000 0.92810  0.55590  0.32730  Biso   1.000  C
  C828     1.0000 0.07190  0.05590  0.17270  Biso   1.000  C
  C829     1.0000 0.94410  0.92810  0.32730  Biso   1.000  C
  C830     1.0000 0.44410  0.07190  0.17270  Biso   1.000  C
  C831     1.0000 0.57190  0.94410  0.32730  Biso   1.000  C
  C832     1.0000 0.55590  0.57190  0.32730  Biso   1.000  C
  H721     1.0000 0.56220  0.53840  0.82990  Biso   1.000  H
  H722     1.0000 0.96160  0.56220  0.82990  Biso   1.000  H
  H723     1.0000 0.06220  0.46160  0.67010  Biso   1.000  H
  H724     1.0000 0.93780  0.96160  0.82990  Biso   1.000  H
  H725     1.0000 0.03840  0.06220  0.67010  Biso   1.000  H
  H726     1.0000 0.53840  0.93780  0.82990  Biso   1.000  H
  H727     1.0000 0.43780  0.03840  0.67010  Biso   1.000  H
  H728     1.0000 0.46160  0.43780  0.67010  Biso   1.000  H
  H729     1.0000 0.43780  0.46160  0.17010  Biso   1.000  H
  H730     1.0000 0.03840  0.43780  0.17010  Biso   1.000  H
  H731     1.0000 0.93780  0.53840  0.32990  Biso   1.000  H
  H732     1.0000 0.06220  0.03840  0.17010  Biso   1.000  H
  H733     1.0000 0.96160  0.93780  0.32990  Biso   1.000  H
  H734     1.0000 0.46160  0.06220  0.17010  Biso   1.000  H
  H735     1.0000 0.56220  0.96160  0.32990  Biso   1.000  H
  H736     1.0000 0.53840  0.56220  0.32990  Biso   1.000  H
  H737     1.0000 0.55910  0.57090  0.83180  Biso   1.000  H
  H738     1.0000 0.92910  0.55910  0.83180  Biso   1.000  H
  H739     1.0000 0.05910  0.42910  0.66820  Biso   1.000  H
  H740     1.0000 0.94090  0.92910  0.83180  Biso   1.000  H
  H741     1.0000 0.07090  0.05910  0.66820  Biso   1.000  H
  H742     1.0000 0.57090  0.94090  0.83180  Biso   1.000  H
  H743     1.0000 0.44090  0.07090  0.66820  Biso   1.000  H
  H744     1.0000 0.42910  0.44090  0.66820  Biso   1.000  H
  H745     1.0000 0.44090  0.42910  0.16820  Biso   1.000  H
  H746     1.0000 0.07090  0.44090  0.16820  Biso   1.000  H
  H747     1.0000 0.94090  0.57090  0.33180  Biso   1.000  H
  H748     1.0000 0.05910  0.07090  0.16820  Biso   1.000  H
  H749     1.0000 0.92910  0.94090  0.33180  Biso   1.000  H
  H750     1.0000 0.42910  0.05910  0.16820  Biso   1.000  H
  H751     1.0000 0.55910  0.92910  0.33180  Biso   1.000  H
  H752     1.0000 0.57090  0.55910  0.33180  Biso   1.000  H
  H753     1.0000 0.58660  0.55670  0.84690  Biso   1.000  H
  H754     1.0000 0.94330  0.58660  0.84690  Biso   1.000  H
  H755     1.0000 0.08660  0.44330  0.65310  Biso   1.000  H
  H756     1.0000 0.91340  0.94330  0.84690  Biso   1.000  H
  H757     1.0000 0.05670  0.08660  0.65310  Biso   1.000  H
  H758     1.0000 0.55670  0.91340  0.84690  Biso   1.000  H
  H759     1.0000 0.41340  0.05670  0.65310  Biso   1.000  H
  H760     1.0000 0.44330  0.41340  0.65310  Biso   1.000  H
  H761     1.0000 0.41340  0.44330  0.15310  Biso   1.000  H
  H762     1.0000 0.05670  0.41340  0.15310  Biso   1.000  H
  H763     1.0000 0.91340  0.55670  0.34690  Biso   1.000  H
  H764     1.0000 0.08660  0.05670  0.15310  Biso   1.000  H
  H765     1.0000 0.94330  0.91340  0.34690  Biso   1.000  H
  H766     1.0000 0.44330  0.08660  0.15310  Biso   1.000  H
  H767     1.0000 0.58660  0.94330  0.34690  Biso   1.000  H
  H768     1.0000 0.55670  0.58660  0.34690  Biso   1.000  H
  C833     1.0000 0.59643  0.49634  0.70175  Biso   1.000  C
  C834     1.0000 0.00366  0.59643  0.70175  Biso   1.000  C
  C835     1.0000 0.09643  0.50366  0.79825  Biso   1.000  C
  C836     1.0000 0.90357  0.00366  0.70175  Biso   1.000  C
  C837     1.0000 0.99634  0.09643  0.79825  Biso   1.000  C
  C838     1.0000 0.49634  0.90357  0.70175  Biso   1.000  C
  C839     1.0000 0.40357  0.99634  0.79825  Biso   1.000  C
  C840     1.0000 0.50366  0.40357  0.79825  Biso   1.000  C
  C841     1.0000 0.40357  0.50366  0.29825  Biso   1.000  C
  C842     1.0000 0.99634  0.40357  0.29825  Biso   1.000  C
  C843     1.0000 0.90357  0.49634  0.20175  Biso   1.000  C
  C844     1.0000 0.09643  0.99634  0.29825  Biso   1.000  C
  C845     1.0000 0.00366  0.90357  0.20175  Biso   1.000  C
  C846     1.0000 0.50366  0.09643  0.29825  Biso   1.000  C
  C847     1.0000 0.59643  0.00366  0.20175  Biso   1.000  C
  C848     1.0000 0.49634  0.59643  0.20175  Biso   1.000  C
  H769     1.0000 0.59920  0.48620  0.72670  Biso   1.000  H
  H770     1.0000 0.01380  0.59920  0.72670  Biso   1.000  H
  H771     1.0000 0.09920  0.51380  0.77330  Biso   1.000  H
  H772     1.0000 0.90080  0.01380  0.72670  Biso   1.000  H
  H773     1.0000 0.98620  0.09920  0.77330  Biso   1.000  H
  H774     1.0000 0.48620  0.90080  0.72670  Biso   1.000  H
  H775     1.0000 0.40080  0.98620  0.77330  Biso   1.000  H
  H776     1.0000 0.51380  0.40080  0.77330  Biso   1.000  H
  H777     1.0000 0.40080  0.51380  0.27330  Biso   1.000  H
  H778     1.0000 0.98620  0.40080  0.27330  Biso   1.000  H
  H779     1.0000 0.90080  0.48620  0.22670  Biso   1.000  H
  H780     1.0000 0.09920  0.98620  0.27330  Biso   1.000  H
  H781     1.0000 0.01380  0.90080  0.22670  Biso   1.000  H
  H782     1.0000 0.51380  0.09920  0.27330  Biso   1.000  H
  H783     1.0000 0.59920  0.01380  0.22670  Biso   1.000  H
  H784     1.0000 0.48620  0.59920  0.22670  Biso   1.000  H
  H785     1.0000 0.60270  0.48450  0.67980  Biso   1.000  H
  H786     1.0000 0.01550  0.60270  0.67980  Biso   1.000  H
  H787     1.0000 0.10270  0.51550  0.82020  Biso   1.000  H
  H788     1.0000 0.89730  0.01550  0.67980  Biso   1.000  H
  H789     1.0000 0.98450  0.10270  0.82020  Biso   1.000  H
  H790     1.0000 0.48450  0.89730  0.67980  Biso   1.000  H
  H791     1.0000 0.39730  0.98450  0.82020  Biso   1.000  H
  H792     1.0000 0.51550  0.39730  0.82020  Biso   1.000  H
  H793     1.0000 0.39730  0.51550  0.32020  Biso   1.000  H
  H794     1.0000 0.98450  0.39730  0.32020  Biso   1.000  H
  H795     1.0000 0.89730  0.48450  0.17980  Biso   1.000  H
  H796     1.0000 0.10270  0.98450  0.32020  Biso   1.000  H
  H797     1.0000 0.01550  0.89730  0.17980  Biso   1.000  H
  H798     1.0000 0.51550  0.10270  0.32020  Biso   1.000  H
  H799     1.0000 0.60270  0.01550  0.17980  Biso   1.000  H
  H800     1.0000 0.48450  0.60270  0.17980  Biso   1.000  H
  C849     1.0000 0.56520  0.50190  0.69636  Biso   1.000  C
  C850     1.0000 0.99810  0.56520  0.69636  Biso   1.000  C
  C851     1.0000 0.06520  0.49810  0.80364  Biso   1.000  C
  C852     1.0000 0.93480  0.99810  0.69636  Biso   1.000  C
  C853     1.0000 0.00190  0.06520  0.80364  Biso   1.000  C
  C854     1.0000 0.50190  0.93480  0.69636  Biso   1.000  C
  C855     1.0000 0.43480  0.00190  0.80364  Biso   1.000  C
  C856     1.0000 0.49810  0.43480  0.80364  Biso   1.000  C
  C857     1.0000 0.43480  0.49810  0.30364  Biso   1.000  C
  C858     1.0000 0.00190  0.43480  0.30364  Biso   1.000  C
  C859     1.0000 0.93480  0.50190  0.19636  Biso   1.000  C
  C860     1.0000 0.06520  0.00190  0.30364  Biso   1.000  C
  C861     1.0000 0.99810  0.93480  0.19636  Biso   1.000  C
  C862     1.0000 0.49810  0.06520  0.30364  Biso   1.000  C
  C863     1.0000 0.56520  0.99810  0.19636  Biso   1.000  C
  C864     1.0000 0.50190  0.56520  0.19636  Biso   1.000  C
  C865     1.0000 0.55460  0.52865  0.68823  Biso   1.000  C
  C866     1.0000 0.97135  0.55460  0.68823  Biso   1.000  C
  C867     1.0000 0.05460  0.47135  0.81177  Biso   1.000  C
  C868     1.0000 0.94540  0.97135  0.68823  Biso   1.000  C
  C869     1.0000 0.02865  0.05460  0.81177  Biso   1.000  C
  C870     1.0000 0.52865  0.94540  0.68823  Biso   1.000  C
  C871     1.0000 0.44540  0.02865  0.81177  Biso   1.000  C
  C872     1.0000 0.47135  0.44540  0.81177  Biso   1.000  C
  C873     1.0000 0.44540  0.47135  0.31177  Biso   1.000  C
  C874     1.0000 0.02865  0.44540  0.31177  Biso   1.000  C
  C875     1.0000 0.94540  0.52865  0.18823  Biso   1.000  C
  C876     1.0000 0.05460  0.02865  0.31177  Biso   1.000  C
  C877     1.0000 0.97135  0.94540  0.18823  Biso   1.000  C
  C878     1.0000 0.47135  0.05460  0.31177  Biso   1.000  C
  C879     1.0000 0.55460  0.97135  0.18823  Biso   1.000  C
  C880     1.0000 0.52865  0.55460  0.18823  Biso   1.000  C
  H801     1.0000 0.56670  0.54360  0.68500  Biso   1.000  H
  H802     1.0000 0.95640  0.56670  0.68500  Biso   1.000  H
  H803     1.0000 0.06670  0.45640  0.81500  Biso   1.000  H
  H804     1.0000 0.93330  0.95640  0.68500  Biso   1.000  H
  H805     1.0000 0.04360  0.06670  0.81500  Biso   1.000  H
  H806     1.0000 0.54360  0.93330  0.68500  Biso   1.000  H
  H807     1.0000 0.43330  0.04360  0.81500  Biso   1.000  H
  H808     1.0000 0.45640  0.43330  0.81500  Biso   1.000  H
  H809     1.0000 0.43330  0.45640  0.31500  Biso   1.000  H
  H810     1.0000 0.04360  0.43330  0.31500  Biso   1.000  H
  H811     1.0000 0.93330  0.54360  0.18500  Biso   1.000  H
  H812     1.0000 0.06670  0.04360  0.31500  Biso   1.000  H
  H813     1.0000 0.95640  0.93330  0.18500  Biso   1.000  H
  H814     1.0000 0.45640  0.06670  0.31500  Biso   1.000  H
  H815     1.0000 0.56670  0.95640  0.18500  Biso   1.000  H
  H816     1.0000 0.54360  0.56670  0.18500  Biso   1.000  H
  C881     1.0000 0.52653  0.53252  0.68515  Biso   1.000  C
  C882     1.0000 0.96748  0.52653  0.68515  Biso   1.000  C
  C883     1.0000 0.02653  0.46748  0.81485  Biso   1.000  C
  C884     1.0000 0.97347  0.96748  0.68515  Biso   1.000  C
  C885     1.0000 0.03252  0.02653  0.81485  Biso   1.000  C
  C886     1.0000 0.53252  0.97347  0.68515  Biso   1.000  C
  C887     1.0000 0.47347  0.03252  0.81485  Biso   1.000  C
  C888     1.0000 0.46748  0.47347  0.81485  Biso   1.000  C
  C889     1.0000 0.47347  0.46748  0.31485  Biso   1.000  C
  C890     1.0000 0.03252  0.47347  0.31485  Biso   1.000  C
  C891     1.0000 0.97347  0.53252  0.18515  Biso   1.000  C
  C892     1.0000 0.02653  0.03252  0.31485  Biso   1.000  C
  C893     1.0000 0.96748  0.97347  0.18515  Biso   1.000  C
  C894     1.0000 0.46748  0.02653  0.31485  Biso   1.000  C
  C895     1.0000 0.52653  0.96748  0.18515  Biso   1.000  C
  C896     1.0000 0.53252  0.52653  0.18515  Biso   1.000  C
  H817     1.0000 0.51960  0.55040  0.68080  Biso   1.000  H
  H818     1.0000 0.94960  0.51960  0.68080  Biso   1.000  H
  H819     1.0000 0.01960  0.44960  0.81920  Biso   1.000  H
  H820     1.0000 0.98040  0.94960  0.68080  Biso   1.000  H
  H821     1.0000 0.05040  0.01960  0.81920  Biso   1.000  H
  H822     1.0000 0.55040  0.98040  0.68080  Biso   1.000  H
  H823     1.0000 0.48040  0.05040  0.81920  Biso   1.000  H
  H824     1.0000 0.44960  0.48040  0.81920  Biso   1.000  H
  H825     1.0000 0.48040  0.44960  0.31920  Biso   1.000  H
  H826     1.0000 0.05040  0.48040  0.31920  Biso   1.000  H
  H827     1.0000 0.98040  0.55040  0.18080  Biso   1.000  H
  H828     1.0000 0.01960  0.05040  0.31920  Biso   1.000  H
  H829     1.0000 0.94960  0.98040  0.18080  Biso   1.000  H
  H830     1.0000 0.44960  0.01960  0.31920  Biso   1.000  H
  H831     1.0000 0.51960  0.94960  0.18080  Biso   1.000  H
  H832     1.0000 0.55040  0.51960  0.18080  Biso   1.000  H
  C897     1.0000 0.50856  0.51101  0.68826  Biso   1.000  C
  C898     1.0000 0.98899  0.50856  0.68826  Biso   1.000  C
  C899     1.0000 0.00856  0.48899  0.81174  Biso   1.000  C
  C900     1.0000 0.99144  0.98899  0.68826  Biso   1.000  C
  C901     1.0000 0.01101  0.00856  0.81174  Biso   1.000  C
  C902     1.0000 0.51101  0.99144  0.68826  Biso   1.000  C
  C903     1.0000 0.49144  0.01101  0.81174  Biso   1.000  C
  C904     1.0000 0.48899  0.49144  0.81174  Biso   1.000  C
  C905     1.0000 0.49144  0.48899  0.31174  Biso   1.000  C
  C906     1.0000 0.01101  0.49144  0.31174  Biso   1.000  C
  C907     1.0000 0.99144  0.51101  0.18826  Biso   1.000  C
  C908     1.0000 0.00856  0.01101  0.31174  Biso   1.000  C
  C909     1.0000 0.98899  0.99144  0.18826  Biso   1.000  C
  C910     1.0000 0.48899  0.00856  0.31174  Biso   1.000  C
  C911     1.0000 0.50856  0.98899  0.18826  Biso   1.000  C
  C912     1.0000 0.51101  0.50856  0.18826  Biso   1.000  C
  C913     1.0000 0.51922  0.48482  0.69528  Biso   1.000  C
  C914     1.0000 0.01518  0.51922  0.69528  Biso   1.000  C
  C915     1.0000 0.01922  0.51518  0.80472  Biso   1.000  C
  C916     1.0000 0.98078  0.01518  0.69528  Biso   1.000  C
  C917     1.0000 0.98482  0.01922  0.80472  Biso   1.000  C
  C918     1.0000 0.48482  0.98078  0.69528  Biso   1.000  C
  C919     1.0000 0.48078  0.98482  0.80472  Biso   1.000  C
  C920     1.0000 0.51518  0.48078  0.80472  Biso   1.000  C
  C921     1.0000 0.48078  0.51518  0.30472  Biso   1.000  C
  C922     1.0000 0.98482  0.48078  0.30472  Biso   1.000  C
  C923     1.0000 0.98078  0.48482  0.19528  Biso   1.000  C
  C924     1.0000 0.01922  0.98482  0.30472  Biso   1.000  C
  C925     1.0000 0.01518  0.98078  0.19528  Biso   1.000  C
  C926     1.0000 0.51518  0.01922  0.30472  Biso   1.000  C
  C927     1.0000 0.51922  0.01518  0.19528  Biso   1.000  C
  C928     1.0000 0.48482  0.51922  0.19528  Biso   1.000  C
  H833     1.0000 0.50720  0.46970  0.69710  Biso   1.000  H
  H834     1.0000 0.03030  0.50720  0.69710  Biso   1.000  H
  H835     1.0000 0.00720  0.53030  0.80290  Biso   1.000  H
  H836     1.0000 0.99280  0.03030  0.69710  Biso   1.000  H
  H837     1.0000 0.96970  0.00720  0.80290  Biso   1.000  H
  H838     1.0000 0.46970  0.99280  0.69710  Biso   1.000  H
  H839     1.0000 0.49280  0.96970  0.80290  Biso   1.000  H
  H840     1.0000 0.53030  0.49280  0.80290  Biso   1.000  H
  H841     1.0000 0.49280  0.53030  0.30290  Biso   1.000  H
  H842     1.0000 0.96970  0.49280  0.30290  Biso   1.000  H
  H843     1.0000 0.99280  0.46970  0.19710  Biso   1.000  H
  H844     1.0000 0.00720  0.96970  0.30290  Biso   1.000  H
  H845     1.0000 0.03030  0.99280  0.19710  Biso   1.000  H
  H846     1.0000 0.53030  0.00720  0.30290  Biso   1.000  H
  H847     1.0000 0.50720  0.03030  0.19710  Biso   1.000  H
  H848     1.0000 0.46970  0.50720  0.19710  Biso   1.000  H
  C929     1.0000 0.54720  0.48090  0.69953  Biso   1.000  C
  C930     1.0000 0.01910  0.54720  0.69953  Biso   1.000  C
  C931     1.0000 0.04720  0.51910  0.80047  Biso   1.000  C
  C932     1.0000 0.95280  0.01910  0.69953  Biso   1.000  C
  C933     1.0000 0.98090  0.04720  0.80047  Biso   1.000  C
  C934     1.0000 0.48090  0.95280  0.69953  Biso   1.000  C
  C935     1.0000 0.45280  0.98090  0.80047  Biso   1.000  C
  C936     1.0000 0.51910  0.45280  0.80047  Biso   1.000  C
  C937     1.0000 0.45280  0.51910  0.30047  Biso   1.000  C
  C938     1.0000 0.98090  0.45280  0.30047  Biso   1.000  C
  C939     1.0000 0.95280  0.48090  0.19953  Biso   1.000  C
  C940     1.0000 0.04720  0.98090  0.30047  Biso   1.000  C
  C941     1.0000 0.01910  0.95280  0.19953  Biso   1.000  C
  C942     1.0000 0.51910  0.04720  0.30047  Biso   1.000  C
  C943     1.0000 0.54720  0.01910  0.19953  Biso   1.000  C
  C944     1.0000 0.48090  0.54720  0.19953  Biso   1.000  C
  H849     1.0000 0.55390  0.46310  0.70480  Biso   1.000  H
  H850     1.0000 0.03690  0.55390  0.70480  Biso   1.000  H
  H851     1.0000 0.05390  0.53690  0.79520  Biso   1.000  H
  H852     1.0000 0.94610  0.03690  0.70480  Biso   1.000  H
  H853     1.0000 0.96310  0.05390  0.79520  Biso   1.000  H
  H854     1.0000 0.46310  0.94610  0.70480  Biso   1.000  H
  H855     1.0000 0.44610  0.96310  0.79520  Biso   1.000  H
  H856     1.0000 0.53690  0.44610  0.79520  Biso   1.000  H
  H857     1.0000 0.44610  0.53690  0.29520  Biso   1.000  H
  H858     1.0000 0.96310  0.44610  0.29520  Biso   1.000  H
  H859     1.0000 0.94610  0.46310  0.20480  Biso   1.000  H
  H860     1.0000 0.05390  0.96310  0.29520  Biso   1.000  H
  H861     1.0000 0.03690  0.94610  0.20480  Biso   1.000  H
  H862     1.0000 0.53690  0.05390  0.29520  Biso   1.000  H
  H863     1.0000 0.55390  0.03690  0.20480  Biso   1.000  H
  H864     1.0000 0.46310  0.55390  0.20480  Biso   1.000  H
  C945     1.0000 0.47844  0.51477  0.68666  Biso   1.000  C
  C946     1.0000 0.98523  0.47844  0.68666  Biso   1.000  C
  C947     1.0000 0.97844  0.48523  0.81334  Biso   1.000  C
  C948     1.0000 0.02156  0.98523  0.68666  Biso   1.000  C
  C949     1.0000 0.01477  0.97844  0.81334  Biso   1.000  C
  C950     1.0000 0.51477  0.02156  0.68666  Biso   1.000  C
  C951     1.0000 0.52156  0.01477  0.81334  Biso   1.000  C
  C952     1.0000 0.48523  0.52156  0.81334  Biso   1.000  C
  C953     1.0000 0.52156  0.48523  0.31334  Biso   1.000  C
  C954     1.0000 0.01477  0.52156  0.31334  Biso   1.000  C
  C955     1.0000 0.02156  0.51477  0.18666  Biso   1.000  C
  C956     1.0000 0.97844  0.01477  0.31334  Biso   1.000  C
  C957     1.0000 0.98523  0.02156  0.18666  Biso   1.000  C
  C958     1.0000 0.48523  0.97844  0.31334  Biso   1.000  C
  C959     1.0000 0.47844  0.98523  0.18666  Biso   1.000  C
  C960     1.0000 0.51477  0.47844  0.18666  Biso   1.000  C
  C961     1.0000 0.46438  0.53340  0.66183  Biso   1.000  C
  C962     1.0000 0.96660  0.46438  0.66183  Biso   1.000  C
  C963     1.0000 0.96438  0.46660  0.83817  Biso   1.000  C
  C964     1.0000 0.03562  0.96660  0.66183  Biso   1.000  C
  C965     1.0000 0.03340  0.96438  0.83817  Biso   1.000  C
  C966     1.0000 0.53340  0.03562  0.66183  Biso   1.000  C
  C967     1.0000 0.53562  0.03340  0.83817  Biso   1.000  C
  C968     1.0000 0.46660  0.53562  0.83817  Biso   1.000  C
  C969     1.0000 0.53562  0.46660  0.33817  Biso   1.000  C
  C970     1.0000 0.03340  0.53562  0.33817  Biso   1.000  C
  C971     1.0000 0.03562  0.53340  0.16183  Biso   1.000  C
  C972     1.0000 0.96438  0.03340  0.33817  Biso   1.000  C
  C973     1.0000 0.96660  0.03562  0.16183  Biso   1.000  C
  C974     1.0000 0.46660  0.96438  0.33817  Biso   1.000  C
  C975     1.0000 0.46438  0.96660  0.16183  Biso   1.000  C
  C976     1.0000 0.53340  0.46438  0.16183  Biso   1.000  C
  C977     1.0000 0.43569  0.53563  0.66350  Biso   1.000  C
  C978     1.0000 0.96437  0.43569  0.66350  Biso   1.000  C
  C979     1.0000 0.93569  0.46437  0.83650  Biso   1.000  C
  C980     1.0000 0.06431  0.96437  0.66350  Biso   1.000  C
  C981     1.0000 0.03563  0.93569  0.83650  Biso   1.000  C
  C982     1.0000 0.53563  0.06431  0.66350  Biso   1.000  C
  C983     1.0000 0.56431  0.03563  0.83650  Biso   1.000  C
  C984     1.0000 0.46437  0.56431  0.83650  Biso   1.000  C
  C985     1.0000 0.56431  0.46437  0.33650  Biso   1.000  C
  C986     1.0000 0.03563  0.56431  0.33650  Biso   1.000  C
  C987     1.0000 0.06431  0.53563  0.16350  Biso   1.000  C
  C988     1.0000 0.93569  0.03563  0.33650  Biso   1.000  C
  C989     1.0000 0.96437  0.06431  0.16350  Biso   1.000  C
  C990     1.0000 0.46437  0.93569  0.33650  Biso   1.000  C
  C991     1.0000 0.43569  0.96437  0.16350  Biso   1.000  C
  C992     1.0000 0.53563  0.43569  0.16350  Biso   1.000  C
  H865     1.0000 0.42680  0.54880  0.64730  Biso   1.000  H
  H866     1.0000 0.95120  0.42680  0.64730  Biso   1.000  H
  H867     1.0000 0.92680  0.45120  0.85270  Biso   1.000  H
  H868     1.0000 0.07320  0.95120  0.64730  Biso   1.000  H
  H869     1.0000 0.04880  0.92680  0.85270  Biso   1.000  H
  H870     1.0000 0.54880  0.07320  0.64730  Biso   1.000  H
  H871     1.0000 0.57320  0.04880  0.85270  Biso   1.000  H
  H872     1.0000 0.45120  0.57320  0.85270  Biso   1.000  H
  H873     1.0000 0.57320  0.45120  0.35270  Biso   1.000  H
  H874     1.0000 0.04880  0.57320  0.35270  Biso   1.000  H
  H875     1.0000 0.07320  0.54880  0.14730  Biso   1.000  H
  H876     1.0000 0.92680  0.04880  0.35270  Biso   1.000  H
  H877     1.0000 0.95120  0.07320  0.14730  Biso   1.000  H
  H878     1.0000 0.45120  0.92680  0.35270  Biso   1.000  H
  H879     1.0000 0.42680  0.95120  0.14730  Biso   1.000  H
  H880     1.0000 0.54880  0.42680  0.14730  Biso   1.000  H
  C993     1.0000 0.41988  0.51891  0.68840  Biso   1.000  C
  C994     1.0000 0.98109  0.41988  0.68840  Biso   1.000  C
  C995     1.0000 0.91988  0.48109  0.81160  Biso   1.000  C
  C996     1.0000 0.08012  0.98109  0.68840  Biso   1.000  C
  C997     1.0000 0.01891  0.91988  0.81160  Biso   1.000  C
  C998     1.0000 0.51891  0.08012  0.68840  Biso   1.000  C
  C999     1.0000 0.58012  0.01891  0.81160  Biso   1.000  C
  C1000    1.0000 0.48109  0.58012  0.81160  Biso   1.000  C
  C1001    1.0000 0.58012  0.48109  0.31160  Biso   1.000  C
  C1002    1.0000 0.01891  0.58012  0.31160  Biso   1.000  C
  C1003    1.0000 0.08012  0.51891  0.18840  Biso   1.000  C
  C1004    1.0000 0.91988  0.01891  0.31160  Biso   1.000  C
  C1005    1.0000 0.98109  0.08012  0.18840  Biso   1.000  C
  C1006    1.0000 0.48109  0.91988  0.31160  Biso   1.000  C
  C1007    1.0000 0.41988  0.98109  0.18840  Biso   1.000  C
  C1008    1.0000 0.51891  0.41988  0.18840  Biso   1.000  C
  H881     1.0000 0.40060  0.52030  0.68870  Biso   1.000  H
  H882     1.0000 0.97970  0.40060  0.68870  Biso   1.000  H
  H883     1.0000 0.90060  0.47970  0.81130  Biso   1.000  H
  H884     1.0000 0.09940  0.97970  0.68870  Biso   1.000  H
  H885     1.0000 0.02030  0.90060  0.81130  Biso   1.000  H
  H886     1.0000 0.52030  0.09940  0.68870  Biso   1.000  H
  H887     1.0000 0.59940  0.02030  0.81130  Biso   1.000  H
  H888     1.0000 0.47970  0.59940  0.81130  Biso   1.000  H
  H889     1.0000 0.59940  0.47970  0.31130  Biso   1.000  H
  H890     1.0000 0.02030  0.59940  0.31130  Biso   1.000  H
  H891     1.0000 0.09940  0.52030  0.18870  Biso   1.000  H
  H892     1.0000 0.90060  0.02030  0.31130  Biso   1.000  H
  H893     1.0000 0.97970  0.09940  0.18870  Biso   1.000  H
  H894     1.0000 0.47970  0.90060  0.31130  Biso   1.000  H
  H895     1.0000 0.40060  0.97970  0.18870  Biso   1.000  H
  H896     1.0000 0.52030  0.40060  0.18870  Biso   1.000  H
  C1009    1.0000 0.43309  0.50049  0.71220  Biso   1.000  C
  C1010    1.0000 0.99951  0.43309  0.71220  Biso   1.000  C
  C1011    1.0000 0.93309  0.49951  0.78780  Biso   1.000  C
  C1012    1.0000 0.06691  0.99951  0.71220  Biso   1.000  C
  C1013    1.0000 0.00049  0.93309  0.78780  Biso   1.000  C
  C1014    1.0000 0.50049  0.06691  0.71220  Biso   1.000  C
  C1015    1.0000 0.56691  0.00049  0.78780  Biso   1.000  C
  C1016    1.0000 0.49951  0.56691  0.78780  Biso   1.000  C
  C1017    1.0000 0.56691  0.49951  0.28780  Biso   1.000  C
  C1018    1.0000 0.00049  0.56691  0.28780  Biso   1.000  C
  C1019    1.0000 0.06691  0.50049  0.21220  Biso   1.000  C
  C1020    1.0000 0.93309  0.00049  0.28780  Biso   1.000  C
  C1021    1.0000 0.99951  0.06691  0.21220  Biso   1.000  C
  C1022    1.0000 0.49951  0.93309  0.28780  Biso   1.000  C
  C1023    1.0000 0.43309  0.99951  0.21220  Biso   1.000  C
  C1024    1.0000 0.50049  0.43309  0.21220  Biso   1.000  C
  H897     1.0000 0.42270  0.48910  0.72930  Biso   1.000  H
  H898     1.0000 0.01090  0.42270  0.72930  Biso   1.000  H
  H899     1.0000 0.92270  0.51090  0.77070  Biso   1.000  H
  H900     1.0000 0.07730  0.01090  0.72930  Biso   1.000  H
  H901     1.0000 0.98910  0.92270  0.77070  Biso   1.000  H
  H902     1.0000 0.48910  0.07730  0.72930  Biso   1.000  H
  H903     1.0000 0.57730  0.98910  0.77070  Biso   1.000  H
  H904     1.0000 0.51090  0.57730  0.77070  Biso   1.000  H
  H905     1.0000 0.57730  0.51090  0.27070  Biso   1.000  H
  H906     1.0000 0.98910  0.57730  0.27070  Biso   1.000  H
  H907     1.0000 0.07730  0.48910  0.22930  Biso   1.000  H
  H908     1.0000 0.92270  0.98910  0.27070  Biso   1.000  H
  H909     1.0000 0.01090  0.07730  0.22930  Biso   1.000  H
  H910     1.0000 0.51090  0.92270  0.27070  Biso   1.000  H
  H911     1.0000 0.42270  0.01090  0.22930  Biso   1.000  H
  H912     1.0000 0.48910  0.42270  0.22930  Biso   1.000  H
  C1025    1.0000 0.46183  0.49823  0.71181  Biso   1.000  C
  C1026    1.0000 0.00177  0.46183  0.71181  Biso   1.000  C
  C1027    1.0000 0.96183  0.50177  0.78819  Biso   1.000  C
  C1028    1.0000 0.03817  0.00177  0.71181  Biso   1.000  C
  C1029    1.0000 0.99823  0.96183  0.78819  Biso   1.000  C
  C1030    1.0000 0.49823  0.03817  0.71181  Biso   1.000  C
  C1031    1.0000 0.53817  0.99823  0.78819  Biso   1.000  C
  C1032    1.0000 0.50177  0.53817  0.78819  Biso   1.000  C
  C1033    1.0000 0.53817  0.50177  0.28819  Biso   1.000  C
  C1034    1.0000 0.99823  0.53817  0.28819  Biso   1.000  C
  C1035    1.0000 0.03817  0.49823  0.21181  Biso   1.000  C
  C1036    1.0000 0.96183  0.99823  0.28819  Biso   1.000  C
  C1037    1.0000 0.00177  0.03817  0.21181  Biso   1.000  C
  C1038    1.0000 0.50177  0.96183  0.28819  Biso   1.000  C
  C1039    1.0000 0.46183  0.00177  0.21181  Biso   1.000  C
  C1040    1.0000 0.49823  0.46183  0.21181  Biso   1.000  C
  H913     1.0000 0.47040  0.48530  0.72870  Biso   1.000  H
  H914     1.0000 0.01470  0.47040  0.72870  Biso   1.000  H
  H915     1.0000 0.97040  0.51470  0.77130  Biso   1.000  H
  H916     1.0000 0.02960  0.01470  0.72870  Biso   1.000  H
  H917     1.0000 0.98530  0.97040  0.77130  Biso   1.000  H
  H918     1.0000 0.48530  0.02960  0.72870  Biso   1.000  H
  H919     1.0000 0.52960  0.98530  0.77130  Biso   1.000  H
  H920     1.0000 0.51470  0.52960  0.77130  Biso   1.000  H
  H921     1.0000 0.52960  0.51470  0.27130  Biso   1.000  H
  H922     1.0000 0.98530  0.52960  0.27130  Biso   1.000  H
  H923     1.0000 0.02960  0.48530  0.22870  Biso   1.000  H
  H924     1.0000 0.97040  0.98530  0.27130  Biso   1.000  H
  H925     1.0000 0.01470  0.02960  0.22870  Biso   1.000  H
  H926     1.0000 0.51470  0.97040  0.27130  Biso   1.000  H
  H927     1.0000 0.47040  0.01470  0.22870  Biso   1.000  H
  H928     1.0000 0.48530  0.47040  0.22870  Biso   1.000  H
  C1041    1.0000 0.47863  0.55270  0.63400  Biso   1.000  C
  C1042    1.0000 0.94730  0.47863  0.63400  Biso   1.000  C
  C1043    1.0000 0.97863  0.44730  0.86600  Biso   1.000  C
  C1044    1.0000 0.02137  0.94730  0.63400  Biso   1.000  C
  C1045    1.0000 0.05270  0.97863  0.86600  Biso   1.000  C
  C1046    1.0000 0.55270  0.02137  0.63400  Biso   1.000  C
  C1047    1.0000 0.52137  0.05270  0.86600  Biso   1.000  C
  C1048    1.0000 0.44730  0.52137  0.86600  Biso   1.000  C
  C1049    1.0000 0.52137  0.44730  0.36600  Biso   1.000  C
  C1050    1.0000 0.05270  0.52137  0.36600  Biso   1.000  C
  C1051    1.0000 0.02137  0.55270  0.13400  Biso   1.000  C
  C1052    1.0000 0.97863  0.05270  0.36600  Biso   1.000  C
  C1053    1.0000 0.94730  0.02137  0.13400  Biso   1.000  C
  C1054    1.0000 0.44730  0.97863  0.36600  Biso   1.000  C
  C1055    1.0000 0.47863  0.94730  0.13400  Biso   1.000  C
  C1056    1.0000 0.55270  0.47863  0.13400  Biso   1.000  C
  C1057    1.0000 0.50660  0.78428  0.62730  Biso   1.000  C
  C1058    1.0000 0.71572  0.50660  0.62730  Biso   1.000  C
  C1059    1.0000 0.00660  0.21572  0.87270  Biso   1.000  C
  C1060    1.0000 0.99340  0.71572  0.62730  Biso   1.000  C
  C1061    1.0000 0.28428  0.00660  0.87270  Biso   1.000  C
  C1062    1.0000 0.78428  0.99340  0.62730  Biso   1.000  C
  C1063    1.0000 0.49340  0.28428  0.87270  Biso   1.000  C
  C1064    1.0000 0.21572  0.49340  0.87270  Biso   1.000  C
  C1065    1.0000 0.49340  0.21572  0.37270  Biso   1.000  C
  C1066    1.0000 0.28428  0.49340  0.37270  Biso   1.000  C
  C1067    1.0000 0.99340  0.78428  0.12730  Biso   1.000  C
  C1068    1.0000 0.00660  0.28428  0.37270  Biso   1.000  C
  C1069    1.0000 0.71572  0.99340  0.12730  Biso   1.000  C
  C1070    1.0000 0.21572  0.00660  0.37270  Biso   1.000  C
  C1071    1.0000 0.50660  0.71572  0.12730  Biso   1.000  C
  C1072    1.0000 0.78428  0.50660  0.12730  Biso   1.000  C
  C1073    1.0000 0.49010  0.80910  0.67430  Biso   1.000  C
  C1074    1.0000 0.69090  0.49010  0.67430  Biso   1.000  C
  C1075    1.0000 0.99010  0.19090  0.82570  Biso   1.000  C
  C1076    1.0000 0.00990  0.69090  0.67430  Biso   1.000  C
  C1077    1.0000 0.30910  0.99010  0.82570  Biso   1.000  C
  C1078    1.0000 0.80910  0.00990  0.67430  Biso   1.000  C
  C1079    1.0000 0.50990  0.30910  0.82570  Biso   1.000  C
  C1080    1.0000 0.19090  0.50990  0.82570  Biso   1.000  C
  C1081    1.0000 0.50990  0.19090  0.32570  Biso   1.000  C
  C1082    1.0000 0.30910  0.50990  0.32570  Biso   1.000  C
  C1083    1.0000 0.00990  0.80910  0.17430  Biso   1.000  C
  C1084    1.0000 0.99010  0.30910  0.32570  Biso   1.000  C
  C1085    1.0000 0.69090  0.00990  0.17430  Biso   1.000  C
  C1086    1.0000 0.19090  0.99010  0.32570  Biso   1.000  C
  C1087    1.0000 0.49010  0.69090  0.17430  Biso   1.000  C
  C1088    1.0000 0.80910  0.49010  0.17430  Biso   1.000  C
  C1089    1.0000 0.47505  0.82815  0.69830  Biso   1.000  C
  C1090    1.0000 0.67185  0.47505  0.69830  Biso   1.000  C
  C1091    1.0000 0.97505  0.17185  0.80170  Biso   1.000  C
  C1092    1.0000 0.02495  0.67185  0.69830  Biso   1.000  C
  C1093    1.0000 0.32815  0.97505  0.80170  Biso   1.000  C
  C1094    1.0000 0.82815  0.02495  0.69830  Biso   1.000  C
  C1095    1.0000 0.52495  0.32815  0.80170  Biso   1.000  C
  C1096    1.0000 0.17185  0.52495  0.80170  Biso   1.000  C
  C1097    1.0000 0.52495  0.17185  0.30170  Biso   1.000  C
  C1098    1.0000 0.32815  0.52495  0.30170  Biso   1.000  C
  C1099    1.0000 0.02495  0.82815  0.19830  Biso   1.000  C
  C1100    1.0000 0.97505  0.32815  0.30170  Biso   1.000  C
  C1101    1.0000 0.67185  0.02495  0.19830  Biso   1.000  C
  C1102    1.0000 0.17185  0.97505  0.30170  Biso   1.000  C
  C1103    1.0000 0.47505  0.67185  0.19830  Biso   1.000  C
  C1104    1.0000 0.82815  0.47505  0.19830  Biso   1.000  C
  H929     1.0000 0.46030  0.83810  0.68700  Biso   1.000  H
  H930     1.0000 0.66190  0.46030  0.68700  Biso   1.000  H
  H931     1.0000 0.96030  0.16190  0.81300  Biso   1.000  H
  H932     1.0000 0.03970  0.66190  0.68700  Biso   1.000  H
  H933     1.0000 0.33810  0.96030  0.81300  Biso   1.000  H
  H934     1.0000 0.83810  0.03970  0.68700  Biso   1.000  H
  H935     1.0000 0.53970  0.33810  0.81300  Biso   1.000  H
  H936     1.0000 0.16190  0.53970  0.81300  Biso   1.000  H
  H937     1.0000 0.53970  0.16190  0.31300  Biso   1.000  H
  H938     1.0000 0.33810  0.53970  0.31300  Biso   1.000  H
  H939     1.0000 0.03970  0.83810  0.18700  Biso   1.000  H
  H940     1.0000 0.96030  0.33810  0.31300  Biso   1.000  H
  H941     1.0000 0.66190  0.03970  0.18700  Biso   1.000  H
  H942     1.0000 0.16190  0.96030  0.31300  Biso   1.000  H
  H943     1.0000 0.46030  0.66190  0.18700  Biso   1.000  H
  H944     1.0000 0.83810  0.46030  0.18700  Biso   1.000  H
  C1105    1.0000 0.48190  0.83230  0.73810  Biso   1.000  C
  C1106    1.0000 0.66770  0.48190  0.73810  Biso   1.000  C
  C1107    1.0000 0.98190  0.16770  0.76190  Biso   1.000  C
  C1108    1.0000 0.01810  0.66770  0.73810  Biso   1.000  C
  C1109    1.0000 0.33230  0.98190  0.76190  Biso   1.000  C
  C1110    1.0000 0.83230  0.01810  0.73810  Biso   1.000  C
  C1111    1.0000 0.51810  0.33230  0.76190  Biso   1.000  C
  C1112    1.0000 0.16770  0.51810  0.76190  Biso   1.000  C
  C1113    1.0000 0.51810  0.16770  0.26190  Biso   1.000  C
  C1114    1.0000 0.33230  0.51810  0.26190  Biso   1.000  C
  C1115    1.0000 0.01810  0.83230  0.23810  Biso   1.000  C
  C1116    1.0000 0.98190  0.33230  0.26190  Biso   1.000  C
  C1117    1.0000 0.66770  0.01810  0.23810  Biso   1.000  C
  C1118    1.0000 0.16770  0.98190  0.26190  Biso   1.000  C
  C1119    1.0000 0.48190  0.66770  0.23810  Biso   1.000  C
  C1120    1.0000 0.83230  0.48190  0.23810  Biso   1.000  C
  H945     1.0000 0.47150  0.84440  0.75410  Biso   1.000  H
  H946     1.0000 0.65560  0.47150  0.75410  Biso   1.000  H
  H947     1.0000 0.97150  0.15560  0.74590  Biso   1.000  H
  H948     1.0000 0.02850  0.65560  0.75410  Biso   1.000  H
  H949     1.0000 0.34440  0.97150  0.74590  Biso   1.000  H
  H950     1.0000 0.84440  0.02850  0.75410  Biso   1.000  H
  H951     1.0000 0.52850  0.34440  0.74590  Biso   1.000  H
  H952     1.0000 0.15560  0.52850  0.74590  Biso   1.000  H
  H953     1.0000 0.52850  0.15560  0.24590  Biso   1.000  H
  H954     1.0000 0.34440  0.52850  0.24590  Biso   1.000  H
  H955     1.0000 0.02850  0.84440  0.25410  Biso   1.000  H
  H956     1.0000 0.97150  0.34440  0.24590  Biso   1.000  H
  H957     1.0000 0.65560  0.02850  0.25410  Biso   1.000  H
  H958     1.0000 0.15560  0.97150  0.24590  Biso   1.000  H
  H959     1.0000 0.47150  0.65560  0.25410  Biso   1.000  H
  H960     1.0000 0.84440  0.47150  0.25410  Biso   1.000  H
  C1121    1.0000 0.50460  0.81800  0.75420  Biso   1.000  C
  C1122    1.0000 0.68200  0.50460  0.75420  Biso   1.000  C
  C1123    1.0000 0.00460  0.18200  0.74580  Biso   1.000  C
  C1124    1.0000 0.99540  0.68200  0.75420  Biso   1.000  C
  C1125    1.0000 0.31800  0.00460  0.74580  Biso   1.000  C
  C1126    1.0000 0.81800  0.99540  0.75420  Biso   1.000  C
  C1127    1.0000 0.49540  0.31800  0.74580  Biso   1.000  C
  C1128    1.0000 0.18200  0.49540  0.74580  Biso   1.000  C
  C1129    1.0000 0.49540  0.18200  0.24580  Biso   1.000  C
  C1130    1.0000 0.31800  0.49540  0.24580  Biso   1.000  C
  C1131    1.0000 0.99540  0.81800  0.25420  Biso   1.000  C
  C1132    1.0000 0.00460  0.31800  0.24580  Biso   1.000  C
  C1133    1.0000 0.68200  0.99540  0.25420  Biso   1.000  C
  C1134    1.0000 0.18200  0.00460  0.24580  Biso   1.000  C
  C1135    1.0000 0.50460  0.68200  0.25420  Biso   1.000  C
  C1136    1.0000 0.81800  0.50460  0.25420  Biso   1.000  C
  H961     1.0000 0.51000  0.82140  0.78070  Biso   1.000  H
  H962     1.0000 0.67860  0.51000  0.78070  Biso   1.000  H
  H963     1.0000 0.01000  0.17860  0.71930  Biso   1.000  H
  H964     1.0000 0.99000  0.67860  0.78070  Biso   1.000  H
  H965     1.0000 0.32140  0.01000  0.71930  Biso   1.000  H
  H966     1.0000 0.82140  0.99000  0.78070  Biso   1.000  H
  H967     1.0000 0.49000  0.32140  0.71930  Biso   1.000  H
  H968     1.0000 0.17860  0.49000  0.71930  Biso   1.000  H
  H969     1.0000 0.49000  0.17860  0.21930  Biso   1.000  H
  H970     1.0000 0.32140  0.49000  0.21930  Biso   1.000  H
  H971     1.0000 0.99000  0.82140  0.28070  Biso   1.000  H
  H972     1.0000 0.01000  0.32140  0.21930  Biso   1.000  H
  H973     1.0000 0.67860  0.99000  0.28070  Biso   1.000  H
  H974     1.0000 0.17860  0.01000  0.21930  Biso   1.000  H
  H975     1.0000 0.51000  0.67860  0.28070  Biso   1.000  H
  H976     1.0000 0.82140  0.51000  0.28070  Biso   1.000  H
  C1137    1.0000 0.51910  0.79910  0.73170  Biso   1.000  C
  C1138    1.0000 0.70090  0.51910  0.73170  Biso   1.000  C
  C1139    1.0000 0.01910  0.20090  0.76830  Biso   1.000  C
  C1140    1.0000 0.98090  0.70090  0.73170  Biso   1.000  C
  C1141    1.0000 0.29910  0.01910  0.76830  Biso   1.000  C
  C1142    1.0000 0.79910  0.98090  0.73170  Biso   1.000  C
  C1143    1.0000 0.48090  0.29910  0.76830  Biso   1.000  C
  C1144    1.0000 0.20090  0.48090  0.76830  Biso   1.000  C
  C1145    1.0000 0.48090  0.20090  0.26830  Biso   1.000  C
  C1146    1.0000 0.29910  0.48090  0.26830  Biso   1.000  C
  C1147    1.0000 0.98090  0.79910  0.23170  Biso   1.000  C
  C1148    1.0000 0.01910  0.29910  0.26830  Biso   1.000  C
  C1149    1.0000 0.70090  0.98090  0.23170  Biso   1.000  C
  C1150    1.0000 0.20090  0.01910  0.26830  Biso   1.000  C
  C1151    1.0000 0.51910  0.70090  0.23170  Biso   1.000  C
  C1152    1.0000 0.79910  0.51910  0.23170  Biso   1.000  C
  H977     1.0000 0.53370  0.78900  0.74290  Biso   1.000  H
  H978     1.0000 0.71100  0.53370  0.74290  Biso   1.000  H
  H979     1.0000 0.03370  0.21100  0.75710  Biso   1.000  H
  H980     1.0000 0.96630  0.71100  0.74290  Biso   1.000  H
  H981     1.0000 0.28900  0.03370  0.75710  Biso   1.000  H
  H982     1.0000 0.78900  0.96630  0.74290  Biso   1.000  H
  H983     1.0000 0.46630  0.28900  0.75710  Biso   1.000  H
  H984     1.0000 0.21100  0.46630  0.75710  Biso   1.000  H
  H985     1.0000 0.46630  0.21100  0.25710  Biso   1.000  H
  H986     1.0000 0.28900  0.46630  0.25710  Biso   1.000  H
  H987     1.0000 0.96630  0.78900  0.24290  Biso   1.000  H
  H988     1.0000 0.03370  0.28900  0.25710  Biso   1.000  H
  H989     1.0000 0.71100  0.96630  0.24290  Biso   1.000  H
  H990     1.0000 0.21100  0.03370  0.25710  Biso   1.000  H
  H991     1.0000 0.53370  0.71100  0.24290  Biso   1.000  H
  H992     1.0000 0.78900  0.53370  0.24290  Biso   1.000  H
  C1153    1.0000 0.51117  0.79527  0.69130  Biso   1.000  C
  C1154    1.0000 0.70473  0.51117  0.69130  Biso   1.000  C
  C1155    1.0000 0.01117  0.20473  0.80870  Biso   1.000  C
  C1156    1.0000 0.98883  0.70473  0.69130  Biso   1.000  C
  C1157    1.0000 0.29527  0.01117  0.80870  Biso   1.000  C
  C1158    1.0000 0.79527  0.98883  0.69130  Biso   1.000  C
  C1159    1.0000 0.48883  0.29527  0.80870  Biso   1.000  C
  C1160    1.0000 0.20473  0.48883  0.80870  Biso   1.000  C
  C1161    1.0000 0.48883  0.20473  0.30870  Biso   1.000  C
  C1162    1.0000 0.29527  0.48883  0.30870  Biso   1.000  C
  C1163    1.0000 0.98883  0.79527  0.19130  Biso   1.000  C
  C1164    1.0000 0.01117  0.29527  0.30870  Biso   1.000  C
  C1165    1.0000 0.70473  0.98883  0.19130  Biso   1.000  C
  C1166    1.0000 0.20473  0.01117  0.30870  Biso   1.000  C
  C1167    1.0000 0.51117  0.70473  0.19130  Biso   1.000  C
  C1168    1.0000 0.79527  0.51117  0.19130  Biso   1.000  C
  C1169    1.0000 0.54361  0.75937  0.66490  Biso   1.000  C
  C1170    1.0000 0.74063  0.54361  0.66490  Biso   1.000  C
  C1171    1.0000 0.04361  0.24063  0.83510  Biso   1.000  C
  C1172    1.0000 0.95639  0.74063  0.66490  Biso   1.000  C
  C1173    1.0000 0.25937  0.04361  0.83510  Biso   1.000  C
  C1174    1.0000 0.75937  0.95639  0.66490  Biso   1.000  C
  C1175    1.0000 0.45639  0.25937  0.83510  Biso   1.000  C
  C1176    1.0000 0.24063  0.45639  0.83510  Biso   1.000  C
  C1177    1.0000 0.45639  0.24063  0.33510  Biso   1.000  C
  C1178    1.0000 0.25937  0.45639  0.33510  Biso   1.000  C
  C1179    1.0000 0.95639  0.75937  0.16490  Biso   1.000  C
  C1180    1.0000 0.04361  0.25937  0.33510  Biso   1.000  C
  C1181    1.0000 0.74063  0.95639  0.16490  Biso   1.000  C
  C1182    1.0000 0.24063  0.04361  0.33510  Biso   1.000  C
  C1183    1.0000 0.54361  0.74063  0.16490  Biso   1.000  C
  C1184    1.0000 0.75937  0.54361  0.16490  Biso   1.000  C
  H993     1.0000 0.54130  0.74460  0.64570  Biso   1.000  H
  H994     1.0000 0.75540  0.54130  0.64570  Biso   1.000  H
  H995     1.0000 0.04130  0.25540  0.85430  Biso   1.000  H
  H996     1.0000 0.95870  0.75540  0.64570  Biso   1.000  H
  H997     1.0000 0.24460  0.04130  0.85430  Biso   1.000  H
  H998     1.0000 0.74460  0.95870  0.64570  Biso   1.000  H
  H999     1.0000 0.45870  0.24460  0.85430  Biso   1.000  H
  H1000    1.0000 0.25540  0.45870  0.85430  Biso   1.000  H
  H1001    1.0000 0.45870  0.25540  0.35430  Biso   1.000  H
  H1002    1.0000 0.24460  0.45870  0.35430  Biso   1.000  H
  H1003    1.0000 0.95870  0.74460  0.14570  Biso   1.000  H
  H1004    1.0000 0.04130  0.24460  0.35430  Biso   1.000  H
  H1005    1.0000 0.75540  0.95870  0.14570  Biso   1.000  H
  H1006    1.0000 0.25540  0.04130  0.35430  Biso   1.000  H
  H1007    1.0000 0.54130  0.75540  0.14570  Biso   1.000  H
  H1008    1.0000 0.74460  0.54130  0.14570  Biso   1.000  H
  H1009    1.0000 0.54280  0.75190  0.69170  Biso   1.000  H
  H1010    1.0000 0.74810  0.54280  0.69170  Biso   1.000  H
  H1011    1.0000 0.04280  0.24810  0.80830  Biso   1.000  H
  H1012    1.0000 0.95720  0.74810  0.69170  Biso   1.000  H
  H1013    1.0000 0.25190  0.04280  0.80830  Biso   1.000  H
  H1014    1.0000 0.75190  0.95720  0.69170  Biso   1.000  H
  H1015    1.0000 0.45720  0.25190  0.80830  Biso   1.000  H
  H1016    1.0000 0.24810  0.45720  0.80830  Biso   1.000  H
  H1017    1.0000 0.45720  0.24810  0.30830  Biso   1.000  H
  H1018    1.0000 0.25190  0.45720  0.30830  Biso   1.000  H
  H1019    1.0000 0.95720  0.75190  0.19170  Biso   1.000  H
  H1020    1.0000 0.04280  0.25190  0.30830  Biso   1.000  H
  H1021    1.0000 0.74810  0.95720  0.19170  Biso   1.000  H
  H1022    1.0000 0.24810  0.04280  0.30830  Biso   1.000  H
  H1023    1.0000 0.54280  0.74810  0.19170  Biso   1.000  H
  H1024    1.0000 0.75190  0.54280  0.19170  Biso   1.000  H
  H1025    1.0000 0.56140  0.76820  0.66070  Biso   1.000  H
  H1026    1.0000 0.73180  0.56140  0.66070  Biso   1.000  H
  H1027    1.0000 0.06140  0.23180  0.83930  Biso   1.000  H
  H1028    1.0000 0.93860  0.73180  0.66070  Biso   1.000  H
  H1029    1.0000 0.26820  0.06140  0.83930  Biso   1.000  H
  H1030    1.0000 0.76820  0.93860  0.66070  Biso   1.000  H
  H1031    1.0000 0.43860  0.26820  0.83930  Biso   1.000  H
  H1032    1.0000 0.23180  0.43860  0.83930  Biso   1.000  H
  H1033    1.0000 0.43860  0.23180  0.33930  Biso   1.000  H
  H1034    1.0000 0.26820  0.43860  0.33930  Biso   1.000  H
  H1035    1.0000 0.93860  0.76820  0.16070  Biso   1.000  H
  H1036    1.0000 0.06140  0.26820  0.33930  Biso   1.000  H
  H1037    1.0000 0.73180  0.93860  0.16070  Biso   1.000  H
  H1038    1.0000 0.23180  0.06140  0.33930  Biso   1.000  H
  H1039    1.0000 0.56140  0.73180  0.16070  Biso   1.000  H
  H1040    1.0000 0.76820  0.56140  0.16070  Biso   1.000  H
  C1185    1.0000 0.51101  0.77212  0.58730  Biso   1.000  C
  C1186    1.0000 0.72788  0.51101  0.58730  Biso   1.000  C
  C1187    1.0000 0.01101  0.22788  0.91270  Biso   1.000  C
  C1188    1.0000 0.98899  0.72788  0.58730  Biso   1.000  C
  C1189    1.0000 0.27212  0.01101  0.91270  Biso   1.000  C
  C1190    1.0000 0.77212  0.98899  0.58730  Biso   1.000  C
  C1191    1.0000 0.48899  0.27212  0.91270  Biso   1.000  C
  C1192    1.0000 0.22788  0.48899  0.91270  Biso   1.000  C
  C1193    1.0000 0.48899  0.22788  0.41270  Biso   1.000  C
  C1194    1.0000 0.27212  0.48899  0.41270  Biso   1.000  C
  C1195    1.0000 0.98899  0.77212  0.08730  Biso   1.000  C
  C1196    1.0000 0.01101  0.27212  0.41270  Biso   1.000  C
  C1197    1.0000 0.72788  0.98899  0.08730  Biso   1.000  C
  C1198    1.0000 0.22788  0.01101  0.41270  Biso   1.000  C
  C1199    1.0000 0.51101  0.72788  0.08730  Biso   1.000  C
  C1200    1.0000 0.77212  0.51101  0.08730  Biso   1.000  C
  C1201    1.0000 0.48862  0.76249  0.56450  Biso   1.000  C
  C1202    1.0000 0.73751  0.48862  0.56450  Biso   1.000  C
  C1203    1.0000 0.98862  0.23751  0.93550  Biso   1.000  C
  C1204    1.0000 0.01138  0.73751  0.56450  Biso   1.000  C
  C1205    1.0000 0.26249  0.98862  0.93550  Biso   1.000  C
  C1206    1.0000 0.76249  0.01138  0.56450  Biso   1.000  C
  C1207    1.0000 0.51138  0.26249  0.93550  Biso   1.000  C
  C1208    1.0000 0.23751  0.51138  0.93550  Biso   1.000  C
  C1209    1.0000 0.51138  0.23751  0.43550  Biso   1.000  C
  C1210    1.0000 0.26249  0.51138  0.43550  Biso   1.000  C
  C1211    1.0000 0.01138  0.76249  0.06450  Biso   1.000  C
  C1212    1.0000 0.98862  0.26249  0.43550  Biso   1.000  C
  C1213    1.0000 0.73751  0.01138  0.06450  Biso   1.000  C
  C1214    1.0000 0.23751  0.98862  0.43550  Biso   1.000  C
  C1215    1.0000 0.48862  0.73751  0.06450  Biso   1.000  C
  C1216    1.0000 0.76249  0.48862  0.06450  Biso   1.000  C
  H1041    1.0000 0.47050  0.76280  0.57450  Biso   1.000  H
  H1042    1.0000 0.73720  0.47050  0.57450  Biso   1.000  H
  H1043    1.0000 0.97050  0.23720  0.92550  Biso   1.000  H
  H1044    1.0000 0.02950  0.73720  0.57450  Biso   1.000  H
  H1045    1.0000 0.26280  0.97050  0.92550  Biso   1.000  H
  H1046    1.0000 0.76280  0.02950  0.57450  Biso   1.000  H
  H1047    1.0000 0.52950  0.26280  0.92550  Biso   1.000  H
  H1048    1.0000 0.23720  0.52950  0.92550  Biso   1.000  H
  H1049    1.0000 0.52950  0.23720  0.42550  Biso   1.000  H
  H1050    1.0000 0.26280  0.52950  0.42550  Biso   1.000  H
  H1051    1.0000 0.02950  0.76280  0.07450  Biso   1.000  H
  H1052    1.0000 0.97050  0.26280  0.42550  Biso   1.000  H
  H1053    1.0000 0.73720  0.02950  0.07450  Biso   1.000  H
  H1054    1.0000 0.23720  0.97050  0.42550  Biso   1.000  H
  H1055    1.0000 0.47050  0.73720  0.07450  Biso   1.000  H
  H1056    1.0000 0.76280  0.47050  0.07450  Biso   1.000  H
  C1217    1.0000 0.49410  0.75330  0.52930  Biso   1.000  C
  C1218    1.0000 0.74670  0.49410  0.52930  Biso   1.000  C
  C1219    1.0000 0.99410  0.24670  0.97070  Biso   1.000  C
  C1220    1.0000 0.00590  0.74670  0.52930  Biso   1.000  C
  C1221    1.0000 0.25330  0.99410  0.97070  Biso   1.000  C
  C1222    1.0000 0.75330  0.00590  0.52930  Biso   1.000  C
  C1223    1.0000 0.50590  0.25330  0.97070  Biso   1.000  C
  C1224    1.0000 0.24670  0.50590  0.97070  Biso   1.000  C
  C1225    1.0000 0.50590  0.24670  0.47070  Biso   1.000  C
  C1226    1.0000 0.25330  0.50590  0.47070  Biso   1.000  C
  C1227    1.0000 0.00590  0.75330  0.02930  Biso   1.000  C
  C1228    1.0000 0.99410  0.25330  0.47070  Biso   1.000  C
  C1229    1.0000 0.74670  0.00590  0.02930  Biso   1.000  C
  C1230    1.0000 0.24670  0.99410  0.47070  Biso   1.000  C
  C1231    1.0000 0.49410  0.74670  0.02930  Biso   1.000  C
  C1232    1.0000 0.75330  0.49410  0.02930  Biso   1.000  C
  C1233    1.0000 0.49270  0.73750  0.46740  Biso   1.000  C
  C1234    1.0000 0.76250  0.49270  0.46740  Biso   1.000  C
  C1235    1.0000 0.99270  0.26250  0.03260  Biso   1.000  C
  C1236    1.0000 0.00730  0.76250  0.46740  Biso   1.000  C
  C1237    1.0000 0.23750  0.99270  0.03260  Biso   1.000  C
  C1238    1.0000 0.73750  0.00730  0.46740  Biso   1.000  C
  C1239    1.0000 0.50730  0.23750  0.03260  Biso   1.000  C
  C1240    1.0000 0.26250  0.50730  0.03260  Biso   1.000  C
  C1241    1.0000 0.50730  0.26250  0.53260  Biso   1.000  C
  C1242    1.0000 0.23750  0.50730  0.53260  Biso   1.000  C
  C1243    1.0000 0.00730  0.73750  0.96740  Biso   1.000  C
  C1244    1.0000 0.99270  0.23750  0.53260  Biso   1.000  C
  C1245    1.0000 0.76250  0.00730  0.96740  Biso   1.000  C
  C1246    1.0000 0.26250  0.99270  0.53260  Biso   1.000  C
  C1247    1.0000 0.49270  0.76250  0.96740  Biso   1.000  C
  C1248    1.0000 0.73750  0.49270  0.96740  Biso   1.000  C
  C1249    1.0000 0.52020  0.75260  0.51250  Biso   1.000  C
  C1250    1.0000 0.74740  0.52020  0.51250  Biso   1.000  C
  C1251    1.0000 0.02020  0.24740  0.98750  Biso   1.000  C
  C1252    1.0000 0.97980  0.74740  0.51250  Biso   1.000  C
  C1253    1.0000 0.25260  0.02020  0.98750  Biso   1.000  C
  C1254    1.0000 0.75260  0.97980  0.51250  Biso   1.000  C
  C1255    1.0000 0.47980  0.25260  0.98750  Biso   1.000  C
  C1256    1.0000 0.24740  0.47980  0.98750  Biso   1.000  C
  C1257    1.0000 0.47980  0.24740  0.48750  Biso   1.000  C
  C1258    1.0000 0.25260  0.47980  0.48750  Biso   1.000  C
  C1259    1.0000 0.97980  0.75260  0.01250  Biso   1.000  C
  C1260    1.0000 0.02020  0.25260  0.48750  Biso   1.000  C
  C1261    1.0000 0.74740  0.97980  0.01250  Biso   1.000  C
  C1262    1.0000 0.24740  0.02020  0.48750  Biso   1.000  C
  C1263    1.0000 0.52020  0.74740  0.01250  Biso   1.000  C
  C1264    1.0000 0.75260  0.52020  0.01250  Biso   1.000  C
  C1265    1.0000 0.54309  0.76154  0.53430  Biso   1.000  C
  C1266    1.0000 0.73846  0.54309  0.53430  Biso   1.000  C
  C1267    1.0000 0.04309  0.23846  0.96570  Biso   1.000  C
  C1268    1.0000 0.95691  0.73846  0.53430  Biso   1.000  C
  C1269    1.0000 0.26154  0.04309  0.96570  Biso   1.000  C
  C1270    1.0000 0.76154  0.95691  0.53430  Biso   1.000  C
  C1271    1.0000 0.45691  0.26154  0.96570  Biso   1.000  C
  C1272    1.0000 0.23846  0.45691  0.96570  Biso   1.000  C
  C1273    1.0000 0.45691  0.23846  0.46570  Biso   1.000  C
  C1274    1.0000 0.26154  0.45691  0.46570  Biso   1.000  C
  C1275    1.0000 0.95691  0.76154  0.03430  Biso   1.000  C
  C1276    1.0000 0.04309  0.26154  0.46570  Biso   1.000  C
  C1277    1.0000 0.73846  0.95691  0.03430  Biso   1.000  C
  C1278    1.0000 0.23846  0.04309  0.46570  Biso   1.000  C
  C1279    1.0000 0.54309  0.73846  0.03430  Biso   1.000  C
  C1280    1.0000 0.76154  0.54309  0.03430  Biso   1.000  C
  C1281    1.0000 0.53744  0.77098  0.57030  Biso   1.000  C
  C1282    1.0000 0.72902  0.53744  0.57030  Biso   1.000  C
  C1283    1.0000 0.03744  0.22902  0.92970  Biso   1.000  C
  C1284    1.0000 0.96256  0.72902  0.57030  Biso   1.000  C
  C1285    1.0000 0.27098  0.03744  0.92970  Biso   1.000  C
  C1286    1.0000 0.77098  0.96256  0.57030  Biso   1.000  C
  C1287    1.0000 0.46256  0.27098  0.92970  Biso   1.000  C
  C1288    1.0000 0.22902  0.46256  0.92970  Biso   1.000  C
  C1289    1.0000 0.46256  0.22902  0.42970  Biso   1.000  C
  C1290    1.0000 0.27098  0.46256  0.42970  Biso   1.000  C
  C1291    1.0000 0.96256  0.77098  0.07030  Biso   1.000  C
  C1292    1.0000 0.03744  0.27098  0.42970  Biso   1.000  C
  C1293    1.0000 0.72902  0.96256  0.07030  Biso   1.000  C
  C1294    1.0000 0.22902  0.03744  0.42970  Biso   1.000  C
  C1295    1.0000 0.53744  0.72902  0.07030  Biso   1.000  C
  C1296    1.0000 0.77098  0.53744  0.07030  Biso   1.000  C
  H1057    1.0000 0.55230  0.77740  0.58580  Biso   1.000  H
  H1058    1.0000 0.72260  0.55230  0.58580  Biso   1.000  H
  H1059    1.0000 0.05230  0.22260  0.91420  Biso   1.000  H
  H1060    1.0000 0.94770  0.72260  0.58580  Biso   1.000  H
  H1061    1.0000 0.27740  0.05230  0.91420  Biso   1.000  H
  H1062    1.0000 0.77740  0.94770  0.58580  Biso   1.000  H
  H1063    1.0000 0.44770  0.27740  0.91420  Biso   1.000  H
  H1064    1.0000 0.22260  0.44770  0.91420  Biso   1.000  H
  H1065    1.0000 0.44770  0.22260  0.41420  Biso   1.000  H
  H1066    1.0000 0.27740  0.44770  0.41420  Biso   1.000  H
  H1067    1.0000 0.94770  0.77740  0.08580  Biso   1.000  H
  H1068    1.0000 0.05230  0.27740  0.41420  Biso   1.000  H
  H1069    1.0000 0.72260  0.94770  0.08580  Biso   1.000  H
  H1070    1.0000 0.22260  0.05230  0.41420  Biso   1.000  H
  H1071    1.0000 0.55230  0.72260  0.08580  Biso   1.000  H
  H1072    1.0000 0.77740  0.55230  0.08580  Biso   1.000  H
  C1297    1.0000 0.57129  0.76187  0.51470  Biso   1.000  C
  C1298    1.0000 0.73813  0.57129  0.51470  Biso   1.000  C
  C1299    1.0000 0.07129  0.23813  0.98530  Biso   1.000  C
  C1300    1.0000 0.92871  0.73813  0.51470  Biso   1.000  C
  C1301    1.0000 0.26187  0.07129  0.98530  Biso   1.000  C
  C1302    1.0000 0.76187  0.92871  0.51470  Biso   1.000  C
  C1303    1.0000 0.42871  0.26187  0.98530  Biso   1.000  C
  C1304    1.0000 0.23813  0.42871  0.98530  Biso   1.000  C
  C1305    1.0000 0.42871  0.23813  0.48530  Biso   1.000  C
  C1306    1.0000 0.26187  0.42871  0.48530  Biso   1.000  C
  C1307    1.0000 0.92871  0.76187  0.01470  Biso   1.000  C
  C1308    1.0000 0.07129  0.26187  0.48530  Biso   1.000  C
  C1309    1.0000 0.73813  0.92871  0.01470  Biso   1.000  C
  C1310    1.0000 0.23813  0.07129  0.48530  Biso   1.000  C
  C1311    1.0000 0.57129  0.73813  0.01470  Biso   1.000  C
  C1312    1.0000 0.76187  0.57129  0.01470  Biso   1.000  C
  H1073    1.0000 0.57960  0.77990  0.51820  Biso   1.000  H
  H1074    1.0000 0.72010  0.57960  0.51820  Biso   1.000  H
  H1075    1.0000 0.07960  0.22010  0.98180  Biso   1.000  H
  H1076    1.0000 0.92040  0.72010  0.51820  Biso   1.000  H
  H1077    1.0000 0.27990  0.07960  0.98180  Biso   1.000  H
  H1078    1.0000 0.77990  0.92040  0.51820  Biso   1.000  H
  H1079    1.0000 0.42040  0.27990  0.98180  Biso   1.000  H
  H1080    1.0000 0.22010  0.42040  0.98180  Biso   1.000  H
  H1081    1.0000 0.42040  0.22010  0.48180  Biso   1.000  H
  H1082    1.0000 0.27990  0.42040  0.48180  Biso   1.000  H
  H1083    1.0000 0.92040  0.77990  0.01820  Biso   1.000  H
  H1084    1.0000 0.07960  0.27990  0.48180  Biso   1.000  H
  H1085    1.0000 0.72010  0.92040  0.01820  Biso   1.000  H
  H1086    1.0000 0.22010  0.07960  0.48180  Biso   1.000  H
  H1087    1.0000 0.57960  0.72010  0.01820  Biso   1.000  H
  H1088    1.0000 0.77990  0.57960  0.01820  Biso   1.000  H
  H1089    1.0000 0.56940  0.75800  0.48640  Biso   1.000  H
  H1090    1.0000 0.74200  0.56940  0.48640  Biso   1.000  H
  H1091    1.0000 0.06940  0.24200  0.01360  Biso   1.000  H
  H1092    1.0000 0.93060  0.74200  0.48640  Biso   1.000  H
  H1093    1.0000 0.25800  0.06940  0.01360  Biso   1.000  H
  H1094    1.0000 0.75800  0.93060  0.48640  Biso   1.000  H
  H1095    1.0000 0.43060  0.25800  0.01360  Biso   1.000  H
  H1096    1.0000 0.24200  0.43060  0.01360  Biso   1.000  H
  H1097    1.0000 0.43060  0.24200  0.51360  Biso   1.000  H
  H1098    1.0000 0.25800  0.43060  0.51360  Biso   1.000  H
  H1099    1.0000 0.93060  0.75800  0.98640  Biso   1.000  H
  H1100    1.0000 0.06940  0.25800  0.51360  Biso   1.000  H
  H1101    1.0000 0.74200  0.93060  0.98640  Biso   1.000  H
  H1102    1.0000 0.24200  0.06940  0.51360  Biso   1.000  H
  H1103    1.0000 0.56940  0.74200  0.98640  Biso   1.000  H
  H1104    1.0000 0.75800  0.56940  0.98640  Biso   1.000  H
  H1105    1.0000 0.58290  0.74800  0.52700  Biso   1.000  H
  H1106    1.0000 0.75200  0.58290  0.52700  Biso   1.000  H
  H1107    1.0000 0.08290  0.25200  0.97300  Biso   1.000  H
  H1108    1.0000 0.91710  0.75200  0.52700  Biso   1.000  H
  H1109    1.0000 0.24800  0.08290  0.97300  Biso   1.000  H
  H1110    1.0000 0.74800  0.91710  0.52700  Biso   1.000  H
  H1111    1.0000 0.41710  0.24800  0.97300  Biso   1.000  H
  H1112    1.0000 0.25200  0.41710  0.97300  Biso   1.000  H
  H1113    1.0000 0.41710  0.25200  0.47300  Biso   1.000  H
  H1114    1.0000 0.24800  0.41710  0.47300  Biso   1.000  H
  H1115    1.0000 0.91710  0.74800  0.02700  Biso   1.000  H
  H1116    1.0000 0.08290  0.24800  0.47300  Biso   1.000  H
  H1117    1.0000 0.75200  0.91710  0.02700  Biso   1.000  H
  H1118    1.0000 0.25200  0.08290  0.47300  Biso   1.000  H
  H1119    1.0000 0.58290  0.75200  0.02700  Biso   1.000  H
  H1120    1.0000 0.74800  0.58290  0.02700  Biso   1.000  H
  C1313    1.0000 0.48200  0.72630  0.42920  Biso   1.000  C
  C1314    1.0000 0.77370  0.48200  0.42920  Biso   1.000  C
  C1315    1.0000 0.98200  0.27370  0.07080  Biso   1.000  C
  C1316    1.0000 0.01800  0.77370  0.42920  Biso   1.000  C
  C1317    1.0000 0.22630  0.98200  0.07080  Biso   1.000  C
  C1318    1.0000 0.72630  0.01800  0.42920  Biso   1.000  C
  C1319    1.0000 0.51800  0.22630  0.07080  Biso   1.000  C
  C1320    1.0000 0.27370  0.51800  0.07080  Biso   1.000  C
  C1321    1.0000 0.51800  0.27370  0.57080  Biso   1.000  C
  C1322    1.0000 0.22630  0.51800  0.57080  Biso   1.000  C
  C1323    1.0000 0.01800  0.72630  0.92920  Biso   1.000  C
  C1324    1.0000 0.98200  0.22630  0.57080  Biso   1.000  C
  C1325    1.0000 0.77370  0.01800  0.92920  Biso   1.000  C
  C1326    1.0000 0.27370  0.98200  0.57080  Biso   1.000  C
  C1327    1.0000 0.48200  0.77370  0.92920  Biso   1.000  C
  C1328    1.0000 0.72630  0.48200  0.92920  Biso   1.000  C
  H1121    1.0000 0.48910  0.73790  0.40760  Biso   1.000  H
  H1122    1.0000 0.76210  0.48910  0.40760  Biso   1.000  H
  H1123    1.0000 0.98910  0.26210  0.09240  Biso   1.000  H
  H1124    1.0000 0.01090  0.76210  0.40760  Biso   1.000  H
  H1125    1.0000 0.23790  0.98910  0.09240  Biso   1.000  H
  H1126    1.0000 0.73790  0.01090  0.40760  Biso   1.000  H
  H1127    1.0000 0.51090  0.23790  0.09240  Biso   1.000  H
  H1128    1.0000 0.26210  0.51090  0.09240  Biso   1.000  H
  H1129    1.0000 0.51090  0.26210  0.59240  Biso   1.000  H
  H1130    1.0000 0.23790  0.51090  0.59240  Biso   1.000  H
  H1131    1.0000 0.01090  0.73790  0.90760  Biso   1.000  H
  H1132    1.0000 0.98910  0.23790  0.59240  Biso   1.000  H
  H1133    1.0000 0.76210  0.01090  0.90760  Biso   1.000  H
  H1134    1.0000 0.26210  0.98910  0.59240  Biso   1.000  H
  H1135    1.0000 0.48910  0.76210  0.90760  Biso   1.000  H
  H1136    1.0000 0.73790  0.48910  0.90760  Biso   1.000  H
  H1137    1.0000 0.46190  0.72830  0.42930  Biso   1.000  H
  H1138    1.0000 0.77170  0.46190  0.42930  Biso   1.000  H
  H1139    1.0000 0.96190  0.27170  0.07070  Biso   1.000  H
  H1140    1.0000 0.03810  0.77170  0.42930  Biso   1.000  H
  H1141    1.0000 0.22830  0.96190  0.07070  Biso   1.000  H
  H1142    1.0000 0.72830  0.03810  0.42930  Biso   1.000  H
  H1143    1.0000 0.53810  0.22830  0.07070  Biso   1.000  H
  H1144    1.0000 0.27170  0.53810  0.07070  Biso   1.000  H
  H1145    1.0000 0.53810  0.27170  0.57070  Biso   1.000  H
  H1146    1.0000 0.22830  0.53810  0.57070  Biso   1.000  H
  H1147    1.0000 0.03810  0.72830  0.92930  Biso   1.000  H
  H1148    1.0000 0.96190  0.22830  0.57070  Biso   1.000  H
  H1149    1.0000 0.77170  0.03810  0.92930  Biso   1.000  H
  H1150    1.0000 0.27170  0.96190  0.57070  Biso   1.000  H
  H1151    1.0000 0.46190  0.77170  0.92930  Biso   1.000  H
  H1152    1.0000 0.72830  0.46190  0.92930  Biso   1.000  H
  C1329    1.0000 0.48880  0.69600  0.41890  Biso   1.000  C
  C1330    1.0000 0.80400  0.48880  0.41890  Biso   1.000  C
  C1331    1.0000 0.98880  0.30400  0.08110  Biso   1.000  C
  C1332    1.0000 0.01120  0.80400  0.41890  Biso   1.000  C
  C1333    1.0000 0.19600  0.98880  0.08110  Biso   1.000  C
  C1334    1.0000 0.69600  0.01120  0.41890  Biso   1.000  C
  C1335    1.0000 0.51120  0.19600  0.08110  Biso   1.000  C
  C1336    1.0000 0.30400  0.51120  0.08110  Biso   1.000  C
  C1337    1.0000 0.51120  0.30400  0.58110  Biso   1.000  C
  C1338    1.0000 0.19600  0.51120  0.58110  Biso   1.000  C
  C1339    1.0000 0.01120  0.69600  0.91890  Biso   1.000  C
  C1340    1.0000 0.98880  0.19600  0.58110  Biso   1.000  C
  C1341    1.0000 0.80400  0.01120  0.91890  Biso   1.000  C
  C1342    1.0000 0.30400  0.98880  0.58110  Biso   1.000  C
  C1343    1.0000 0.48880  0.80400  0.91890  Biso   1.000  C
  C1344    1.0000 0.69600  0.48880  0.91890  Biso   1.000  C
  H1153    1.0000 0.50880  0.69330  0.42110  Biso   1.000  H
  H1154    1.0000 0.80670  0.50880  0.42110  Biso   1.000  H
  H1155    1.0000 0.00880  0.30670  0.07890  Biso   1.000  H
  H1156    1.0000 0.99120  0.80670  0.42110  Biso   1.000  H
  H1157    1.0000 0.19330  0.00880  0.07890  Biso   1.000  H
  H1158    1.0000 0.69330  0.99120  0.42110  Biso   1.000  H
  H1159    1.0000 0.49120  0.19330  0.07890  Biso   1.000  H
  H1160    1.0000 0.30670  0.49120  0.07890  Biso   1.000  H
  H1161    1.0000 0.49120  0.30670  0.57890  Biso   1.000  H
  H1162    1.0000 0.19330  0.49120  0.57890  Biso   1.000  H
  H1163    1.0000 0.99120  0.69330  0.92110  Biso   1.000  H
  H1164    1.0000 0.00880  0.19330  0.57890  Biso   1.000  H
  H1165    1.0000 0.80670  0.99120  0.92110  Biso   1.000  H
  H1166    1.0000 0.30670  0.00880  0.57890  Biso   1.000  H
  H1167    1.0000 0.50880  0.80670  0.92110  Biso   1.000  H
  H1168    1.0000 0.69330  0.50880  0.92110  Biso   1.000  H
  H1169    1.0000 0.47990  0.68400  0.43870  Biso   1.000  H
  H1170    1.0000 0.81600  0.47990  0.43870  Biso   1.000  H
  H1171    1.0000 0.97990  0.31600  0.06130  Biso   1.000  H
  H1172    1.0000 0.02010  0.81600  0.43870  Biso   1.000  H
  H1173    1.0000 0.18400  0.97990  0.06130  Biso   1.000  H
  H1174    1.0000 0.68400  0.02010  0.43870  Biso   1.000  H
  H1175    1.0000 0.52010  0.18400  0.06130  Biso   1.000  H
  H1176    1.0000 0.31600  0.52010  0.06130  Biso   1.000  H
  H1177    1.0000 0.52010  0.31600  0.56130  Biso   1.000  H
  H1178    1.0000 0.18400  0.52010  0.56130  Biso   1.000  H
  H1179    1.0000 0.02010  0.68400  0.93870  Biso   1.000  H
  H1180    1.0000 0.97990  0.18400  0.56130  Biso   1.000  H
  H1181    1.0000 0.81600  0.02010  0.93870  Biso   1.000  H
  H1182    1.0000 0.31600  0.97990  0.56130  Biso   1.000  H
  H1183    1.0000 0.47990  0.81600  0.93870  Biso   1.000  H
  H1184    1.0000 0.68400  0.47990  0.93870  Biso   1.000  H
  C1345    1.0000 0.47970  0.68740  0.37800  Biso   1.000  C
  C1346    1.0000 0.81260  0.47970  0.37800  Biso   1.000  C
  C1347    1.0000 0.97970  0.31260  0.12200  Biso   1.000  C
  C1348    1.0000 0.02030  0.81260  0.37800  Biso   1.000  C
  C1349    1.0000 0.18740  0.97970  0.12200  Biso   1.000  C
  C1350    1.0000 0.68740  0.02030  0.37800  Biso   1.000  C
  C1351    1.0000 0.52030  0.18740  0.12200  Biso   1.000  C
  C1352    1.0000 0.31260  0.52030  0.12200  Biso   1.000  C
  C1353    1.0000 0.52030  0.31260  0.62200  Biso   1.000  C
  C1354    1.0000 0.18740  0.52030  0.62200  Biso   1.000  C
  C1355    1.0000 0.02030  0.68740  0.87800  Biso   1.000  C
  C1356    1.0000 0.97970  0.18740  0.62200  Biso   1.000  C
  C1357    1.0000 0.81260  0.02030  0.87800  Biso   1.000  C
  C1358    1.0000 0.31260  0.97970  0.62200  Biso   1.000  C
  C1359    1.0000 0.47970  0.81260  0.87800  Biso   1.000  C
  C1360    1.0000 0.68740  0.47970  0.87800  Biso   1.000  C
  H1185    1.0000 0.46080  0.69330  0.37370  Biso   1.000  H
  H1186    1.0000 0.80670  0.46080  0.37370  Biso   1.000  H
  H1187    1.0000 0.96080  0.30670  0.12630  Biso   1.000  H
  H1188    1.0000 0.03920  0.80670  0.37370  Biso   1.000  H
  H1189    1.0000 0.19330  0.96080  0.12630  Biso   1.000  H
  H1190    1.0000 0.69330  0.03920  0.37370  Biso   1.000  H
  H1191    1.0000 0.53920  0.19330  0.12630  Biso   1.000  H
  H1192    1.0000 0.30670  0.53920  0.12630  Biso   1.000  H
  H1193    1.0000 0.53920  0.30670  0.62630  Biso   1.000  H
  H1194    1.0000 0.19330  0.53920  0.62630  Biso   1.000  H
  H1195    1.0000 0.03920  0.69330  0.87370  Biso   1.000  H
  H1196    1.0000 0.96080  0.19330  0.62630  Biso   1.000  H
  H1197    1.0000 0.80670  0.03920  0.87370  Biso   1.000  H
  H1198    1.0000 0.30670  0.96080  0.62630  Biso   1.000  H
  H1199    1.0000 0.46080  0.80670  0.87370  Biso   1.000  H
  H1200    1.0000 0.69330  0.46080  0.87370  Biso   1.000  H
  H1201    1.0000 0.48080  0.66750  0.37580  Biso   1.000  H
  H1202    1.0000 0.83250  0.48080  0.37580  Biso   1.000  H
  H1203    1.0000 0.98080  0.33250  0.12420  Biso   1.000  H
  H1204    1.0000 0.01920  0.83250  0.37580  Biso   1.000  H
  H1205    1.0000 0.16750  0.98080  0.12420  Biso   1.000  H
  H1206    1.0000 0.66750  0.01920  0.37580  Biso   1.000  H
  H1207    1.0000 0.51920  0.16750  0.12420  Biso   1.000  H
  H1208    1.0000 0.33250  0.51920  0.12420  Biso   1.000  H
  H1209    1.0000 0.51920  0.33250  0.62420  Biso   1.000  H
  H1210    1.0000 0.16750  0.51920  0.62420  Biso   1.000  H
  H1211    1.0000 0.01920  0.66750  0.87580  Biso   1.000  H
  H1212    1.0000 0.98080  0.16750  0.62420  Biso   1.000  H
  H1213    1.0000 0.83250  0.01920  0.87580  Biso   1.000  H
  H1214    1.0000 0.33250  0.98080  0.62420  Biso   1.000  H
  H1215    1.0000 0.48080  0.83250  0.87580  Biso   1.000  H
  H1216    1.0000 0.66750  0.48080  0.87580  Biso   1.000  H
  H1217    1.0000 0.49150  0.69590  0.35820  Biso   1.000  H
  H1218    1.0000 0.80410  0.49150  0.35820  Biso   1.000  H
  H1219    1.0000 0.99150  0.30410  0.14180  Biso   1.000  H
  H1220    1.0000 0.00850  0.80410  0.35820  Biso   1.000  H
  H1221    1.0000 0.19590  0.99150  0.14180  Biso   1.000  H
  H1222    1.0000 0.69590  0.00850  0.35820  Biso   1.000  H
  H1223    1.0000 0.50850  0.19590  0.14180  Biso   1.000  H
  H1224    1.0000 0.30410  0.50850  0.14180  Biso   1.000  H
  H1225    1.0000 0.50850  0.30410  0.64180  Biso   1.000  H
  H1226    1.0000 0.19590  0.50850  0.64180  Biso   1.000  H
  H1227    1.0000 0.00850  0.69590  0.85820  Biso   1.000  H
  H1228    1.0000 0.99150  0.19590  0.64180  Biso   1.000  H
  H1229    1.0000 0.80410  0.00850  0.85820  Biso   1.000  H
  H1230    1.0000 0.30410  0.99150  0.64180  Biso   1.000  H
  H1231    1.0000 0.49150  0.80410  0.85820  Biso   1.000  H
  H1232    1.0000 0.69590  0.49150  0.85820  Biso   1.000  H
  C1361    1.0000 0.44552  0.74078  0.50330  Biso   1.000  C
  C1362    1.0000 0.75922  0.44552  0.50330  Biso   1.000  C
  C1363    1.0000 0.94552  0.25922  0.99670  Biso   1.000  C
  C1364    1.0000 0.05448  0.75922  0.50330  Biso   1.000  C
  C1365    1.0000 0.24078  0.94552  0.99670  Biso   1.000  C
  C1366    1.0000 0.74078  0.05448  0.50330  Biso   1.000  C
  C1367    1.0000 0.55448  0.24078  0.99670  Biso   1.000  C
  C1368    1.0000 0.25922  0.55448  0.99670  Biso   1.000  C
  C1369    1.0000 0.55448  0.25922  0.49670  Biso   1.000  C
  C1370    1.0000 0.24078  0.55448  0.49670  Biso   1.000  C
  C1371    1.0000 0.05448  0.74078  0.00330  Biso   1.000  C
  C1372    1.0000 0.94552  0.24078  0.49670  Biso   1.000  C
  C1373    1.0000 0.75922  0.05448  0.00330  Biso   1.000  C
  C1374    1.0000 0.25922  0.94552  0.49670  Biso   1.000  C
  C1375    1.0000 0.44552  0.75922  0.00330  Biso   1.000  C
  C1376    1.0000 0.74078  0.44552  0.00330  Biso   1.000  C
  H1233    1.0000 0.43710  0.74680  0.47810  Biso   1.000  H
  H1234    1.0000 0.75320  0.43710  0.47810  Biso   1.000  H
  H1235    1.0000 0.93710  0.25320  0.02190  Biso   1.000  H
  H1236    1.0000 0.06290  0.75320  0.47810  Biso   1.000  H
  H1237    1.0000 0.24680  0.93710  0.02190  Biso   1.000  H
  H1238    1.0000 0.74680  0.06290  0.47810  Biso   1.000  H
  H1239    1.0000 0.56290  0.24680  0.02190  Biso   1.000  H
  H1240    1.0000 0.25320  0.56290  0.02190  Biso   1.000  H
  H1241    1.0000 0.56290  0.25320  0.52190  Biso   1.000  H
  H1242    1.0000 0.24680  0.56290  0.52190  Biso   1.000  H
  H1243    1.0000 0.06290  0.74680  0.97810  Biso   1.000  H
  H1244    1.0000 0.93710  0.24680  0.52190  Biso   1.000  H
  H1245    1.0000 0.75320  0.06290  0.97810  Biso   1.000  H
  H1246    1.0000 0.25320  0.93710  0.52190  Biso   1.000  H
  H1247    1.0000 0.43710  0.75320  0.97810  Biso   1.000  H
  H1248    1.0000 0.74680  0.43710  0.97810  Biso   1.000  H
  H1249    1.0000 0.43910  0.75320  0.52440  Biso   1.000  H
  H1250    1.0000 0.74680  0.43910  0.52440  Biso   1.000  H
  H1251    1.0000 0.93910  0.24680  0.97560  Biso   1.000  H
  H1252    1.0000 0.06090  0.74680  0.52440  Biso   1.000  H
  H1253    1.0000 0.25320  0.93910  0.97560  Biso   1.000  H
  H1254    1.0000 0.75320  0.06090  0.52440  Biso   1.000  H
  H1255    1.0000 0.56090  0.25320  0.97560  Biso   1.000  H
  H1256    1.0000 0.24680  0.56090  0.97560  Biso   1.000  H
  H1257    1.0000 0.56090  0.24680  0.47560  Biso   1.000  H
  H1258    1.0000 0.25320  0.56090  0.47560  Biso   1.000  H
  H1259    1.0000 0.06090  0.75320  0.02440  Biso   1.000  H
  H1260    1.0000 0.93910  0.25320  0.47560  Biso   1.000  H
  H1261    1.0000 0.74680  0.06090  0.02440  Biso   1.000  H
  H1262    1.0000 0.24680  0.93910  0.47560  Biso   1.000  H
  H1263    1.0000 0.43910  0.74680  0.02440  Biso   1.000  H
  H1264    1.0000 0.75320  0.43910  0.02440  Biso   1.000  H
  C1377    1.0000 0.43591  0.71149  0.51270  Biso   1.000  C
  C1378    1.0000 0.78851  0.43591  0.51270  Biso   1.000  C
  C1379    1.0000 0.93591  0.28851  0.98730  Biso   1.000  C
  C1380    1.0000 0.06409  0.78851  0.51270  Biso   1.000  C
  C1381    1.0000 0.21149  0.93591  0.98730  Biso   1.000  C
  C1382    1.0000 0.71149  0.06409  0.51270  Biso   1.000  C
  C1383    1.0000 0.56409  0.21149  0.98730  Biso   1.000  C
  C1384    1.0000 0.28851  0.56409  0.98730  Biso   1.000  C
  C1385    1.0000 0.56409  0.28851  0.48730  Biso   1.000  C
  C1386    1.0000 0.21149  0.56409  0.48730  Biso   1.000  C
  C1387    1.0000 0.06409  0.71149  0.01270  Biso   1.000  C
  C1388    1.0000 0.93591  0.21149  0.48730  Biso   1.000  C
  C1389    1.0000 0.78851  0.06409  0.01270  Biso   1.000  C
  C1390    1.0000 0.28851  0.93591  0.48730  Biso   1.000  C
  C1391    1.0000 0.43591  0.78851  0.01270  Biso   1.000  C
  C1392    1.0000 0.71149  0.43591  0.01270  Biso   1.000  C
  C1393    1.0000 0.45309  0.68921  0.51700  Biso   1.000  C
  C1394    1.0000 0.81079  0.45309  0.51700  Biso   1.000  C
  C1395    1.0000 0.95309  0.31079  0.98300  Biso   1.000  C
  C1396    1.0000 0.04691  0.81079  0.51700  Biso   1.000  C
  C1397    1.0000 0.18921  0.95309  0.98300  Biso   1.000  C
  C1398    1.0000 0.68921  0.04691  0.51700  Biso   1.000  C
  C1399    1.0000 0.54691  0.18921  0.98300  Biso   1.000  C
  C1400    1.0000 0.31079  0.54691  0.98300  Biso   1.000  C
  C1401    1.0000 0.54691  0.31079  0.48300  Biso   1.000  C
  C1402    1.0000 0.18921  0.54691  0.48300  Biso   1.000  C
  C1403    1.0000 0.04691  0.68921  0.01700  Biso   1.000  C
  C1404    1.0000 0.95309  0.18921  0.48300  Biso   1.000  C
  C1405    1.0000 0.81079  0.04691  0.01700  Biso   1.000  C
  C1406    1.0000 0.31079  0.95309  0.48300  Biso   1.000  C
  C1407    1.0000 0.45309  0.81079  0.01700  Biso   1.000  C
  C1408    1.0000 0.68921  0.45309  0.01700  Biso   1.000  C
  H1265    1.0000 0.47230  0.69180  0.51550  Biso   1.000  H
  H1266    1.0000 0.80820  0.47230  0.51550  Biso   1.000  H
  H1267    1.0000 0.97230  0.30820  0.98450  Biso   1.000  H
  H1268    1.0000 0.02770  0.80820  0.51550  Biso   1.000  H
  H1269    1.0000 0.19180  0.97230  0.98450  Biso   1.000  H
  H1270    1.0000 0.69180  0.02770  0.51550  Biso   1.000  H
  H1271    1.0000 0.52770  0.19180  0.98450  Biso   1.000  H
  H1272    1.0000 0.30820  0.52770  0.98450  Biso   1.000  H
  H1273    1.0000 0.52770  0.30820  0.48450  Biso   1.000  H
  H1274    1.0000 0.19180  0.52770  0.48450  Biso   1.000  H
  H1275    1.0000 0.02770  0.69180  0.01550  Biso   1.000  H
  H1276    1.0000 0.97230  0.19180  0.48450  Biso   1.000  H
  H1277    1.0000 0.80820  0.02770  0.01550  Biso   1.000  H
  H1278    1.0000 0.30820  0.97230  0.48450  Biso   1.000  H
  H1279    1.0000 0.47230  0.80820  0.01550  Biso   1.000  H
  H1280    1.0000 0.69180  0.47230  0.01550  Biso   1.000  H
  C1409    1.0000 0.44287  0.66345  0.52331  Biso   1.000  C
  C1410    1.0000 0.83655  0.44287  0.52331  Biso   1.000  C
  C1411    1.0000 0.94287  0.33655  0.97669  Biso   1.000  C
  C1412    1.0000 0.05713  0.83655  0.52331  Biso   1.000  C
  C1413    1.0000 0.16345  0.94287  0.97669  Biso   1.000  C
  C1414    1.0000 0.66345  0.05713  0.52331  Biso   1.000  C
  C1415    1.0000 0.55713  0.16345  0.97669  Biso   1.000  C
  C1416    1.0000 0.33655  0.55713  0.97669  Biso   1.000  C
  C1417    1.0000 0.55713  0.33655  0.47669  Biso   1.000  C
  C1418    1.0000 0.16345  0.55713  0.47669  Biso   1.000  C
  C1419    1.0000 0.05713  0.66345  0.02331  Biso   1.000  C
  C1420    1.0000 0.94287  0.16345  0.47669  Biso   1.000  C
  C1421    1.0000 0.83655  0.05713  0.02331  Biso   1.000  C
  C1422    1.0000 0.33655  0.94287  0.47669  Biso   1.000  C
  C1423    1.0000 0.44287  0.83655  0.02331  Biso   1.000  C
  C1424    1.0000 0.66345  0.44287  0.02331  Biso   1.000  C
  H1281    1.0000 0.45500  0.64850  0.52590  Biso   1.000  H
  H1282    1.0000 0.85150  0.45500  0.52590  Biso   1.000  H
  H1283    1.0000 0.95500  0.35150  0.97410  Biso   1.000  H
  H1284    1.0000 0.04500  0.85150  0.52590  Biso   1.000  H
  H1285    1.0000 0.14850  0.95500  0.97410  Biso   1.000  H
  H1286    1.0000 0.64850  0.04500  0.52590  Biso   1.000  H
  H1287    1.0000 0.54500  0.14850  0.97410  Biso   1.000  H
  H1288    1.0000 0.35150  0.54500  0.97410  Biso   1.000  H
  H1289    1.0000 0.54500  0.35150  0.47410  Biso   1.000  H
  H1290    1.0000 0.14850  0.54500  0.47410  Biso   1.000  H
  H1291    1.0000 0.04500  0.64850  0.02590  Biso   1.000  H
  H1292    1.0000 0.95500  0.14850  0.47410  Biso   1.000  H
  H1293    1.0000 0.85150  0.04500  0.02590  Biso   1.000  H
  H1294    1.0000 0.35150  0.95500  0.47410  Biso   1.000  H
  H1295    1.0000 0.45500  0.85150  0.02590  Biso   1.000  H
  H1296    1.0000 0.64850  0.45500  0.02590  Biso   1.000  H
  C1425    1.0000 0.41432  0.65902  0.52605  Biso   1.000  C
  C1426    1.0000 0.84098  0.41432  0.52605  Biso   1.000  C
  C1427    1.0000 0.91432  0.34098  0.97395  Biso   1.000  C
  C1428    1.0000 0.08568  0.84098  0.52605  Biso   1.000  C
  C1429    1.0000 0.15902  0.91432  0.97395  Biso   1.000  C
  C1430    1.0000 0.65902  0.08568  0.52605  Biso   1.000  C
  C1431    1.0000 0.58568  0.15902  0.97395  Biso   1.000  C
  C1432    1.0000 0.34098  0.58568  0.97395  Biso   1.000  C
  C1433    1.0000 0.58568  0.34098  0.47395  Biso   1.000  C
  C1434    1.0000 0.15902  0.58568  0.47395  Biso   1.000  C
  C1435    1.0000 0.08568  0.65902  0.02605  Biso   1.000  C
  C1436    1.0000 0.91432  0.15902  0.47395  Biso   1.000  C
  C1437    1.0000 0.84098  0.08568  0.02605  Biso   1.000  C
  C1438    1.0000 0.34098  0.91432  0.47395  Biso   1.000  C
  C1439    1.0000 0.41432  0.84098  0.02605  Biso   1.000  C
  C1440    1.0000 0.65902  0.41432  0.02605  Biso   1.000  C
  C1441    1.0000 0.39792  0.68159  0.52210  Biso   1.000  C
  C1442    1.0000 0.81841  0.39792  0.52210  Biso   1.000  C
  C1443    1.0000 0.89792  0.31841  0.97790  Biso   1.000  C
  C1444    1.0000 0.10208  0.81841  0.52210  Biso   1.000  C
  C1445    1.0000 0.18159  0.89792  0.97790  Biso   1.000  C
  C1446    1.0000 0.68159  0.10208  0.52210  Biso   1.000  C
  C1447    1.0000 0.60208  0.18159  0.97790  Biso   1.000  C
  C1448    1.0000 0.31841  0.60208  0.97790  Biso   1.000  C
  C1449    1.0000 0.60208  0.31841  0.47790  Biso   1.000  C
  C1450    1.0000 0.18159  0.60208  0.47790  Biso   1.000  C
  C1451    1.0000 0.10208  0.68159  0.02210  Biso   1.000  C
  C1452    1.0000 0.89792  0.18159  0.47790  Biso   1.000  C
  C1453    1.0000 0.81841  0.10208  0.02210  Biso   1.000  C
  C1454    1.0000 0.31841  0.89792  0.47790  Biso   1.000  C
  C1455    1.0000 0.39792  0.81841  0.02210  Biso   1.000  C
  C1456    1.0000 0.68159  0.39792  0.02210  Biso   1.000  C
  H1297    1.0000 0.37870  0.67930  0.52420  Biso   1.000  H
  H1298    1.0000 0.82070  0.37870  0.52420  Biso   1.000  H
  H1299    1.0000 0.87870  0.32070  0.97580  Biso   1.000  H
  H1300    1.0000 0.12130  0.82070  0.52420  Biso   1.000  H
  H1301    1.0000 0.17930  0.87870  0.97580  Biso   1.000  H
  H1302    1.0000 0.67930  0.12130  0.52420  Biso   1.000  H
  H1303    1.0000 0.62130  0.17930  0.97580  Biso   1.000  H
  H1304    1.0000 0.32070  0.62130  0.97580  Biso   1.000  H
  H1305    1.0000 0.62130  0.32070  0.47580  Biso   1.000  H
  H1306    1.0000 0.17930  0.62130  0.47580  Biso   1.000  H
  H1307    1.0000 0.12130  0.67930  0.02420  Biso   1.000  H
  H1308    1.0000 0.87870  0.17930  0.47580  Biso   1.000  H
  H1309    1.0000 0.82070  0.12130  0.02420  Biso   1.000  H
  H1310    1.0000 0.32070  0.87870  0.47580  Biso   1.000  H
  H1311    1.0000 0.37870  0.82070  0.02420  Biso   1.000  H
  H1312    1.0000 0.67930  0.37870  0.02420  Biso   1.000  H
  C1457    1.0000 0.40786  0.70730  0.51520  Biso   1.000  C
  C1458    1.0000 0.79270  0.40786  0.51520  Biso   1.000  C
  C1459    1.0000 0.90786  0.29270  0.98480  Biso   1.000  C
  C1460    1.0000 0.09214  0.79270  0.51520  Biso   1.000  C
  C1461    1.0000 0.20730  0.90786  0.98480  Biso   1.000  C
  C1462    1.0000 0.70730  0.09214  0.51520  Biso   1.000  C
  C1463    1.0000 0.59214  0.20730  0.98480  Biso   1.000  C
  C1464    1.0000 0.29270  0.59214  0.98480  Biso   1.000  C
  C1465    1.0000 0.59214  0.29270  0.48480  Biso   1.000  C
  C1466    1.0000 0.20730  0.59214  0.48480  Biso   1.000  C
  C1467    1.0000 0.09214  0.70730  0.01520  Biso   1.000  C
  C1468    1.0000 0.90786  0.20730  0.48480  Biso   1.000  C
  C1469    1.0000 0.79270  0.09214  0.01520  Biso   1.000  C
  C1470    1.0000 0.29270  0.90786  0.48480  Biso   1.000  C
  C1471    1.0000 0.40786  0.79270  0.01520  Biso   1.000  C
  C1472    1.0000 0.70730  0.40786  0.01520  Biso   1.000  C
  H1313    1.0000 0.39560  0.72220  0.51210  Biso   1.000  H
  H1314    1.0000 0.77780  0.39560  0.51210  Biso   1.000  H
  H1315    1.0000 0.89560  0.27780  0.98790  Biso   1.000  H
  H1316    1.0000 0.10440  0.77780  0.51210  Biso   1.000  H
  H1317    1.0000 0.22220  0.89560  0.98790  Biso   1.000  H
  H1318    1.0000 0.72220  0.10440  0.51210  Biso   1.000  H
  H1319    1.0000 0.60440  0.22220  0.98790  Biso   1.000  H
  H1320    1.0000 0.27780  0.60440  0.98790  Biso   1.000  H
  H1321    1.0000 0.60440  0.27780  0.48790  Biso   1.000  H
  H1322    1.0000 0.22220  0.60440  0.48790  Biso   1.000  H
  H1323    1.0000 0.10440  0.72220  0.01210  Biso   1.000  H
  H1324    1.0000 0.89560  0.22220  0.48790  Biso   1.000  H
  H1325    1.0000 0.77780  0.10440  0.01210  Biso   1.000  H
  H1326    1.0000 0.27780  0.89560  0.48790  Biso   1.000  H
  H1327    1.0000 0.39560  0.77780  0.01210  Biso   1.000  H
  H1328    1.0000 0.72220  0.39560  0.01210  Biso   1.000  H
  C1473    1.0000 0.40161  0.63066  0.52920  Biso   1.000  C
  C1474    1.0000 0.86934  0.40161  0.52920  Biso   1.000  C
  C1475    1.0000 0.90161  0.36934  0.97080  Biso   1.000  C
  C1476    1.0000 0.09839  0.86934  0.52920  Biso   1.000  C
  C1477    1.0000 0.13066  0.90161  0.97080  Biso   1.000  C
  C1478    1.0000 0.63066  0.09839  0.52920  Biso   1.000  C
  C1479    1.0000 0.59839  0.13066  0.97080  Biso   1.000  C
  C1480    1.0000 0.36934  0.59839  0.97080  Biso   1.000  C
  C1481    1.0000 0.59839  0.36934  0.47080  Biso   1.000  C
  C1482    1.0000 0.13066  0.59839  0.47080  Biso   1.000  C
  C1483    1.0000 0.09839  0.63066  0.02920  Biso   1.000  C
  C1484    1.0000 0.90161  0.13066  0.47080  Biso   1.000  C
  C1485    1.0000 0.86934  0.09839  0.02920  Biso   1.000  C
  C1486    1.0000 0.36934  0.90161  0.47080  Biso   1.000  C
  C1487    1.0000 0.40161  0.86934  0.02920  Biso   1.000  C
  C1488    1.0000 0.63066  0.40161  0.02920  Biso   1.000  C
  C1489    1.0000 0.41356  0.60973  0.55410  Biso   1.000  C
  C1490    1.0000 0.89027  0.41356  0.55410  Biso   1.000  C
  C1491    1.0000 0.91356  0.39027  0.94590  Biso   1.000  C
  C1492    1.0000 0.08644  0.89027  0.55410  Biso   1.000  C
  C1493    1.0000 0.10973  0.91356  0.94590  Biso   1.000  C
  C1494    1.0000 0.60973  0.08644  0.55410  Biso   1.000  C
  C1495    1.0000 0.58644  0.10973  0.94590  Biso   1.000  C
  C1496    1.0000 0.39027  0.58644  0.94590  Biso   1.000  C
  C1497    1.0000 0.58644  0.39027  0.44590  Biso   1.000  C
  C1498    1.0000 0.10973  0.58644  0.44590  Biso   1.000  C
  C1499    1.0000 0.08644  0.60973  0.05410  Biso   1.000  C
  C1500    1.0000 0.91356  0.10973  0.44590  Biso   1.000  C
  C1501    1.0000 0.89027  0.08644  0.05410  Biso   1.000  C
  C1502    1.0000 0.39027  0.91356  0.44590  Biso   1.000  C
  C1503    1.0000 0.41356  0.89027  0.05410  Biso   1.000  C
  C1504    1.0000 0.60973  0.41356  0.05410  Biso   1.000  C
  C1505    1.0000 0.40171  0.58354  0.55450  Biso   1.000  C
  C1506    1.0000 0.91646  0.40171  0.55450  Biso   1.000  C
  C1507    1.0000 0.90171  0.41646  0.94550  Biso   1.000  C
  C1508    1.0000 0.09829  0.91646  0.55450  Biso   1.000  C
  C1509    1.0000 0.08354  0.90171  0.94550  Biso   1.000  C
  C1510    1.0000 0.58354  0.09829  0.55450  Biso   1.000  C
  C1511    1.0000 0.59829  0.08354  0.94550  Biso   1.000  C
  C1512    1.0000 0.41646  0.59829  0.94550  Biso   1.000  C
  C1513    1.0000 0.59829  0.41646  0.44550  Biso   1.000  C
  C1514    1.0000 0.08354  0.59829  0.44550  Biso   1.000  C
  C1515    1.0000 0.09829  0.58354  0.05450  Biso   1.000  C
  C1516    1.0000 0.90171  0.08354  0.44550  Biso   1.000  C
  C1517    1.0000 0.91646  0.09829  0.05450  Biso   1.000  C
  C1518    1.0000 0.41646  0.90171  0.44550  Biso   1.000  C
  C1519    1.0000 0.40171  0.91646  0.05450  Biso   1.000  C
  C1520    1.0000 0.58354  0.40171  0.05450  Biso   1.000  C
  H1329    1.0000 0.40920  0.56950  0.57050  Biso   1.000  H
  H1330    1.0000 0.93050  0.40920  0.57050  Biso   1.000  H
  H1331    1.0000 0.90920  0.43050  0.92950  Biso   1.000  H
  H1332    1.0000 0.09080  0.93050  0.57050  Biso   1.000  H
  H1333    1.0000 0.06950  0.90920  0.92950  Biso   1.000  H
  H1334    1.0000 0.56950  0.09080  0.57050  Biso   1.000  H
  H1335    1.0000 0.59080  0.06950  0.92950  Biso   1.000  H
  H1336    1.0000 0.43050  0.59080  0.92950  Biso   1.000  H
  H1337    1.0000 0.59080  0.43050  0.42950  Biso   1.000  H
  H1338    1.0000 0.06950  0.59080  0.42950  Biso   1.000  H
  H1339    1.0000 0.09080  0.56950  0.07050  Biso   1.000  H
  H1340    1.0000 0.90920  0.06950  0.42950  Biso   1.000  H
  H1341    1.0000 0.93050  0.09080  0.07050  Biso   1.000  H
  H1342    1.0000 0.43050  0.90920  0.42950  Biso   1.000  H
  H1343    1.0000 0.40920  0.93050  0.07050  Biso   1.000  H
  H1344    1.0000 0.56950  0.40920  0.07050  Biso   1.000  H
  C1521    1.0000 0.37821  0.57824  0.53050  Biso   1.000  C
  C1522    1.0000 0.92176  0.37821  0.53050  Biso   1.000  C
  C1523    1.0000 0.87821  0.42176  0.96950  Biso   1.000  C
  C1524    1.0000 0.12179  0.92176  0.53050  Biso   1.000  C
  C1525    1.0000 0.07824  0.87821  0.96950  Biso   1.000  C
  C1526    1.0000 0.57824  0.12179  0.53050  Biso   1.000  C
  C1527    1.0000 0.62179  0.07824  0.96950  Biso   1.000  C
  C1528    1.0000 0.42176  0.62179  0.96950  Biso   1.000  C
  C1529    1.0000 0.62179  0.42176  0.46950  Biso   1.000  C
  C1530    1.0000 0.07824  0.62179  0.46950  Biso   1.000  C
  C1531    1.0000 0.12179  0.57824  0.03050  Biso   1.000  C
  C1532    1.0000 0.87821  0.07824  0.46950  Biso   1.000  C
  C1533    1.0000 0.92176  0.12179  0.03050  Biso   1.000  C
  C1534    1.0000 0.42176  0.87821  0.46950  Biso   1.000  C
  C1535    1.0000 0.37821  0.92176  0.03050  Biso   1.000  C
  C1536    1.0000 0.57824  0.37821  0.03050  Biso   1.000  C
  H1345    1.0000 0.37010  0.56060  0.53060  Biso   1.000  H
  H1346    1.0000 0.93940  0.37010  0.53060  Biso   1.000  H
  H1347    1.0000 0.87010  0.43940  0.96940  Biso   1.000  H
  H1348    1.0000 0.12990  0.93940  0.53060  Biso   1.000  H
  H1349    1.0000 0.06060  0.87010  0.96940  Biso   1.000  H
  H1350    1.0000 0.56060  0.12990  0.53060  Biso   1.000  H
  H1351    1.0000 0.62990  0.06060  0.96940  Biso   1.000  H
  H1352    1.0000 0.43940  0.62990  0.96940  Biso   1.000  H
  H1353    1.0000 0.62990  0.43940  0.46940  Biso   1.000  H
  H1354    1.0000 0.06060  0.62990  0.46940  Biso   1.000  H
  H1355    1.0000 0.12990  0.56060  0.03060  Biso   1.000  H
  H1356    1.0000 0.87010  0.06060  0.46940  Biso   1.000  H
  H1357    1.0000 0.93940  0.12990  0.03060  Biso   1.000  H
  H1358    1.0000 0.43940  0.87010  0.46940  Biso   1.000  H
  H1359    1.0000 0.37010  0.93940  0.03060  Biso   1.000  H
  H1360    1.0000 0.56060  0.37010  0.03060  Biso   1.000  H
  C1537    1.0000 0.36710  0.59900  0.50690  Biso   1.000  C
  C1538    1.0000 0.90100  0.36710  0.50690  Biso   1.000  C
  C1539    1.0000 0.86710  0.40100  0.99310  Biso   1.000  C
  C1540    1.0000 0.13290  0.90100  0.50690  Biso   1.000  C
  C1541    1.0000 0.09900  0.86710  0.99310  Biso   1.000  C
  C1542    1.0000 0.59900  0.13290  0.50690  Biso   1.000  C
  C1543    1.0000 0.63290  0.09900  0.99310  Biso   1.000  C
  C1544    1.0000 0.40100  0.63290  0.99310  Biso   1.000  C
  C1545    1.0000 0.63290  0.40100  0.49310  Biso   1.000  C
  C1546    1.0000 0.09900  0.63290  0.49310  Biso   1.000  C
  C1547    1.0000 0.13290  0.59900  0.00690  Biso   1.000  C
  C1548    1.0000 0.86710  0.09900  0.49310  Biso   1.000  C
  C1549    1.0000 0.90100  0.13290  0.00690  Biso   1.000  C
  C1550    1.0000 0.40100  0.86710  0.49310  Biso   1.000  C
  C1551    1.0000 0.36710  0.90100  0.00690  Biso   1.000  C
  C1552    1.0000 0.59900  0.36710  0.00690  Biso   1.000  C
  H1361    1.0000 0.35170  0.59560  0.49070  Biso   1.000  H
  H1362    1.0000 0.90440  0.35170  0.49070  Biso   1.000  H
  H1363    1.0000 0.85170  0.40440  0.00930  Biso   1.000  H
  H1364    1.0000 0.14830  0.90440  0.49070  Biso   1.000  H
  H1365    1.0000 0.09560  0.85170  0.00930  Biso   1.000  H
  H1366    1.0000 0.59560  0.14830  0.49070  Biso   1.000  H
  H1367    1.0000 0.64830  0.09560  0.00930  Biso   1.000  H
  H1368    1.0000 0.40440  0.64830  0.00930  Biso   1.000  H
  H1369    1.0000 0.64830  0.40440  0.50930  Biso   1.000  H
  H1370    1.0000 0.09560  0.64830  0.50930  Biso   1.000  H
  H1371    1.0000 0.14830  0.59560  0.99070  Biso   1.000  H
  H1372    1.0000 0.85170  0.09560  0.50930  Biso   1.000  H
  H1373    1.0000 0.90440  0.14830  0.99070  Biso   1.000  H
  H1374    1.0000 0.40440  0.85170  0.50930  Biso   1.000  H
  H1375    1.0000 0.35170  0.90440  0.99070  Biso   1.000  H
  H1376    1.0000 0.59560  0.35170  0.99070  Biso   1.000  H
  C1553    1.0000 0.37900  0.62434  0.50770  Biso   1.000  C
  C1554    1.0000 0.87566  0.37900  0.50770  Biso   1.000  C
  C1555    1.0000 0.87900  0.37566  0.99230  Biso   1.000  C
  C1556    1.0000 0.12100  0.87566  0.50770  Biso   1.000  C
  C1557    1.0000 0.12434  0.87900  0.99230  Biso   1.000  C
  C1558    1.0000 0.62434  0.12100  0.50770  Biso   1.000  C
  C1559    1.0000 0.62100  0.12434  0.99230  Biso   1.000  C
  C1560    1.0000 0.37566  0.62100  0.99230  Biso   1.000  C
  C1561    1.0000 0.62100  0.37566  0.49230  Biso   1.000  C
  C1562    1.0000 0.12434  0.62100  0.49230  Biso   1.000  C
  C1563    1.0000 0.12100  0.62434  0.00770  Biso   1.000  C
  C1564    1.0000 0.87900  0.12434  0.49230  Biso   1.000  C
  C1565    1.0000 0.87566  0.12100  0.00770  Biso   1.000  C
  C1566    1.0000 0.37566  0.87900  0.49230  Biso   1.000  C
  C1567    1.0000 0.37900  0.87566  0.00770  Biso   1.000  C
  C1568    1.0000 0.62434  0.37900  0.00770  Biso   1.000  C
  H1377    1.0000 0.37100  0.63840  0.49220  Biso   1.000  H
  H1378    1.0000 0.86160  0.37100  0.49220  Biso   1.000  H
  H1379    1.0000 0.87100  0.36160  0.00780  Biso   1.000  H
  H1380    1.0000 0.12900  0.86160  0.49220  Biso   1.000  H
  H1381    1.0000 0.13840  0.87100  0.00780  Biso   1.000  H
  H1382    1.0000 0.63840  0.12900  0.49220  Biso   1.000  H
  H1383    1.0000 0.62900  0.13840  0.00780  Biso   1.000  H
  H1384    1.0000 0.36160  0.62900  0.00780  Biso   1.000  H
  H1385    1.0000 0.62900  0.36160  0.50780  Biso   1.000  H
  H1386    1.0000 0.13840  0.62900  0.50780  Biso   1.000  H
  H1387    1.0000 0.12900  0.63840  0.99220  Biso   1.000  H
  H1388    1.0000 0.87100  0.13840  0.50780  Biso   1.000  H
  H1389    1.0000 0.86160  0.12900  0.99220  Biso   1.000  H
  H1390    1.0000 0.36160  0.87100  0.50780  Biso   1.000  H
  H1391    1.0000 0.37100  0.86160  0.99220  Biso   1.000  H
  H1392    1.0000 0.63840  0.37100  0.99220  Biso   1.000  H
  C1569    1.0000 0.43907  0.61449  0.57980  Biso   1.000  C
  C1570    1.0000 0.88551  0.43907  0.57980  Biso   1.000  C
  C1571    1.0000 0.93907  0.38551  0.92020  Biso   1.000  C
  C1572    1.0000 0.06093  0.88551  0.57980  Biso   1.000  C
  C1573    1.0000 0.11449  0.93907  0.92020  Biso   1.000  C
  C1574    1.0000 0.61449  0.06093  0.57980  Biso   1.000  C
  C1575    1.0000 0.56093  0.11449  0.92020  Biso   1.000  C
  C1576    1.0000 0.38551  0.56093  0.92020  Biso   1.000  C
  C1577    1.0000 0.56093  0.38551  0.42020  Biso   1.000  C
  C1578    1.0000 0.11449  0.56093  0.42020  Biso   1.000  C
  C1579    1.0000 0.06093  0.61449  0.07980  Biso   1.000  C
  C1580    1.0000 0.93907  0.11449  0.42020  Biso   1.000  C
  C1581    1.0000 0.88551  0.06093  0.07980  Biso   1.000  C
  C1582    1.0000 0.38551  0.93907  0.42020  Biso   1.000  C
  C1583    1.0000 0.43907  0.88551  0.07980  Biso   1.000  C
  C1584    1.0000 0.61449  0.43907  0.07980  Biso   1.000  C
  C1585    1.0000 0.52066  0.65298  0.57020  Biso   1.000  C
  C1586    1.0000 0.84702  0.52066  0.57020  Biso   1.000  C
  C1587    1.0000 0.02066  0.34702  0.92980  Biso   1.000  C
  C1588    1.0000 0.97934  0.84702  0.57020  Biso   1.000  C
  C1589    1.0000 0.15298  0.02066  0.92980  Biso   1.000  C
  C1590    1.0000 0.65298  0.97934  0.57020  Biso   1.000  C
  C1591    1.0000 0.47934  0.15298  0.92980  Biso   1.000  C
  C1592    1.0000 0.34702  0.47934  0.92980  Biso   1.000  C
  C1593    1.0000 0.47934  0.34702  0.42980  Biso   1.000  C
  C1594    1.0000 0.15298  0.47934  0.42980  Biso   1.000  C
  C1595    1.0000 0.97934  0.65298  0.07020  Biso   1.000  C
  C1596    1.0000 0.02066  0.15298  0.42980  Biso   1.000  C
  C1597    1.0000 0.84702  0.97934  0.07020  Biso   1.000  C
  C1598    1.0000 0.34702  0.02066  0.42980  Biso   1.000  C
  C1599    1.0000 0.52066  0.84702  0.07020  Biso   1.000  C
  C1600    1.0000 0.65298  0.52066  0.07020  Biso   1.000  C
  C1601    1.0000 0.51379  0.62206  0.52380  Biso   1.000  C
  C1602    1.0000 0.87794  0.51379  0.52380  Biso   1.000  C
  C1603    1.0000 0.01379  0.37794  0.97620  Biso   1.000  C
  C1604    1.0000 0.98621  0.87794  0.52380  Biso   1.000  C
  C1605    1.0000 0.12206  0.01379  0.97620  Biso   1.000  C
  C1606    1.0000 0.62206  0.98621  0.52380  Biso   1.000  C
  C1607    1.0000 0.48621  0.12206  0.97620  Biso   1.000  C
  C1608    1.0000 0.37794  0.48621  0.97620  Biso   1.000  C
  C1609    1.0000 0.48621  0.37794  0.47620  Biso   1.000  C
  C1610    1.0000 0.12206  0.48621  0.47620  Biso   1.000  C
  C1611    1.0000 0.98621  0.62206  0.02380  Biso   1.000  C
  C1612    1.0000 0.01379  0.12206  0.47620  Biso   1.000  C
  C1613    1.0000 0.87794  0.98621  0.02380  Biso   1.000  C
  C1614    1.0000 0.37794  0.01379  0.47620  Biso   1.000  C
  C1615    1.0000 0.51379  0.87794  0.02380  Biso   1.000  C
  C1616    1.0000 0.62206  0.51379  0.02380  Biso   1.000  C
  C1617    1.0000 0.50643  0.59885  0.50040  Biso   1.000  C
  C1618    1.0000 0.90115  0.50643  0.50040  Biso   1.000  C
  C1619    1.0000 0.00643  0.40115  0.99960  Biso   1.000  C
  C1620    1.0000 0.99357  0.90115  0.50040  Biso   1.000  C
  C1621    1.0000 0.09885  0.00643  0.99960  Biso   1.000  C
  C1622    1.0000 0.59885  0.99357  0.50040  Biso   1.000  C
  C1623    1.0000 0.49357  0.09885  0.99960  Biso   1.000  C
  C1624    1.0000 0.40115  0.49357  0.99960  Biso   1.000  C
  C1625    1.0000 0.49357  0.40115  0.49960  Biso   1.000  C
  C1626    1.0000 0.09885  0.49357  0.49960  Biso   1.000  C
  C1627    1.0000 0.99357  0.59885  0.00040  Biso   1.000  C
  C1628    1.0000 0.00643  0.09885  0.49960  Biso   1.000  C
  C1629    1.0000 0.90115  0.99357  0.00040  Biso   1.000  C
  C1630    1.0000 0.40115  0.00643  0.49960  Biso   1.000  C
  C1631    1.0000 0.50643  0.90115  0.00040  Biso   1.000  C
  C1632    1.0000 0.59885  0.50643  0.00040  Biso   1.000  C
  H1393    1.0000 0.49560  0.58460  0.51130  Biso   1.000  H
  H1394    1.0000 0.91540  0.49560  0.51130  Biso   1.000  H
  H1395    1.0000 0.99560  0.41540  0.98870  Biso   1.000  H
  H1396    1.0000 0.00440  0.91540  0.51130  Biso   1.000  H
  H1397    1.0000 0.08460  0.99560  0.98870  Biso   1.000  H
  H1398    1.0000 0.58460  0.00440  0.51130  Biso   1.000  H
  H1399    1.0000 0.50440  0.08460  0.98870  Biso   1.000  H
  H1400    1.0000 0.41540  0.50440  0.98870  Biso   1.000  H
  H1401    1.0000 0.50440  0.41540  0.48870  Biso   1.000  H
  H1402    1.0000 0.08460  0.50440  0.48870  Biso   1.000  H
  H1403    1.0000 0.00440  0.58460  0.01130  Biso   1.000  H
  H1404    1.0000 0.99560  0.08460  0.48870  Biso   1.000  H
  H1405    1.0000 0.91540  0.00440  0.01130  Biso   1.000  H
  H1406    1.0000 0.41540  0.99560  0.48870  Biso   1.000  H
  H1407    1.0000 0.49560  0.91540  0.01130  Biso   1.000  H
  H1408    1.0000 0.58460  0.49560  0.01130  Biso   1.000  H
  C1633    1.0000 0.51539  0.59746  0.46150  Biso   1.000  C
  C1634    1.0000 0.90254  0.51539  0.46150  Biso   1.000  C
  C1635    1.0000 0.01539  0.40254  0.03850  Biso   1.000  C
  C1636    1.0000 0.98461  0.90254  0.46150  Biso   1.000  C
  C1637    1.0000 0.09746  0.01539  0.03850  Biso   1.000  C
  C1638    1.0000 0.59746  0.98461  0.46150  Biso   1.000  C
  C1639    1.0000 0.48461  0.09746  0.03850  Biso   1.000  C
  C1640    1.0000 0.40254  0.48461  0.03850  Biso   1.000  C
  C1641    1.0000 0.48461  0.40254  0.53850  Biso   1.000  C
  C1642    1.0000 0.09746  0.48461  0.53850  Biso   1.000  C
  C1643    1.0000 0.98461  0.59746  0.96150  Biso   1.000  C
  C1644    1.0000 0.01539  0.09746  0.53850  Biso   1.000  C
  C1645    1.0000 0.90254  0.98461  0.96150  Biso   1.000  C
  C1646    1.0000 0.40254  0.01539  0.53850  Biso   1.000  C
  C1647    1.0000 0.51539  0.90254  0.96150  Biso   1.000  C
  C1648    1.0000 0.59746  0.51539  0.96150  Biso   1.000  C
  H1409    1.0000 0.51060  0.58230  0.44550  Biso   1.000  H
  H1410    1.0000 0.91770  0.51060  0.44550  Biso   1.000  H
  H1411    1.0000 0.01060  0.41770  0.05450  Biso   1.000  H
  H1412    1.0000 0.98940  0.91770  0.44550  Biso   1.000  H
  H1413    1.0000 0.08230  0.01060  0.05450  Biso   1.000  H
  H1414    1.0000 0.58230  0.98940  0.44550  Biso   1.000  H
  H1415    1.0000 0.48940  0.08230  0.05450  Biso   1.000  H
  H1416    1.0000 0.41770  0.48940  0.05450  Biso   1.000  H
  H1417    1.0000 0.48940  0.41770  0.55450  Biso   1.000  H
  H1418    1.0000 0.08230  0.48940  0.55450  Biso   1.000  H
  H1419    1.0000 0.98940  0.58230  0.94550  Biso   1.000  H
  H1420    1.0000 0.01060  0.08230  0.55450  Biso   1.000  H
  H1421    1.0000 0.91770  0.98940  0.94550  Biso   1.000  H
  H1422    1.0000 0.41770  0.01060  0.55450  Biso   1.000  H
  H1423    1.0000 0.51060  0.91770  0.94550  Biso   1.000  H
  H1424    1.0000 0.58230  0.51060  0.94550  Biso   1.000  H
  C1649    1.0000 0.53151  0.61840  0.44590  Biso   1.000  C
  C1650    1.0000 0.88160  0.53151  0.44590  Biso   1.000  C
  C1651    1.0000 0.03151  0.38160  0.05410  Biso   1.000  C
  C1652    1.0000 0.96849  0.88160  0.44590  Biso   1.000  C
  C1653    1.0000 0.11840  0.03151  0.05410  Biso   1.000  C
  C1654    1.0000 0.61840  0.96849  0.44590  Biso   1.000  C
  C1655    1.0000 0.46849  0.11840  0.05410  Biso   1.000  C
  C1656    1.0000 0.38160  0.46849  0.05410  Biso   1.000  C
  C1657    1.0000 0.46849  0.38160  0.55410  Biso   1.000  C
  C1658    1.0000 0.11840  0.46849  0.55410  Biso   1.000  C
  C1659    1.0000 0.96849  0.61840  0.94590  Biso   1.000  C
  C1660    1.0000 0.03151  0.11840  0.55410  Biso   1.000  C
  C1661    1.0000 0.88160  0.96849  0.94590  Biso   1.000  C
  C1662    1.0000 0.38160  0.03151  0.55410  Biso   1.000  C
  C1663    1.0000 0.53151  0.88160  0.94590  Biso   1.000  C
  C1664    1.0000 0.61840  0.53151  0.94590  Biso   1.000  C
  H1425    1.0000 0.53750  0.61740  0.41930  Biso   1.000  H
  H1426    1.0000 0.88260  0.53750  0.41930  Biso   1.000  H
  H1427    1.0000 0.03750  0.38260  0.08070  Biso   1.000  H
  H1428    1.0000 0.96250  0.88260  0.41930  Biso   1.000  H
  H1429    1.0000 0.11740  0.03750  0.08070  Biso   1.000  H
  H1430    1.0000 0.61740  0.96250  0.41930  Biso   1.000  H
  H1431    1.0000 0.46250  0.11740  0.08070  Biso   1.000  H
  H1432    1.0000 0.38260  0.46250  0.08070  Biso   1.000  H
  H1433    1.0000 0.46250  0.38260  0.58070  Biso   1.000  H
  H1434    1.0000 0.11740  0.46250  0.58070  Biso   1.000  H
  H1435    1.0000 0.96250  0.61740  0.91930  Biso   1.000  H
  H1436    1.0000 0.03750  0.11740  0.58070  Biso   1.000  H
  H1437    1.0000 0.88260  0.96250  0.91930  Biso   1.000  H
  H1438    1.0000 0.38260  0.03750  0.58070  Biso   1.000  H
  H1439    1.0000 0.53750  0.88260  0.91930  Biso   1.000  H
  H1440    1.0000 0.61740  0.53750  0.91930  Biso   1.000  H
  C1665    1.0000 0.53899  0.64125  0.46910  Biso   1.000  C
  C1666    1.0000 0.85875  0.53899  0.46910  Biso   1.000  C
  C1667    1.0000 0.03899  0.35875  0.03090  Biso   1.000  C
  C1668    1.0000 0.96101  0.85875  0.46910  Biso   1.000  C
  C1669    1.0000 0.14125  0.03899  0.03090  Biso   1.000  C
  C1670    1.0000 0.64125  0.96101  0.46910  Biso   1.000  C
  C1671    1.0000 0.46101  0.14125  0.03090  Biso   1.000  C
  C1672    1.0000 0.35875  0.46101  0.03090  Biso   1.000  C
  C1673    1.0000 0.46101  0.35875  0.53090  Biso   1.000  C
  C1674    1.0000 0.14125  0.46101  0.53090  Biso   1.000  C
  C1675    1.0000 0.96101  0.64125  0.96910  Biso   1.000  C
  C1676    1.0000 0.03899  0.14125  0.53090  Biso   1.000  C
  C1677    1.0000 0.85875  0.96101  0.96910  Biso   1.000  C
  C1678    1.0000 0.35875  0.03899  0.53090  Biso   1.000  C
  C1679    1.0000 0.53899  0.85875  0.96910  Biso   1.000  C
  C1680    1.0000 0.64125  0.53899  0.96910  Biso   1.000  C
  H1441    1.0000 0.54990  0.65550  0.45860  Biso   1.000  H
  H1442    1.0000 0.84450  0.54990  0.45860  Biso   1.000  H
  H1443    1.0000 0.04990  0.34450  0.04140  Biso   1.000  H
  H1444    1.0000 0.95010  0.84450  0.45860  Biso   1.000  H
  H1445    1.0000 0.15550  0.04990  0.04140  Biso   1.000  H
  H1446    1.0000 0.65550  0.95010  0.45860  Biso   1.000  H
  H1447    1.0000 0.45010  0.15550  0.04140  Biso   1.000  H
  H1448    1.0000 0.34450  0.45010  0.04140  Biso   1.000  H
  H1449    1.0000 0.45010  0.34450  0.54140  Biso   1.000  H
  H1450    1.0000 0.15550  0.45010  0.54140  Biso   1.000  H
  H1451    1.0000 0.95010  0.65550  0.95860  Biso   1.000  H
  H1452    1.0000 0.04990  0.15550  0.54140  Biso   1.000  H
  H1453    1.0000 0.84450  0.95010  0.95860  Biso   1.000  H
  H1454    1.0000 0.34450  0.04990  0.54140  Biso   1.000  H
  H1455    1.0000 0.54990  0.84450  0.95860  Biso   1.000  H
  H1456    1.0000 0.65550  0.54990  0.95860  Biso   1.000  H
  C1681    1.0000 0.52983  0.64202  0.50780  Biso   1.000  C
  C1682    1.0000 0.85798  0.52983  0.50780  Biso   1.000  C
  C1683    1.0000 0.02983  0.35798  0.99220  Biso   1.000  C
  C1684    1.0000 0.97017  0.85798  0.50780  Biso   1.000  C
  C1685    1.0000 0.14202  0.02983  0.99220  Biso   1.000  C
  C1686    1.0000 0.64202  0.97017  0.50780  Biso   1.000  C
  C1687    1.0000 0.47017  0.14202  0.99220  Biso   1.000  C
  C1688    1.0000 0.35798  0.47017  0.99220  Biso   1.000  C
  C1689    1.0000 0.47017  0.35798  0.49220  Biso   1.000  C
  C1690    1.0000 0.14202  0.47017  0.49220  Biso   1.000  C
  C1691    1.0000 0.97017  0.64202  0.00780  Biso   1.000  C
  C1692    1.0000 0.02983  0.14202  0.49220  Biso   1.000  C
  C1693    1.0000 0.85798  0.97017  0.00780  Biso   1.000  C
  C1694    1.0000 0.35798  0.02983  0.49220  Biso   1.000  C
  C1695    1.0000 0.52983  0.85798  0.00780  Biso   1.000  C
  C1696    1.0000 0.64202  0.52983  0.00780  Biso   1.000  C
  C1697    1.0000 0.54894  0.68792  0.53160  Biso   1.000  C
  C1698    1.0000 0.81208  0.54894  0.53160  Biso   1.000  C
  C1699    1.0000 0.04894  0.31208  0.96840  Biso   1.000  C
  C1700    1.0000 0.95106  0.81208  0.53160  Biso   1.000  C
  C1701    1.0000 0.18792  0.04894  0.96840  Biso   1.000  C
  C1702    1.0000 0.68792  0.95106  0.53160  Biso   1.000  C
  C1703    1.0000 0.45106  0.18792  0.96840  Biso   1.000  C
  C1704    1.0000 0.31208  0.45106  0.96840  Biso   1.000  C
  C1705    1.0000 0.45106  0.31208  0.46840  Biso   1.000  C
  C1706    1.0000 0.18792  0.45106  0.46840  Biso   1.000  C
  C1707    1.0000 0.95106  0.68792  0.03160  Biso   1.000  C
  C1708    1.0000 0.04894  0.18792  0.46840  Biso   1.000  C
  C1709    1.0000 0.81208  0.95106  0.03160  Biso   1.000  C
  C1710    1.0000 0.31208  0.04894  0.46840  Biso   1.000  C
  C1711    1.0000 0.54894  0.81208  0.03160  Biso   1.000  C
  C1712    1.0000 0.68792  0.54894  0.03160  Biso   1.000  C
  H1457    1.0000 0.54280  0.70100  0.55170  Biso   1.000  H
  H1458    1.0000 0.79900  0.54280  0.55170  Biso   1.000  H
  H1459    1.0000 0.04280  0.29900  0.94830  Biso   1.000  H
  H1460    1.0000 0.95720  0.79900  0.55170  Biso   1.000  H
  H1461    1.0000 0.20100  0.04280  0.94830  Biso   1.000  H
  H1462    1.0000 0.70100  0.95720  0.55170  Biso   1.000  H
  H1463    1.0000 0.45720  0.20100  0.94830  Biso   1.000  H
  H1464    1.0000 0.29900  0.45720  0.94830  Biso   1.000  H
  H1465    1.0000 0.45720  0.29900  0.44830  Biso   1.000  H
  H1466    1.0000 0.20100  0.45720  0.44830  Biso   1.000  H
  H1467    1.0000 0.95720  0.70100  0.05170  Biso   1.000  H
  H1468    1.0000 0.04280  0.20100  0.44830  Biso   1.000  H
  H1469    1.0000 0.79900  0.95720  0.05170  Biso   1.000  H
  H1470    1.0000 0.29900  0.04280  0.44830  Biso   1.000  H
  H1471    1.0000 0.54280  0.79900  0.05170  Biso   1.000  H
  H1472    1.0000 0.70100  0.54280  0.05170  Biso   1.000  H
  H1473    1.0000 0.54540  0.69540  0.50520  Biso   1.000  H
  H1474    1.0000 0.80460  0.54540  0.50520  Biso   1.000  H
  H1475    1.0000 0.04540  0.30460  0.99480  Biso   1.000  H
  H1476    1.0000 0.95460  0.80460  0.50520  Biso   1.000  H
  H1477    1.0000 0.19540  0.04540  0.99480  Biso   1.000  H
  H1478    1.0000 0.69540  0.95460  0.50520  Biso   1.000  H
  H1479    1.0000 0.45460  0.19540  0.99480  Biso   1.000  H
  H1480    1.0000 0.30460  0.45460  0.99480  Biso   1.000  H
  H1481    1.0000 0.45460  0.30460  0.49480  Biso   1.000  H
  H1482    1.0000 0.19540  0.45460  0.49480  Biso   1.000  H
  H1483    1.0000 0.95460  0.69540  0.00520  Biso   1.000  H
  H1484    1.0000 0.04540  0.19540  0.49480  Biso   1.000  H
  H1485    1.0000 0.80460  0.95460  0.00520  Biso   1.000  H
  H1486    1.0000 0.30460  0.04540  0.49480  Biso   1.000  H
  H1487    1.0000 0.54540  0.80460  0.00520  Biso   1.000  H
  H1488    1.0000 0.69540  0.54540  0.00520  Biso   1.000  H
  H1489    1.0000 0.56860  0.68460  0.53470  Biso   1.000  H
  H1490    1.0000 0.81540  0.56860  0.53470  Biso   1.000  H
  H1491    1.0000 0.06860  0.31540  0.96530  Biso   1.000  H
  H1492    1.0000 0.93140  0.81540  0.53470  Biso   1.000  H
  H1493    1.0000 0.18460  0.06860  0.96530  Biso   1.000  H
  H1494    1.0000 0.68460  0.93140  0.53470  Biso   1.000  H
  H1495    1.0000 0.43140  0.18460  0.96530  Biso   1.000  H
  H1496    1.0000 0.31540  0.43140  0.96530  Biso   1.000  H
  H1497    1.0000 0.43140  0.31540  0.46530  Biso   1.000  H
  H1498    1.0000 0.18460  0.43140  0.46530  Biso   1.000  H
  H1499    1.0000 0.93140  0.68460  0.03470  Biso   1.000  H
  H1500    1.0000 0.06860  0.18460  0.46530  Biso   1.000  H
  H1501    1.0000 0.81540  0.93140  0.03470  Biso   1.000  H
  H1502    1.0000 0.31540  0.06860  0.46530  Biso   1.000  H
  H1503    1.0000 0.56860  0.81540  0.03470  Biso   1.000  H
  H1504    1.0000 0.68460  0.56860  0.03470  Biso   1.000  H
  C1713    1.0000 0.52026  0.66762  0.60850  Biso   1.000  C
  C1714    1.0000 0.83238  0.52026  0.60850  Biso   1.000  C
  C1715    1.0000 0.02026  0.33238  0.89150  Biso   1.000  C
  C1716    1.0000 0.97974  0.83238  0.60850  Biso   1.000  C
  C1717    1.0000 0.16762  0.02026  0.89150  Biso   1.000  C
  C1718    1.0000 0.66762  0.97974  0.60850  Biso   1.000  C
  C1719    1.0000 0.47974  0.16762  0.89150  Biso   1.000  C
  C1720    1.0000 0.33238  0.47974  0.89150  Biso   1.000  C
  C1721    1.0000 0.47974  0.33238  0.39150  Biso   1.000  C
  C1722    1.0000 0.16762  0.47974  0.39150  Biso   1.000  C
  C1723    1.0000 0.97974  0.66762  0.10850  Biso   1.000  C
  C1724    1.0000 0.02026  0.16762  0.39150  Biso   1.000  C
  C1725    1.0000 0.83238  0.97974  0.10850  Biso   1.000  C
  C1726    1.0000 0.33238  0.02026  0.39150  Biso   1.000  C
  C1727    1.0000 0.52026  0.83238  0.10850  Biso   1.000  C
  C1728    1.0000 0.66762  0.52026  0.10850  Biso   1.000  C
  C1729    1.0000 0.49484  0.67171  0.62560  Biso   1.000  C
  C1730    1.0000 0.82829  0.49484  0.62560  Biso   1.000  C
  C1731    1.0000 0.99484  0.32829  0.87440  Biso   1.000  C
  C1732    1.0000 0.00516  0.82829  0.62560  Biso   1.000  C
  C1733    1.0000 0.17171  0.99484  0.87440  Biso   1.000  C
  C1734    1.0000 0.67171  0.00516  0.62560  Biso   1.000  C
  C1735    1.0000 0.50516  0.17171  0.87440  Biso   1.000  C
  C1736    1.0000 0.32829  0.50516  0.87440  Biso   1.000  C
  C1737    1.0000 0.50516  0.32829  0.37440  Biso   1.000  C
  C1738    1.0000 0.17171  0.50516  0.37440  Biso   1.000  C
  C1739    1.0000 0.00516  0.67171  0.12560  Biso   1.000  C
  C1740    1.0000 0.99484  0.17171  0.37440  Biso   1.000  C
  C1741    1.0000 0.82829  0.00516  0.12560  Biso   1.000  C
  C1742    1.0000 0.32829  0.99484  0.37440  Biso   1.000  C
  C1743    1.0000 0.49484  0.82829  0.12560  Biso   1.000  C
  C1744    1.0000 0.67171  0.49484  0.12560  Biso   1.000  C
  H1505    1.0000 0.47830  0.66620  0.61310  Biso   1.000  H
  H1506    1.0000 0.83380  0.47830  0.61310  Biso   1.000  H
  H1507    1.0000 0.97830  0.33380  0.88690  Biso   1.000  H
  H1508    1.0000 0.02170  0.83380  0.61310  Biso   1.000  H
  H1509    1.0000 0.16620  0.97830  0.88690  Biso   1.000  H
  H1510    1.0000 0.66620  0.02170  0.61310  Biso   1.000  H
  H1511    1.0000 0.52170  0.16620  0.88690  Biso   1.000  H
  H1512    1.0000 0.33380  0.52170  0.88690  Biso   1.000  H
  H1513    1.0000 0.52170  0.33380  0.38690  Biso   1.000  H
  H1514    1.0000 0.16620  0.52170  0.38690  Biso   1.000  H
  H1515    1.0000 0.02170  0.66620  0.11310  Biso   1.000  H
  H1516    1.0000 0.97830  0.16620  0.38690  Biso   1.000  H
  H1517    1.0000 0.83380  0.02170  0.11310  Biso   1.000  H
  H1518    1.0000 0.33380  0.97830  0.38690  Biso   1.000  H
  H1519    1.0000 0.47830  0.83380  0.11310  Biso   1.000  H
  H1520    1.0000 0.66620  0.47830  0.11310  Biso   1.000  H
  C1745    1.0000 0.49535  0.68433  0.66180  Biso   1.000  C
  C1746    1.0000 0.81567  0.49535  0.66180  Biso   1.000  C
  C1747    1.0000 0.99535  0.31567  0.83820  Biso   1.000  C
  C1748    1.0000 0.00465  0.81567  0.66180  Biso   1.000  C
  C1749    1.0000 0.18433  0.99535  0.83820  Biso   1.000  C
  C1750    1.0000 0.68433  0.00465  0.66180  Biso   1.000  C
  C1751    1.0000 0.50465  0.18433  0.83820  Biso   1.000  C
  C1752    1.0000 0.31567  0.50465  0.83820  Biso   1.000  C
  C1753    1.0000 0.50465  0.31567  0.33820  Biso   1.000  C
  C1754    1.0000 0.18433  0.50465  0.33820  Biso   1.000  C
  C1755    1.0000 0.00465  0.68433  0.16180  Biso   1.000  C
  C1756    1.0000 0.99535  0.18433  0.33820  Biso   1.000  C
  C1757    1.0000 0.81567  0.00465  0.16180  Biso   1.000  C
  C1758    1.0000 0.31567  0.99535  0.33820  Biso   1.000  C
  C1759    1.0000 0.49535  0.81567  0.16180  Biso   1.000  C
  C1760    1.0000 0.68433  0.49535  0.16180  Biso   1.000  C
  C1761    1.0000 0.48540  0.70233  0.72010  Biso   1.000  C
  C1762    1.0000 0.79767  0.48540  0.72010  Biso   1.000  C
  C1763    1.0000 0.98540  0.29767  0.77990  Biso   1.000  C
  C1764    1.0000 0.01460  0.79767  0.72010  Biso   1.000  C
  C1765    1.0000 0.20233  0.98540  0.77990  Biso   1.000  C
  C1766    1.0000 0.70233  0.01460  0.72010  Biso   1.000  C
  C1767    1.0000 0.51460  0.20233  0.77990  Biso   1.000  C
  C1768    1.0000 0.29767  0.51460  0.77990  Biso   1.000  C
  C1769    1.0000 0.51460  0.29767  0.27990  Biso   1.000  C
  C1770    1.0000 0.20233  0.51460  0.27990  Biso   1.000  C
  C1771    1.0000 0.01460  0.70233  0.22010  Biso   1.000  C
  C1772    1.0000 0.98540  0.20233  0.27990  Biso   1.000  C
  C1773    1.0000 0.79767  0.01460  0.22010  Biso   1.000  C
  C1774    1.0000 0.29767  0.98540  0.27990  Biso   1.000  C
  C1775    1.0000 0.48540  0.79767  0.22010  Biso   1.000  C
  C1776    1.0000 0.70233  0.48540  0.22010  Biso   1.000  C
  C1777    1.0000 0.51970  0.69236  0.68250  Biso   1.000  C
  C1778    1.0000 0.80764  0.51970  0.68250  Biso   1.000  C
  C1779    1.0000 0.01970  0.30764  0.81750  Biso   1.000  C
  C1780    1.0000 0.98030  0.80764  0.68250  Biso   1.000  C
  C1781    1.0000 0.19236  0.01970  0.81750  Biso   1.000  C
  C1782    1.0000 0.69236  0.98030  0.68250  Biso   1.000  C
  C1783    1.0000 0.48030  0.19236  0.81750  Biso   1.000  C
  C1784    1.0000 0.30764  0.48030  0.81750  Biso   1.000  C
  C1785    1.0000 0.48030  0.30764  0.31750  Biso   1.000  C
  C1786    1.0000 0.19236  0.48030  0.31750  Biso   1.000  C
  C1787    1.0000 0.98030  0.69236  0.18250  Biso   1.000  C
  C1788    1.0000 0.01970  0.19236  0.31750  Biso   1.000  C
  C1789    1.0000 0.80764  0.98030  0.18250  Biso   1.000  C
  C1790    1.0000 0.30764  0.01970  0.31750  Biso   1.000  C
  C1791    1.0000 0.51970  0.80764  0.18250  Biso   1.000  C
  C1792    1.0000 0.69236  0.51970  0.18250  Biso   1.000  C
  C1793    1.0000 0.54550  0.68769  0.66500  Biso   1.000  C
  C1794    1.0000 0.81231  0.54550  0.66500  Biso   1.000  C
  C1795    1.0000 0.04550  0.31231  0.83500  Biso   1.000  C
  C1796    1.0000 0.95450  0.81231  0.66500  Biso   1.000  C
  C1797    1.0000 0.18769  0.04550  0.83500  Biso   1.000  C
  C1798    1.0000 0.68769  0.95450  0.66500  Biso   1.000  C
  C1799    1.0000 0.45450  0.18769  0.83500  Biso   1.000  C
  C1800    1.0000 0.31231  0.45450  0.83500  Biso   1.000  C
  C1801    1.0000 0.45450  0.31231  0.33500  Biso   1.000  C
  C1802    1.0000 0.18769  0.45450  0.33500  Biso   1.000  C
  C1803    1.0000 0.95450  0.68769  0.16500  Biso   1.000  C
  C1804    1.0000 0.04550  0.18769  0.33500  Biso   1.000  C
  C1805    1.0000 0.81231  0.95450  0.16500  Biso   1.000  C
  C1806    1.0000 0.31231  0.04550  0.33500  Biso   1.000  C
  C1807    1.0000 0.54550  0.81231  0.16500  Biso   1.000  C
  C1808    1.0000 0.68769  0.54550  0.16500  Biso   1.000  C
  C1809    1.0000 0.54511  0.67566  0.62750  Biso   1.000  C
  C1810    1.0000 0.82434  0.54511  0.62750  Biso   1.000  C
  C1811    1.0000 0.04511  0.32434  0.87250  Biso   1.000  C
  C1812    1.0000 0.95489  0.82434  0.62750  Biso   1.000  C
  C1813    1.0000 0.17566  0.04511  0.87250  Biso   1.000  C
  C1814    1.0000 0.67566  0.95489  0.62750  Biso   1.000  C
  C1815    1.0000 0.45489  0.17566  0.87250  Biso   1.000  C
  C1816    1.0000 0.32434  0.45489  0.87250  Biso   1.000  C
  C1817    1.0000 0.45489  0.32434  0.37250  Biso   1.000  C
  C1818    1.0000 0.17566  0.45489  0.37250  Biso   1.000  C
  C1819    1.0000 0.95489  0.67566  0.12750  Biso   1.000  C
  C1820    1.0000 0.04511  0.17566  0.37250  Biso   1.000  C
  C1821    1.0000 0.82434  0.95489  0.12750  Biso   1.000  C
  C1822    1.0000 0.32434  0.04511  0.37250  Biso   1.000  C
  C1823    1.0000 0.54511  0.82434  0.12750  Biso   1.000  C
  C1824    1.0000 0.67566  0.54511  0.12750  Biso   1.000  C
  H1521    1.0000 0.56190  0.67270  0.61420  Biso   1.000  H
  H1522    1.0000 0.82730  0.56190  0.61420  Biso   1.000  H
  H1523    1.0000 0.06190  0.32730  0.88580  Biso   1.000  H
  H1524    1.0000 0.93810  0.82730  0.61420  Biso   1.000  H
  H1525    1.0000 0.17270  0.06190  0.88580  Biso   1.000  H
  H1526    1.0000 0.67270  0.93810  0.61420  Biso   1.000  H
  H1527    1.0000 0.43810  0.17270  0.88580  Biso   1.000  H
  H1528    1.0000 0.32730  0.43810  0.88580  Biso   1.000  H
  H1529    1.0000 0.43810  0.32730  0.38580  Biso   1.000  H
  H1530    1.0000 0.17270  0.43810  0.38580  Biso   1.000  H
  H1531    1.0000 0.93810  0.67270  0.11420  Biso   1.000  H
  H1532    1.0000 0.06190  0.17270  0.38580  Biso   1.000  H
  H1533    1.0000 0.82730  0.93810  0.11420  Biso   1.000  H
  H1534    1.0000 0.32730  0.06190  0.38580  Biso   1.000  H
  H1535    1.0000 0.56190  0.82730  0.11420  Biso   1.000  H
  H1536    1.0000 0.67270  0.56190  0.11420  Biso   1.000  H
  C1825    1.0000 0.57181  0.69366  0.68570  Biso   1.000  C
  C1826    1.0000 0.80634  0.57181  0.68570  Biso   1.000  C
  C1827    1.0000 0.07181  0.30634  0.81430  Biso   1.000  C
  C1828    1.0000 0.92819  0.80634  0.68570  Biso   1.000  C
  C1829    1.0000 0.19366  0.07181  0.81430  Biso   1.000  C
  C1830    1.0000 0.69366  0.92819  0.68570  Biso   1.000  C
  C1831    1.0000 0.42819  0.19366  0.81430  Biso   1.000  C
  C1832    1.0000 0.30634  0.42819  0.81430  Biso   1.000  C
  C1833    1.0000 0.42819  0.30634  0.31430  Biso   1.000  C
  C1834    1.0000 0.19366  0.42819  0.31430  Biso   1.000  C
  C1835    1.0000 0.92819  0.69366  0.18570  Biso   1.000  C
  C1836    1.0000 0.07181  0.19366  0.31430  Biso   1.000  C
  C1837    1.0000 0.80634  0.92819  0.18570  Biso   1.000  C
  C1838    1.0000 0.30634  0.07181  0.31430  Biso   1.000  C
  C1839    1.0000 0.57181  0.80634  0.18570  Biso   1.000  C
  C1840    1.0000 0.69366  0.57181  0.18570  Biso   1.000  C
  H1537    1.0000 0.57410  0.71350  0.68830  Biso   1.000  H
  H1538    1.0000 0.78650  0.57410  0.68830  Biso   1.000  H
  H1539    1.0000 0.07410  0.28650  0.81170  Biso   1.000  H
  H1540    1.0000 0.92590  0.78650  0.68830  Biso   1.000  H
  H1541    1.0000 0.21350  0.07410  0.81170  Biso   1.000  H
  H1542    1.0000 0.71350  0.92590  0.68830  Biso   1.000  H
  H1543    1.0000 0.42590  0.21350  0.81170  Biso   1.000  H
  H1544    1.0000 0.28650  0.42590  0.81170  Biso   1.000  H
  H1545    1.0000 0.42590  0.28650  0.31170  Biso   1.000  H
  H1546    1.0000 0.21350  0.42590  0.31170  Biso   1.000  H
  H1547    1.0000 0.92590  0.71350  0.18830  Biso   1.000  H
  H1548    1.0000 0.07410  0.21350  0.31170  Biso   1.000  H
  H1549    1.0000 0.78650  0.92590  0.18830  Biso   1.000  H
  H1550    1.0000 0.28650  0.07410  0.31170  Biso   1.000  H
  H1551    1.0000 0.57410  0.78650  0.18830  Biso   1.000  H
  H1552    1.0000 0.71350  0.57410  0.18830  Biso   1.000  H
  H1553    1.0000 0.58700  0.68610  0.67040  Biso   1.000  H
  H1554    1.0000 0.81390  0.58700  0.67040  Biso   1.000  H
  H1555    1.0000 0.08700  0.31390  0.82960  Biso   1.000  H
  H1556    1.0000 0.91300  0.81390  0.67040  Biso   1.000  H
  H1557    1.0000 0.18610  0.08700  0.82960  Biso   1.000  H
  H1558    1.0000 0.68610  0.91300  0.67040  Biso   1.000  H
  H1559    1.0000 0.41300  0.18610  0.82960  Biso   1.000  H
  H1560    1.0000 0.31390  0.41300  0.82960  Biso   1.000  H
  H1561    1.0000 0.41300  0.31390  0.32960  Biso   1.000  H
  H1562    1.0000 0.18610  0.41300  0.32960  Biso   1.000  H
  H1563    1.0000 0.91300  0.68610  0.17040  Biso   1.000  H
  H1564    1.0000 0.08700  0.18610  0.32960  Biso   1.000  H
  H1565    1.0000 0.81390  0.91300  0.17040  Biso   1.000  H
  H1566    1.0000 0.31390  0.08700  0.32960  Biso   1.000  H
  H1567    1.0000 0.58700  0.81390  0.17040  Biso   1.000  H
  H1568    1.0000 0.68610  0.58700  0.17040  Biso   1.000  H
  H1569    1.0000 0.57160  0.68530  0.71210  Biso   1.000  H
  H1570    1.0000 0.81470  0.57160  0.71210  Biso   1.000  H
  H1571    1.0000 0.07160  0.31470  0.78790  Biso   1.000  H
  H1572    1.0000 0.92840  0.81470  0.71210  Biso   1.000  H
  H1573    1.0000 0.18530  0.07160  0.78790  Biso   1.000  H
  H1574    1.0000 0.68530  0.92840  0.71210  Biso   1.000  H
  H1575    1.0000 0.42840  0.18530  0.78790  Biso   1.000  H
  H1576    1.0000 0.31470  0.42840  0.78790  Biso   1.000  H
  H1577    1.0000 0.42840  0.31470  0.28790  Biso   1.000  H
  H1578    1.0000 0.18530  0.42840  0.28790  Biso   1.000  H
  H1579    1.0000 0.92840  0.68530  0.21210  Biso   1.000  H
  H1580    1.0000 0.07160  0.18530  0.28790  Biso   1.000  H
  H1581    1.0000 0.81470  0.92840  0.21210  Biso   1.000  H
  H1582    1.0000 0.31470  0.07160  0.28790  Biso   1.000  H
  H1583    1.0000 0.57160  0.81470  0.21210  Biso   1.000  H
  H1584    1.0000 0.68530  0.57160  0.21210  Biso   1.000  H
  C1841    1.0000 0.46990  0.71328  0.75760  Biso   1.000  C
  C1842    1.0000 0.78672  0.46990  0.75760  Biso   1.000  C
  C1843    1.0000 0.96990  0.28672  0.74240  Biso   1.000  C
  C1844    1.0000 0.03010  0.78672  0.75760  Biso   1.000  C
  C1845    1.0000 0.21328  0.96990  0.74240  Biso   1.000  C
  C1846    1.0000 0.71328  0.03010  0.75760  Biso   1.000  C
  C1847    1.0000 0.53010  0.21328  0.74240  Biso   1.000  C
  C1848    1.0000 0.28672  0.53010  0.74240  Biso   1.000  C
  C1849    1.0000 0.53010  0.28672  0.24240  Biso   1.000  C
  C1850    1.0000 0.21328  0.53010  0.24240  Biso   1.000  C
  C1851    1.0000 0.03010  0.71328  0.25760  Biso   1.000  C
  C1852    1.0000 0.96990  0.21328  0.24240  Biso   1.000  C
  C1853    1.0000 0.78672  0.03010  0.25760  Biso   1.000  C
  C1854    1.0000 0.28672  0.96990  0.24240  Biso   1.000  C
  C1855    1.0000 0.46990  0.78672  0.25760  Biso   1.000  C
  C1856    1.0000 0.71328  0.46990  0.25760  Biso   1.000  C
  H1585    1.0000 0.47940  0.70740  0.78200  Biso   1.000  H
  H1586    1.0000 0.79260  0.47940  0.78200  Biso   1.000  H
  H1587    1.0000 0.97940  0.29260  0.71800  Biso   1.000  H
  H1588    1.0000 0.02060  0.79260  0.78200  Biso   1.000  H
  H1589    1.0000 0.20740  0.97940  0.71800  Biso   1.000  H
  H1590    1.0000 0.70740  0.02060  0.78200  Biso   1.000  H
  H1591    1.0000 0.52060  0.20740  0.71800  Biso   1.000  H
  H1592    1.0000 0.29260  0.52060  0.71800  Biso   1.000  H
  H1593    1.0000 0.52060  0.29260  0.21800  Biso   1.000  H
  H1594    1.0000 0.20740  0.52060  0.21800  Biso   1.000  H
  H1595    1.0000 0.02060  0.70740  0.28200  Biso   1.000  H
  H1596    1.0000 0.97940  0.20740  0.21800  Biso   1.000  H
  H1597    1.0000 0.79260  0.02060  0.28200  Biso   1.000  H
  H1598    1.0000 0.29260  0.97940  0.21800  Biso   1.000  H
  H1599    1.0000 0.47940  0.79260  0.28200  Biso   1.000  H
  H1600    1.0000 0.70740  0.47940  0.28200  Biso   1.000  H
  H1601    1.0000 0.45100  0.70610  0.75820  Biso   1.000  H
  H1602    1.0000 0.79390  0.45100  0.75820  Biso   1.000  H
  H1603    1.0000 0.95100  0.29390  0.74180  Biso   1.000  H
  H1604    1.0000 0.04900  0.79390  0.75820  Biso   1.000  H
  H1605    1.0000 0.20610  0.95100  0.74180  Biso   1.000  H
  H1606    1.0000 0.70610  0.04900  0.75820  Biso   1.000  H
  H1607    1.0000 0.54900  0.20610  0.74180  Biso   1.000  H
  H1608    1.0000 0.29390  0.54900  0.74180  Biso   1.000  H
  H1609    1.0000 0.54900  0.29390  0.24180  Biso   1.000  H
  H1610    1.0000 0.20610  0.54900  0.24180  Biso   1.000  H
  H1611    1.0000 0.04900  0.70610  0.25820  Biso   1.000  H
  H1612    1.0000 0.95100  0.20610  0.24180  Biso   1.000  H
  H1613    1.0000 0.79390  0.04900  0.25820  Biso   1.000  H
  H1614    1.0000 0.29390  0.95100  0.24180  Biso   1.000  H
  H1615    1.0000 0.45100  0.79390  0.25820  Biso   1.000  H
  H1616    1.0000 0.70610  0.45100  0.25820  Biso   1.000  H
  C1857    1.0000 0.46950  0.74540  0.75490  Biso   1.000  C
  C1858    1.0000 0.75460  0.46950  0.75490  Biso   1.000  C
  C1859    1.0000 0.96950  0.25460  0.74510  Biso   1.000  C
  C1860    1.0000 0.03050  0.75460  0.75490  Biso   1.000  C
  C1861    1.0000 0.24540  0.96950  0.74510  Biso   1.000  C
  C1862    1.0000 0.74540  0.03050  0.75490  Biso   1.000  C
  C1863    1.0000 0.53050  0.24540  0.74510  Biso   1.000  C
  C1864    1.0000 0.25460  0.53050  0.74510  Biso   1.000  C
  C1865    1.0000 0.53050  0.25460  0.24510  Biso   1.000  C
  C1866    1.0000 0.24540  0.53050  0.24510  Biso   1.000  C
  C1867    1.0000 0.03050  0.74540  0.25490  Biso   1.000  C
  C1868    1.0000 0.96950  0.24540  0.24510  Biso   1.000  C
  C1869    1.0000 0.75460  0.03050  0.25490  Biso   1.000  C
  C1870    1.0000 0.25460  0.96950  0.24510  Biso   1.000  C
  C1871    1.0000 0.46950  0.75460  0.25490  Biso   1.000  C
  C1872    1.0000 0.74540  0.46950  0.25490  Biso   1.000  C
  H1617    1.0000 0.45880  0.75150  0.73170  Biso   1.000  H
  H1618    1.0000 0.74850  0.45880  0.73170  Biso   1.000  H
  H1619    1.0000 0.95880  0.24850  0.76830  Biso   1.000  H
  H1620    1.0000 0.04120  0.74850  0.73170  Biso   1.000  H
  H1621    1.0000 0.25150  0.95880  0.76830  Biso   1.000  H
  H1622    1.0000 0.75150  0.04120  0.73170  Biso   1.000  H
  H1623    1.0000 0.54120  0.25150  0.76830  Biso   1.000  H
  H1624    1.0000 0.24850  0.54120  0.76830  Biso   1.000  H
  H1625    1.0000 0.54120  0.24850  0.26830  Biso   1.000  H
  H1626    1.0000 0.25150  0.54120  0.26830  Biso   1.000  H
  H1627    1.0000 0.04120  0.75150  0.23170  Biso   1.000  H
  H1628    1.0000 0.95880  0.25150  0.26830  Biso   1.000  H
  H1629    1.0000 0.74850  0.04120  0.23170  Biso   1.000  H
  H1630    1.0000 0.24850  0.95880  0.26830  Biso   1.000  H
  H1631    1.0000 0.45880  0.74850  0.23170  Biso   1.000  H
  H1632    1.0000 0.75150  0.45880  0.23170  Biso   1.000  H
  H1633    1.0000 0.48820  0.75280  0.75280  Biso   1.000  H
  H1634    1.0000 0.74720  0.48820  0.75280  Biso   1.000  H
  H1635    1.0000 0.98820  0.24720  0.74720  Biso   1.000  H
  H1636    1.0000 0.01180  0.74720  0.75280  Biso   1.000  H
  H1637    1.0000 0.25280  0.98820  0.74720  Biso   1.000  H
  H1638    1.0000 0.75280  0.01180  0.75280  Biso   1.000  H
  H1639    1.0000 0.51180  0.25280  0.74720  Biso   1.000  H
  H1640    1.0000 0.24720  0.51180  0.74720  Biso   1.000  H
  H1641    1.0000 0.51180  0.24720  0.24720  Biso   1.000  H
  H1642    1.0000 0.25280  0.51180  0.24720  Biso   1.000  H
  H1643    1.0000 0.01180  0.75280  0.25280  Biso   1.000  H
  H1644    1.0000 0.98820  0.25280  0.24720  Biso   1.000  H
  H1645    1.0000 0.74720  0.01180  0.25280  Biso   1.000  H
  H1646    1.0000 0.24720  0.98820  0.24720  Biso   1.000  H
  H1647    1.0000 0.48820  0.74720  0.25280  Biso   1.000  H
  H1648    1.0000 0.75280  0.48820  0.25280  Biso   1.000  H
  C1873    1.0000 0.45510  0.75510  0.79550  Biso   1.000  C
  C1874    1.0000 0.74490  0.45510  0.79550  Biso   1.000  C
  C1875    1.0000 0.95510  0.24490  0.70450  Biso   1.000  C
  C1876    1.0000 0.04490  0.74490  0.79550  Biso   1.000  C
  C1877    1.0000 0.25510  0.95510  0.70450  Biso   1.000  C
  C1878    1.0000 0.75510  0.04490  0.79550  Biso   1.000  C
  C1879    1.0000 0.54490  0.25510  0.70450  Biso   1.000  C
  C1880    1.0000 0.24490  0.54490  0.70450  Biso   1.000  C
  C1881    1.0000 0.54490  0.24490  0.20450  Biso   1.000  C
  C1882    1.0000 0.25510  0.54490  0.20450  Biso   1.000  C
  C1883    1.0000 0.04490  0.75510  0.29550  Biso   1.000  C
  C1884    1.0000 0.95510  0.25510  0.20450  Biso   1.000  C
  C1885    1.0000 0.74490  0.04490  0.29550  Biso   1.000  C
  C1886    1.0000 0.24490  0.95510  0.20450  Biso   1.000  C
  C1887    1.0000 0.45510  0.74490  0.29550  Biso   1.000  C
  C1888    1.0000 0.75510  0.45510  0.29550  Biso   1.000  C
  H1649    1.0000 0.43530  0.75600  0.79180  Biso   1.000  H
  H1650    1.0000 0.74400  0.43530  0.79180  Biso   1.000  H
  H1651    1.0000 0.93530  0.24400  0.70820  Biso   1.000  H
  H1652    1.0000 0.06470  0.74400  0.79180  Biso   1.000  H
  H1653    1.0000 0.25600  0.93530  0.70820  Biso   1.000  H
  H1654    1.0000 0.75600  0.06470  0.79180  Biso   1.000  H
  H1655    1.0000 0.56470  0.25600  0.70820  Biso   1.000  H
  H1656    1.0000 0.24400  0.56470  0.70820  Biso   1.000  H
  H1657    1.0000 0.56470  0.24400  0.20820  Biso   1.000  H
  H1658    1.0000 0.25600  0.56470  0.20820  Biso   1.000  H
  H1659    1.0000 0.06470  0.75600  0.29180  Biso   1.000  H
  H1660    1.0000 0.93530  0.25600  0.20820  Biso   1.000  H
  H1661    1.0000 0.74400  0.06470  0.29180  Biso   1.000  H
  H1662    1.0000 0.24400  0.93530  0.20820  Biso   1.000  H
  H1663    1.0000 0.43530  0.74400  0.29180  Biso   1.000  H
  H1664    1.0000 0.75600  0.43530  0.29180  Biso   1.000  H
  H1665    1.0000 0.46200  0.77320  0.80300  Biso   1.000  H
  H1666    1.0000 0.72680  0.46200  0.80300  Biso   1.000  H
  H1667    1.0000 0.96200  0.22680  0.69700  Biso   1.000  H
  H1668    1.0000 0.03800  0.72680  0.80300  Biso   1.000  H
  H1669    1.0000 0.27320  0.96200  0.69700  Biso   1.000  H
  H1670    1.0000 0.77320  0.03800  0.80300  Biso   1.000  H
  H1671    1.0000 0.53800  0.27320  0.69700  Biso   1.000  H
  H1672    1.0000 0.22680  0.53800  0.69700  Biso   1.000  H
  H1673    1.0000 0.53800  0.22680  0.19700  Biso   1.000  H
  H1674    1.0000 0.27320  0.53800  0.19700  Biso   1.000  H
  H1675    1.0000 0.03800  0.77320  0.30300  Biso   1.000  H
  H1676    1.0000 0.96200  0.27320  0.19700  Biso   1.000  H
  H1677    1.0000 0.72680  0.03800  0.30300  Biso   1.000  H
  H1678    1.0000 0.22680  0.96200  0.19700  Biso   1.000  H
  H1679    1.0000 0.46200  0.72680  0.30300  Biso   1.000  H
  H1680    1.0000 0.77320  0.46200  0.30300  Biso   1.000  H
  H1681    1.0000 0.45930  0.74200  0.81660  Biso   1.000  H
  H1682    1.0000 0.75800  0.45930  0.81660  Biso   1.000  H
  H1683    1.0000 0.95930  0.25800  0.68340  Biso   1.000  H
  H1684    1.0000 0.04070  0.75800  0.81660  Biso   1.000  H
  H1685    1.0000 0.24200  0.95930  0.68340  Biso   1.000  H
  H1686    1.0000 0.74200  0.04070  0.81660  Biso   1.000  H
  H1687    1.0000 0.54070  0.24200  0.68340  Biso   1.000  H
  H1688    1.0000 0.25800  0.54070  0.68340  Biso   1.000  H
  H1689    1.0000 0.54070  0.25800  0.18340  Biso   1.000  H
  H1690    1.0000 0.24200  0.54070  0.18340  Biso   1.000  H
  H1691    1.0000 0.04070  0.74200  0.31660  Biso   1.000  H
  H1692    1.0000 0.95930  0.24200  0.18340  Biso   1.000  H
  H1693    1.0000 0.75800  0.04070  0.31660  Biso   1.000  H
  H1694    1.0000 0.25800  0.95930  0.18340  Biso   1.000  H
  H1695    1.0000 0.45930  0.75800  0.31660  Biso   1.000  H
  H1696    1.0000 0.74200  0.45930  0.31660  Biso   1.000  H
  C1889    1.0000 0.44428  0.68437  0.68180  Biso   1.000  C
  C1890    1.0000 0.81563  0.44428  0.68180  Biso   1.000  C
  C1891    1.0000 0.94428  0.31563  0.81820  Biso   1.000  C
  C1892    1.0000 0.05572  0.81563  0.68180  Biso   1.000  C
  C1893    1.0000 0.18437  0.94428  0.81820  Biso   1.000  C
  C1894    1.0000 0.68437  0.05572  0.68180  Biso   1.000  C
  C1895    1.0000 0.55572  0.18437  0.81820  Biso   1.000  C
  C1896    1.0000 0.31563  0.55572  0.81820  Biso   1.000  C
  C1897    1.0000 0.55572  0.31563  0.31820  Biso   1.000  C
  C1898    1.0000 0.18437  0.55572  0.31820  Biso   1.000  C
  C1899    1.0000 0.05572  0.68437  0.18180  Biso   1.000  C
  C1900    1.0000 0.94428  0.18437  0.31820  Biso   1.000  C
  C1901    1.0000 0.81563  0.05572  0.18180  Biso   1.000  C
  C1902    1.0000 0.31563  0.94428  0.31820  Biso   1.000  C
  C1903    1.0000 0.44428  0.81563  0.18180  Biso   1.000  C
  C1904    1.0000 0.68437  0.44428  0.18180  Biso   1.000  C
  H1697    1.0000 0.43650  0.67920  0.70780  Biso   1.000  H
  H1698    1.0000 0.82080  0.43650  0.70780  Biso   1.000  H
  H1699    1.0000 0.93650  0.32080  0.79220  Biso   1.000  H
  H1700    1.0000 0.06350  0.82080  0.70780  Biso   1.000  H
  H1701    1.0000 0.17920  0.93650  0.79220  Biso   1.000  H
  H1702    1.0000 0.67920  0.06350  0.70780  Biso   1.000  H
  H1703    1.0000 0.56350  0.17920  0.79220  Biso   1.000  H
  H1704    1.0000 0.32080  0.56350  0.79220  Biso   1.000  H
  H1705    1.0000 0.56350  0.32080  0.29220  Biso   1.000  H
  H1706    1.0000 0.17920  0.56350  0.29220  Biso   1.000  H
  H1707    1.0000 0.06350  0.67920  0.20780  Biso   1.000  H
  H1708    1.0000 0.93650  0.17920  0.29220  Biso   1.000  H
  H1709    1.0000 0.82080  0.06350  0.20780  Biso   1.000  H
  H1710    1.0000 0.32080  0.93650  0.29220  Biso   1.000  H
  H1711    1.0000 0.43650  0.82080  0.20780  Biso   1.000  H
  H1712    1.0000 0.67920  0.43650  0.20780  Biso   1.000  H
  H1713    1.0000 0.44240  0.66840  0.66410  Biso   1.000  H
  H1714    1.0000 0.83160  0.44240  0.66410  Biso   1.000  H
  H1715    1.0000 0.94240  0.33160  0.83590  Biso   1.000  H
  H1716    1.0000 0.05760  0.83160  0.66410  Biso   1.000  H
  H1717    1.0000 0.16840  0.94240  0.83590  Biso   1.000  H
  H1718    1.0000 0.66840  0.05760  0.66410  Biso   1.000  H
  H1719    1.0000 0.55760  0.16840  0.83590  Biso   1.000  H
  H1720    1.0000 0.33160  0.55760  0.83590  Biso   1.000  H
  H1721    1.0000 0.55760  0.33160  0.33590  Biso   1.000  H
  H1722    1.0000 0.16840  0.55760  0.33590  Biso   1.000  H
  H1723    1.0000 0.05760  0.66840  0.16410  Biso   1.000  H
  H1724    1.0000 0.94240  0.16840  0.33590  Biso   1.000  H
  H1725    1.0000 0.83160  0.05760  0.16410  Biso   1.000  H
  H1726    1.0000 0.33160  0.94240  0.33590  Biso   1.000  H
  H1727    1.0000 0.44240  0.83160  0.16410  Biso   1.000  H
  H1728    1.0000 0.66840  0.44240  0.16410  Biso   1.000  H
  C1905    1.0000 0.42762  0.70814  0.66480  Biso   1.000  C
  C1906    1.0000 0.79186  0.42762  0.66480  Biso   1.000  C
  C1907    1.0000 0.92762  0.29186  0.83520  Biso   1.000  C
  C1908    1.0000 0.07238  0.79186  0.66480  Biso   1.000  C
  C1909    1.0000 0.20814  0.92762  0.83520  Biso   1.000  C
  C1910    1.0000 0.70814  0.07238  0.66480  Biso   1.000  C
  C1911    1.0000 0.57238  0.20814  0.83520  Biso   1.000  C
  C1912    1.0000 0.29186  0.57238  0.83520  Biso   1.000  C
  C1913    1.0000 0.57238  0.29186  0.33520  Biso   1.000  C
  C1914    1.0000 0.20814  0.57238  0.33520  Biso   1.000  C
  C1915    1.0000 0.07238  0.70814  0.16480  Biso   1.000  C
  C1916    1.0000 0.92762  0.20814  0.33520  Biso   1.000  C
  C1917    1.0000 0.79186  0.07238  0.16480  Biso   1.000  C
  C1918    1.0000 0.29186  0.92762  0.33520  Biso   1.000  C
  C1919    1.0000 0.42762  0.79186  0.16480  Biso   1.000  C
  C1920    1.0000 0.70814  0.42762  0.16480  Biso   1.000  C
  C1921    1.0000 0.42970  0.71880  0.62870  Biso   1.000  C
  C1922    1.0000 0.78120  0.42970  0.62870  Biso   1.000  C
  C1923    1.0000 0.92970  0.28120  0.87130  Biso   1.000  C
  C1924    1.0000 0.07030  0.78120  0.62870  Biso   1.000  C
  C1925    1.0000 0.21880  0.92970  0.87130  Biso   1.000  C
  C1926    1.0000 0.71880  0.07030  0.62870  Biso   1.000  C
  C1927    1.0000 0.57030  0.21880  0.87130  Biso   1.000  C
  C1928    1.0000 0.28120  0.57030  0.87130  Biso   1.000  C
  C1929    1.0000 0.57030  0.28120  0.37130  Biso   1.000  C
  C1930    1.0000 0.21880  0.57030  0.37130  Biso   1.000  C
  C1931    1.0000 0.07030  0.71880  0.12870  Biso   1.000  C
  C1932    1.0000 0.92970  0.21880  0.37130  Biso   1.000  C
  C1933    1.0000 0.78120  0.07030  0.12870  Biso   1.000  C
  C1934    1.0000 0.28120  0.92970  0.37130  Biso   1.000  C
  C1935    1.0000 0.42970  0.78120  0.12870  Biso   1.000  C
  C1936    1.0000 0.71880  0.42970  0.12870  Biso   1.000  C
  H1729    1.0000 0.44260  0.71160  0.61060  Biso   1.000  H
  H1730    1.0000 0.78840  0.44260  0.61060  Biso   1.000  H
  H1731    1.0000 0.94260  0.28840  0.88940  Biso   1.000  H
  H1732    1.0000 0.05740  0.78840  0.61060  Biso   1.000  H
  H1733    1.0000 0.21160  0.94260  0.88940  Biso   1.000  H
  H1734    1.0000 0.71160  0.05740  0.61060  Biso   1.000  H
  H1735    1.0000 0.55740  0.21160  0.88940  Biso   1.000  H
  H1736    1.0000 0.28840  0.55740  0.88940  Biso   1.000  H
  H1737    1.0000 0.55740  0.28840  0.38940  Biso   1.000  H
  H1738    1.0000 0.21160  0.55740  0.38940  Biso   1.000  H
  H1739    1.0000 0.05740  0.71160  0.11060  Biso   1.000  H
  H1740    1.0000 0.94260  0.21160  0.38940  Biso   1.000  H
  H1741    1.0000 0.78840  0.05740  0.11060  Biso   1.000  H
  H1742    1.0000 0.28840  0.94260  0.38940  Biso   1.000  H
  H1743    1.0000 0.44260  0.78840  0.11060  Biso   1.000  H
  H1744    1.0000 0.71160  0.44260  0.11060  Biso   1.000  H
  C1937    1.0000 0.41180  0.74190  0.61680  Biso   1.000  C
  C1938    1.0000 0.75810  0.41180  0.61680  Biso   1.000  C
  C1939    1.0000 0.91180  0.25810  0.88320  Biso   1.000  C
  C1940    1.0000 0.08820  0.75810  0.61680  Biso   1.000  C
  C1941    1.0000 0.24190  0.91180  0.88320  Biso   1.000  C
  C1942    1.0000 0.74190  0.08820  0.61680  Biso   1.000  C
  C1943    1.0000 0.58820  0.24190  0.88320  Biso   1.000  C
  C1944    1.0000 0.25810  0.58820  0.88320  Biso   1.000  C
  C1945    1.0000 0.58820  0.25810  0.38320  Biso   1.000  C
  C1946    1.0000 0.24190  0.58820  0.38320  Biso   1.000  C
  C1947    1.0000 0.08820  0.74190  0.11680  Biso   1.000  C
  C1948    1.0000 0.91180  0.24190  0.38320  Biso   1.000  C
  C1949    1.0000 0.75810  0.08820  0.11680  Biso   1.000  C
  C1950    1.0000 0.25810  0.91180  0.38320  Biso   1.000  C
  C1951    1.0000 0.41180  0.75810  0.11680  Biso   1.000  C
  C1952    1.0000 0.74190  0.41180  0.11680  Biso   1.000  C
  H1745    1.0000 0.41410  0.74820  0.59040  Biso   1.000  H
  H1746    1.0000 0.75180  0.41410  0.59040  Biso   1.000  H
  H1747    1.0000 0.91410  0.25180  0.90960  Biso   1.000  H
  H1748    1.0000 0.08590  0.75180  0.59040  Biso   1.000  H
  H1749    1.0000 0.24820  0.91410  0.90960  Biso   1.000  H
  H1750    1.0000 0.74820  0.08590  0.59040  Biso   1.000  H
  H1751    1.0000 0.58590  0.24820  0.90960  Biso   1.000  H
  H1752    1.0000 0.25180  0.58590  0.90960  Biso   1.000  H
  H1753    1.0000 0.58590  0.25180  0.40960  Biso   1.000  H
  H1754    1.0000 0.24820  0.58590  0.40960  Biso   1.000  H
  H1755    1.0000 0.08590  0.74820  0.09040  Biso   1.000  H
  H1756    1.0000 0.91410  0.24820  0.40960  Biso   1.000  H
  H1757    1.0000 0.75180  0.08590  0.09040  Biso   1.000  H
  H1758    1.0000 0.25180  0.91410  0.40960  Biso   1.000  H
  H1759    1.0000 0.41410  0.75180  0.09040  Biso   1.000  H
  H1760    1.0000 0.74820  0.41410  0.09040  Biso   1.000  H
  C1953    1.0000 0.39450  0.75390  0.63650  Biso   1.000  C
  C1954    1.0000 0.74610  0.39450  0.63650  Biso   1.000  C
  C1955    1.0000 0.89450  0.24610  0.86350  Biso   1.000  C
  C1956    1.0000 0.10550  0.74610  0.63650  Biso   1.000  C
  C1957    1.0000 0.25390  0.89450  0.86350  Biso   1.000  C
  C1958    1.0000 0.75390  0.10550  0.63650  Biso   1.000  C
  C1959    1.0000 0.60550  0.25390  0.86350  Biso   1.000  C
  C1960    1.0000 0.24610  0.60550  0.86350  Biso   1.000  C
  C1961    1.0000 0.60550  0.24610  0.36350  Biso   1.000  C
  C1962    1.0000 0.25390  0.60550  0.36350  Biso   1.000  C
  C1963    1.0000 0.10550  0.75390  0.13650  Biso   1.000  C
  C1964    1.0000 0.89450  0.25390  0.36350  Biso   1.000  C
  C1965    1.0000 0.74610  0.10550  0.13650  Biso   1.000  C
  C1966    1.0000 0.24610  0.89450  0.36350  Biso   1.000  C
  C1967    1.0000 0.39450  0.74610  0.13650  Biso   1.000  C
  C1968    1.0000 0.75390  0.39450  0.13650  Biso   1.000  C
  C1969    1.0000 0.38980  0.74250  0.67280  Biso   1.000  C
  C1970    1.0000 0.75750  0.38980  0.67280  Biso   1.000  C
  C1971    1.0000 0.88980  0.25750  0.82720  Biso   1.000  C
  C1972    1.0000 0.11020  0.75750  0.67280  Biso   1.000  C
  C1973    1.0000 0.24250  0.88980  0.82720  Biso   1.000  C
  C1974    1.0000 0.74250  0.11020  0.67280  Biso   1.000  C
  C1975    1.0000 0.61020  0.24250  0.82720  Biso   1.000  C
  C1976    1.0000 0.25750  0.61020  0.82720  Biso   1.000  C
  C1977    1.0000 0.61020  0.25750  0.32720  Biso   1.000  C
  C1978    1.0000 0.24250  0.61020  0.32720  Biso   1.000  C
  C1979    1.0000 0.11020  0.74250  0.17280  Biso   1.000  C
  C1980    1.0000 0.88980  0.24250  0.32720  Biso   1.000  C
  C1981    1.0000 0.75750  0.11020  0.17280  Biso   1.000  C
  C1982    1.0000 0.25750  0.88980  0.32720  Biso   1.000  C
  C1983    1.0000 0.38980  0.75750  0.17280  Biso   1.000  C
  C1984    1.0000 0.74250  0.38980  0.17280  Biso   1.000  C
  H1761    1.0000 0.37540  0.74980  0.68840  Biso   1.000  H
  H1762    1.0000 0.75020  0.37540  0.68840  Biso   1.000  H
  H1763    1.0000 0.87540  0.25020  0.81160  Biso   1.000  H
  H1764    1.0000 0.12460  0.75020  0.68840  Biso   1.000  H
  H1765    1.0000 0.24980  0.87540  0.81160  Biso   1.000  H
  H1766    1.0000 0.74980  0.12460  0.68840  Biso   1.000  H
  H1767    1.0000 0.62460  0.24980  0.81160  Biso   1.000  H
  H1768    1.0000 0.25020  0.62460  0.81160  Biso   1.000  H
  H1769    1.0000 0.62460  0.25020  0.31160  Biso   1.000  H
  H1770    1.0000 0.24980  0.62460  0.31160  Biso   1.000  H
  H1771    1.0000 0.12460  0.74980  0.18840  Biso   1.000  H
  H1772    1.0000 0.87540  0.24980  0.31160  Biso   1.000  H
  H1773    1.0000 0.75020  0.12460  0.18840  Biso   1.000  H
  H1774    1.0000 0.25020  0.87540  0.31160  Biso   1.000  H
  H1775    1.0000 0.37540  0.75020  0.18840  Biso   1.000  H
  H1776    1.0000 0.74980  0.37540  0.18840  Biso   1.000  H
  C1985    1.0000 0.40620  0.71920  0.68950  Biso   1.000  C
  C1986    1.0000 0.78080  0.40620  0.68950  Biso   1.000  C
  C1987    1.0000 0.90620  0.28080  0.81050  Biso   1.000  C
  C1988    1.0000 0.09380  0.78080  0.68950  Biso   1.000  C
  C1989    1.0000 0.21920  0.90620  0.81050  Biso   1.000  C
  C1990    1.0000 0.71920  0.09380  0.68950  Biso   1.000  C
  C1991    1.0000 0.59380  0.21920  0.81050  Biso   1.000  C
  C1992    1.0000 0.28080  0.59380  0.81050  Biso   1.000  C
  C1993    1.0000 0.59380  0.28080  0.31050  Biso   1.000  C
  C1994    1.0000 0.21920  0.59380  0.31050  Biso   1.000  C
  C1995    1.0000 0.09380  0.71920  0.18950  Biso   1.000  C
  C1996    1.0000 0.90620  0.21920  0.31050  Biso   1.000  C
  C1997    1.0000 0.78080  0.09380  0.18950  Biso   1.000  C
  C1998    1.0000 0.28080  0.90620  0.31050  Biso   1.000  C
  C1999    1.0000 0.40620  0.78080  0.18950  Biso   1.000  C
  C2000    1.0000 0.71920  0.40620  0.18950  Biso   1.000  C
  H1777    1.0000 0.41450  0.72540  0.71470  Biso   1.000  H
  H1778    1.0000 0.77460  0.41450  0.71470  Biso   1.000  H
  H1779    1.0000 0.91450  0.27460  0.78530  Biso   1.000  H
  H1780    1.0000 0.08550  0.77460  0.71470  Biso   1.000  H
  H1781    1.0000 0.22540  0.91450  0.78530  Biso   1.000  H
  H1782    1.0000 0.72540  0.08550  0.71470  Biso   1.000  H
  H1783    1.0000 0.58550  0.22540  0.78530  Biso   1.000  H
  H1784    1.0000 0.27460  0.58550  0.78530  Biso   1.000  H
  H1785    1.0000 0.58550  0.27460  0.28530  Biso   1.000  H
  H1786    1.0000 0.22540  0.58550  0.28530  Biso   1.000  H
  H1787    1.0000 0.08550  0.72540  0.21470  Biso   1.000  H
  H1788    1.0000 0.91450  0.22540  0.28530  Biso   1.000  H
  H1789    1.0000 0.77460  0.08550  0.21470  Biso   1.000  H
  H1790    1.0000 0.27460  0.91450  0.28530  Biso   1.000  H
  H1791    1.0000 0.41450  0.77460  0.21470  Biso   1.000  H
  H1792    1.0000 0.72540  0.41450  0.21470  Biso   1.000  H
  H1793    1.0000 0.39340  0.70420  0.69600  Biso   1.000  H
  H1794    1.0000 0.79580  0.39340  0.69600  Biso   1.000  H
  H1795    1.0000 0.89340  0.29580  0.80400  Biso   1.000  H
  H1796    1.0000 0.10660  0.79580  0.69600  Biso   1.000  H
  H1797    1.0000 0.20420  0.89340  0.80400  Biso   1.000  H
  H1798    1.0000 0.70420  0.10660  0.69600  Biso   1.000  H
  H1799    1.0000 0.60660  0.20420  0.80400  Biso   1.000  H
  H1800    1.0000 0.29580  0.60660  0.80400  Biso   1.000  H
  H1801    1.0000 0.60660  0.29580  0.30400  Biso   1.000  H
  H1802    1.0000 0.20420  0.60660  0.30400  Biso   1.000  H
  H1803    1.0000 0.10660  0.70420  0.19600  Biso   1.000  H
  H1804    1.0000 0.89340  0.20420  0.30400  Biso   1.000  H
  H1805    1.0000 0.79580  0.10660  0.19600  Biso   1.000  H
  H1806    1.0000 0.29580  0.89340  0.30400  Biso   1.000  H
  H1807    1.0000 0.39340  0.79580  0.19600  Biso   1.000  H
  H1808    1.0000 0.70420  0.39340  0.19600  Biso   1.000  H
  C2001    1.0000 0.37701  0.77469  0.62090  Biso   1.000  C
  C2002    1.0000 0.72531  0.37701  0.62090  Biso   1.000  C
  C2003    1.0000 0.87701  0.22531  0.87910  Biso   1.000  C
  C2004    1.0000 0.12299  0.72531  0.62090  Biso   1.000  C
  C2005    1.0000 0.27469  0.87701  0.87910  Biso   1.000  C
  C2006    1.0000 0.77469  0.12299  0.62090  Biso   1.000  C
  C2007    1.0000 0.62299  0.27469  0.87910  Biso   1.000  C
  C2008    1.0000 0.22531  0.62299  0.87910  Biso   1.000  C
  C2009    1.0000 0.62299  0.22531  0.37910  Biso   1.000  C
  C2010    1.0000 0.27469  0.62299  0.37910  Biso   1.000  C
  C2011    1.0000 0.12299  0.77469  0.12090  Biso   1.000  C
  C2012    1.0000 0.87701  0.27469  0.37910  Biso   1.000  C
  C2013    1.0000 0.72531  0.12299  0.12090  Biso   1.000  C
  C2014    1.0000 0.22531  0.87701  0.37910  Biso   1.000  C
  C2015    1.0000 0.37701  0.72531  0.12090  Biso   1.000  C
  C2016    1.0000 0.77469  0.37701  0.12090  Biso   1.000  C
  C2017    1.0000 0.38639  0.79710  0.59880  Biso   1.000  C
  C2018    1.0000 0.70290  0.38639  0.59880  Biso   1.000  C
  C2019    1.0000 0.88639  0.20290  0.90120  Biso   1.000  C
  C2020    1.0000 0.11361  0.70290  0.59880  Biso   1.000  C
  C2021    1.0000 0.29710  0.88639  0.90120  Biso   1.000  C
  C2022    1.0000 0.79710  0.11361  0.59880  Biso   1.000  C
  C2023    1.0000 0.61361  0.29710  0.90120  Biso   1.000  C
  C2024    1.0000 0.20290  0.61361  0.90120  Biso   1.000  C
  C2025    1.0000 0.61361  0.20290  0.40120  Biso   1.000  C
  C2026    1.0000 0.29710  0.61361  0.40120  Biso   1.000  C
  C2027    1.0000 0.11361  0.79710  0.09880  Biso   1.000  C
  C2028    1.0000 0.88639  0.29710  0.40120  Biso   1.000  C
  C2029    1.0000 0.70290  0.11361  0.09880  Biso   1.000  C
  C2030    1.0000 0.20290  0.88639  0.40120  Biso   1.000  C
  C2031    1.0000 0.38639  0.70290  0.09880  Biso   1.000  C
  C2032    1.0000 0.79710  0.38639  0.09880  Biso   1.000  C
  C2033    1.0000 0.36783  0.81680  0.58510  Biso   1.000  C
  C2034    1.0000 0.68320  0.36783  0.58510  Biso   1.000  C
  C2035    1.0000 0.86783  0.18320  0.91490  Biso   1.000  C
  C2036    1.0000 0.13217  0.68320  0.58510  Biso   1.000  C
  C2037    1.0000 0.31680  0.86783  0.91490  Biso   1.000  C
  C2038    1.0000 0.81680  0.13217  0.58510  Biso   1.000  C
  C2039    1.0000 0.63217  0.31680  0.91490  Biso   1.000  C
  C2040    1.0000 0.18320  0.63217  0.91490  Biso   1.000  C
  C2041    1.0000 0.63217  0.18320  0.41490  Biso   1.000  C
  C2042    1.0000 0.31680  0.63217  0.41490  Biso   1.000  C
  C2043    1.0000 0.13217  0.81680  0.08510  Biso   1.000  C
  C2044    1.0000 0.86783  0.31680  0.41490  Biso   1.000  C
  C2045    1.0000 0.68320  0.13217  0.08510  Biso   1.000  C
  C2046    1.0000 0.18320  0.86783  0.41490  Biso   1.000  C
  C2047    1.0000 0.36783  0.68320  0.08510  Biso   1.000  C
  C2048    1.0000 0.81680  0.36783  0.08510  Biso   1.000  C
  H1809    1.0000 0.37420  0.83200  0.57030  Biso   1.000  H
  H1810    1.0000 0.66800  0.37420  0.57030  Biso   1.000  H
  H1811    1.0000 0.87420  0.16800  0.92970  Biso   1.000  H
  H1812    1.0000 0.12580  0.66800  0.57030  Biso   1.000  H
  H1813    1.0000 0.33200  0.87420  0.92970  Biso   1.000  H
  H1814    1.0000 0.83200  0.12580  0.57030  Biso   1.000  H
  H1815    1.0000 0.62580  0.33200  0.92970  Biso   1.000  H
  H1816    1.0000 0.16800  0.62580  0.92970  Biso   1.000  H
  H1817    1.0000 0.62580  0.16800  0.42970  Biso   1.000  H
  H1818    1.0000 0.33200  0.62580  0.42970  Biso   1.000  H
  H1819    1.0000 0.12580  0.83200  0.07030  Biso   1.000  H
  H1820    1.0000 0.87420  0.33200  0.42970  Biso   1.000  H
  H1821    1.0000 0.66800  0.12580  0.07030  Biso   1.000  H
  H1822    1.0000 0.16800  0.87420  0.42970  Biso   1.000  H
  H1823    1.0000 0.37420  0.66800  0.07030  Biso   1.000  H
  H1824    1.0000 0.83200  0.37420  0.07030  Biso   1.000  H
  C2049    1.0000 0.33988  0.81408  0.59350  Biso   1.000  C
  C2050    1.0000 0.68592  0.33988  0.59350  Biso   1.000  C
  C2051    1.0000 0.83988  0.18592  0.90650  Biso   1.000  C
  C2052    1.0000 0.16012  0.68592  0.59350  Biso   1.000  C
  C2053    1.0000 0.31408  0.83988  0.90650  Biso   1.000  C
  C2054    1.0000 0.81408  0.16012  0.59350  Biso   1.000  C
  C2055    1.0000 0.66012  0.31408  0.90650  Biso   1.000  C
  C2056    1.0000 0.18592  0.66012  0.90650  Biso   1.000  C
  C2057    1.0000 0.66012  0.18592  0.40650  Biso   1.000  C
  C2058    1.0000 0.31408  0.66012  0.40650  Biso   1.000  C
  C2059    1.0000 0.16012  0.81408  0.09350  Biso   1.000  C
  C2060    1.0000 0.83988  0.31408  0.40650  Biso   1.000  C
  C2061    1.0000 0.68592  0.16012  0.09350  Biso   1.000  C
  C2062    1.0000 0.18592  0.83988  0.40650  Biso   1.000  C
  C2063    1.0000 0.33988  0.68592  0.09350  Biso   1.000  C
  C2064    1.0000 0.81408  0.33988  0.09350  Biso   1.000  C
  H1825    1.0000 0.32730  0.82740  0.58420  Biso   1.000  H
  H1826    1.0000 0.67260  0.32730  0.58420  Biso   1.000  H
  H1827    1.0000 0.82730  0.17260  0.91580  Biso   1.000  H
  H1828    1.0000 0.17270  0.67260  0.58420  Biso   1.000  H
  H1829    1.0000 0.32740  0.82730  0.91580  Biso   1.000  H
  H1830    1.0000 0.82740  0.17270  0.58420  Biso   1.000  H
  H1831    1.0000 0.67270  0.32740  0.91580  Biso   1.000  H
  H1832    1.0000 0.17260  0.67270  0.91580  Biso   1.000  H
  H1833    1.0000 0.67270  0.17260  0.41580  Biso   1.000  H
  H1834    1.0000 0.32740  0.67270  0.41580  Biso   1.000  H
  H1835    1.0000 0.17270  0.82740  0.08420  Biso   1.000  H
  H1836    1.0000 0.82730  0.32740  0.41580  Biso   1.000  H
  H1837    1.0000 0.67260  0.17270  0.08420  Biso   1.000  H
  H1838    1.0000 0.17260  0.82730  0.41580  Biso   1.000  H
  H1839    1.0000 0.32730  0.67260  0.08420  Biso   1.000  H
  H1840    1.0000 0.82740  0.32730  0.08420  Biso   1.000  H
  C2065    1.0000 0.33049  0.79170  0.61550  Biso   1.000  C
  C2066    1.0000 0.70830  0.33049  0.61550  Biso   1.000  C
  C2067    1.0000 0.83049  0.20830  0.88450  Biso   1.000  C
  C2068    1.0000 0.16951  0.70830  0.61550  Biso   1.000  C
  C2069    1.0000 0.29170  0.83049  0.88450  Biso   1.000  C
  C2070    1.0000 0.79170  0.16951  0.61550  Biso   1.000  C
  C2071    1.0000 0.66951  0.29170  0.88450  Biso   1.000  C
  C2072    1.0000 0.20830  0.66951  0.88450  Biso   1.000  C
  C2073    1.0000 0.66951  0.20830  0.38450  Biso   1.000  C
  C2074    1.0000 0.29170  0.66951  0.38450  Biso   1.000  C
  C2075    1.0000 0.16951  0.79170  0.11550  Biso   1.000  C
  C2076    1.0000 0.83049  0.29170  0.38450  Biso   1.000  C
  C2077    1.0000 0.70830  0.16951  0.11550  Biso   1.000  C
  C2078    1.0000 0.20830  0.83049  0.38450  Biso   1.000  C
  C2079    1.0000 0.33049  0.70830  0.11550  Biso   1.000  C
  C2080    1.0000 0.79170  0.33049  0.11550  Biso   1.000  C
  H1841    1.0000 0.31160  0.78980  0.62120  Biso   1.000  H
  H1842    1.0000 0.71020  0.31160  0.62120  Biso   1.000  H
  H1843    1.0000 0.81160  0.21020  0.87880  Biso   1.000  H
  H1844    1.0000 0.18840  0.71020  0.62120  Biso   1.000  H
  H1845    1.0000 0.28980  0.81160  0.87880  Biso   1.000  H
  H1846    1.0000 0.78980  0.18840  0.62120  Biso   1.000  H
  H1847    1.0000 0.68840  0.28980  0.87880  Biso   1.000  H
  H1848    1.0000 0.21020  0.68840  0.87880  Biso   1.000  H
  H1849    1.0000 0.68840  0.21020  0.37880  Biso   1.000  H
  H1850    1.0000 0.28980  0.68840  0.37880  Biso   1.000  H
  H1851    1.0000 0.18840  0.78980  0.12120  Biso   1.000  H
  H1852    1.0000 0.81160  0.28980  0.37880  Biso   1.000  H
  H1853    1.0000 0.71020  0.18840  0.12120  Biso   1.000  H
  H1854    1.0000 0.21020  0.81160  0.37880  Biso   1.000  H
  H1855    1.0000 0.31160  0.71020  0.12120  Biso   1.000  H
  H1856    1.0000 0.78980  0.31160  0.12120  Biso   1.000  H
  C2081    1.0000 0.34906  0.77197  0.62920  Biso   1.000  C
  C2082    1.0000 0.72803  0.34906  0.62920  Biso   1.000  C
  C2083    1.0000 0.84906  0.22803  0.87080  Biso   1.000  C
  C2084    1.0000 0.15094  0.72803  0.62920  Biso   1.000  C
  C2085    1.0000 0.27197  0.84906  0.87080  Biso   1.000  C
  C2086    1.0000 0.77197  0.15094  0.62920  Biso   1.000  C
  C2087    1.0000 0.65094  0.27197  0.87080  Biso   1.000  C
  C2088    1.0000 0.22803  0.65094  0.87080  Biso   1.000  C
  C2089    1.0000 0.65094  0.22803  0.37080  Biso   1.000  C
  C2090    1.0000 0.27197  0.65094  0.37080  Biso   1.000  C
  C2091    1.0000 0.15094  0.77197  0.12920  Biso   1.000  C
  C2092    1.0000 0.84906  0.27197  0.37080  Biso   1.000  C
  C2093    1.0000 0.72803  0.15094  0.12920  Biso   1.000  C
  C2094    1.0000 0.22803  0.84906  0.37080  Biso   1.000  C
  C2095    1.0000 0.34906  0.72803  0.12920  Biso   1.000  C
  C2096    1.0000 0.77197  0.34906  0.12920  Biso   1.000  C
  H1857    1.0000 0.34270  0.75680  0.64410  Biso   1.000  H
  H1858    1.0000 0.74320  0.34270  0.64410  Biso   1.000  H
  H1859    1.0000 0.84270  0.24320  0.85590  Biso   1.000  H
  H1860    1.0000 0.15730  0.74320  0.64410  Biso   1.000  H
  H1861    1.0000 0.25680  0.84270  0.85590  Biso   1.000  H
  H1862    1.0000 0.75680  0.15730  0.64410  Biso   1.000  H
  H1863    1.0000 0.65730  0.25680  0.85590  Biso   1.000  H
  H1864    1.0000 0.24320  0.65730  0.85590  Biso   1.000  H
  H1865    1.0000 0.65730  0.24320  0.35590  Biso   1.000  H
  H1866    1.0000 0.25680  0.65730  0.35590  Biso   1.000  H
  H1867    1.0000 0.15730  0.75680  0.14410  Biso   1.000  H
  H1868    1.0000 0.84270  0.25680  0.35590  Biso   1.000  H
  H1869    1.0000 0.74320  0.15730  0.14410  Biso   1.000  H
  H1870    1.0000 0.24320  0.84270  0.35590  Biso   1.000  H
  H1871    1.0000 0.34270  0.74320  0.14410  Biso   1.000  H
  H1872    1.0000 0.75680  0.34270  0.14410  Biso   1.000  H
  C2097    1.0000 0.41646  0.80217  0.59250  Biso   1.000  C
  C2098    1.0000 0.69783  0.41646  0.59250  Biso   1.000  C
  C2099    1.0000 0.91646  0.19783  0.90750  Biso   1.000  C
  C2100    1.0000 0.08354  0.69783  0.59250  Biso   1.000  C
  C2101    1.0000 0.30217  0.91646  0.90750  Biso   1.000  C
  C2102    1.0000 0.80217  0.08354  0.59250  Biso   1.000  C
  C2103    1.0000 0.58354  0.30217  0.90750  Biso   1.000  C
  C2104    1.0000 0.19783  0.58354  0.90750  Biso   1.000  C
  C2105    1.0000 0.58354  0.19783  0.40750  Biso   1.000  C
  C2106    1.0000 0.30217  0.58354  0.40750  Biso   1.000  C
  C2107    1.0000 0.08354  0.80217  0.09250  Biso   1.000  C
  C2108    1.0000 0.91646  0.30217  0.40750  Biso   1.000  C
  C2109    1.0000 0.69783  0.08354  0.09250  Biso   1.000  C
  C2110    1.0000 0.19783  0.91646  0.40750  Biso   1.000  C
  C2111    1.0000 0.41646  0.69783  0.09250  Biso   1.000  C
  C2112    1.0000 0.80217  0.41646  0.09250  Biso   1.000  C
