data_image0
_cell_length_a       11.5811
_cell_length_b       11.5811
_cell_length_c       53.971
_cell_angle_alpha    90
_cell_angle_beta     90
_cell_angle_gamma    90

_symmetry_space_group_name_H-M    "P 1"
_symmetry_int_tables_number       1

loop_
  _symmetry_equiv_pos_as_xyz
  'x, y, z'

loop_
  _atom_site_label
  _atom_site_occupancy
  _atom_site_fract_x
  _atom_site_fract_y
  _atom_site_fract_z
  _atom_site_thermal_displace_type
  _atom_site_B_iso_or_equiv
  _atom_site_type_symbol
  Cu1      1.0000 0.00000  0.25000  0.93168  Biso   1.000  Cu
  Cu2      1.0000 0.50000  0.75000  0.43168  Biso   1.000  Cu
  Cu3      1.0000 0.50000  0.25000  0.18168  Biso   1.000  Cu
  Cu4      1.0000 0.00000  0.75000  0.68168  Biso   1.000  Cu
  Cu5      1.0000 0.00000  0.75000  0.06832  Biso   1.000  Cu
  Cu6      1.0000 0.50000  0.25000  0.56832  Biso   1.000  Cu
  Cu7      1.0000 0.00000  0.25000  0.31832  Biso   1.000  Cu
  Cu8      1.0000 0.50000  0.75000  0.81832  Biso   1.000  Cu
  Cl1      1.0000 0.00000  0.25000  0.88686  Biso   1.000  Cl
  Cl2      1.0000 0.50000  0.75000  0.38686  Biso   1.000  Cl
  Cl3      1.0000 0.50000  0.25000  0.13686  Biso   1.000  Cl
  Cl4      1.0000 0.00000  0.75000  0.63686  Biso   1.000  Cl
  Cl5      1.0000 0.00000  0.75000  0.11314  Biso   1.000  Cl
  Cl6      1.0000 0.50000  0.25000  0.61314  Biso   1.000  Cl
  Cl7      1.0000 0.00000  0.25000  0.36314  Biso   1.000  Cl
  Cl8      1.0000 0.50000  0.75000  0.86314  Biso   1.000  Cl
  Cl9      1.0000 0.50000  0.25000  0.02032  Biso   1.000  Cl
  Cl10     1.0000 0.00000  0.75000  0.52032  Biso   1.000  Cl
  Cl11     1.0000 0.50000  0.75000  0.27032  Biso   1.000  Cl
  Cl12     1.0000 0.00000  0.25000  0.77032  Biso   1.000  Cl
  Cl13     1.0000 0.50000  0.75000  0.97968  Biso   1.000  Cl
  Cl14     1.0000 0.00000  0.25000  0.47968  Biso   1.000  Cl
  Cl15     1.0000 0.00000  0.75000  0.22968  Biso   1.000  Cl
  Cl16     1.0000 0.50000  0.25000  0.72968  Biso   1.000  Cl
  N1       1.0000 0.12310  0.13310  0.93732  Biso   1.000  N
  N2       1.0000 0.37690  0.86690  0.43732  Biso   1.000  N
  N3       1.0000 0.61690  0.37310  0.18732  Biso   1.000  N
  N4       1.0000 0.88310  0.62690  0.68732  Biso   1.000  N
  N5       1.0000 0.62310  0.63310  0.43732  Biso   1.000  N
  N6       1.0000 0.87690  0.36690  0.93732  Biso   1.000  N
  N7       1.0000 0.11690  0.87310  0.68732  Biso   1.000  N
  N8       1.0000 0.38310  0.12690  0.18732  Biso   1.000  N
  N9       1.0000 0.87690  0.86690  0.06268  Biso   1.000  N
  N10      1.0000 0.62310  0.13310  0.56268  Biso   1.000  N
  N11      1.0000 0.88310  0.12690  0.31268  Biso   1.000  N
  N12      1.0000 0.61690  0.87310  0.81268  Biso   1.000  N
  N13      1.0000 0.37690  0.36690  0.56268  Biso   1.000  N
  N14      1.0000 0.12310  0.63310  0.06268  Biso   1.000  N
  N15      1.0000 0.38310  0.62690  0.81268  Biso   1.000  N
  N16      1.0000 0.11690  0.37310  0.31268  Biso   1.000  N
  N17      1.0000 0.19300  0.14400  0.95608  Biso   1.000  N
  N18      1.0000 0.30700  0.85600  0.45608  Biso   1.000  N
  N19      1.0000 0.60600  0.44300  0.20608  Biso   1.000  N
  N20      1.0000 0.89400  0.55700  0.70608  Biso   1.000  N
  N21      1.0000 0.69300  0.64400  0.45608  Biso   1.000  N
  N22      1.0000 0.80700  0.35600  0.95608  Biso   1.000  N
  N23      1.0000 0.10600  0.94300  0.70608  Biso   1.000  N
  N24      1.0000 0.39400  0.05700  0.20608  Biso   1.000  N
  N25      1.0000 0.80700  0.85600  0.04392  Biso   1.000  N
  N26      1.0000 0.69300  0.14400  0.54392  Biso   1.000  N
  N27      1.0000 0.89400  0.05700  0.29392  Biso   1.000  N
  N28      1.0000 0.60600  0.94300  0.79392  Biso   1.000  N
  N29      1.0000 0.30700  0.35600  0.54392  Biso   1.000  N
  N30      1.0000 0.19300  0.64400  0.04392  Biso   1.000  N
  N31      1.0000 0.39400  0.55700  0.79392  Biso   1.000  N
  N32      1.0000 0.10600  0.44300  0.29392  Biso   1.000  N
  N33      1.0000 0.26030  0.05250  0.95623  Biso   1.000  N
  N34      1.0000 0.23970  0.94750  0.45623  Biso   1.000  N
  N35      1.0000 0.69750  0.51030  0.20623  Biso   1.000  N
  N36      1.0000 0.80250  0.48970  0.70623  Biso   1.000  N
  N37      1.0000 0.76030  0.55250  0.45623  Biso   1.000  N
  N38      1.0000 0.73970  0.44750  0.95623  Biso   1.000  N
  N39      1.0000 0.19750  0.01030  0.70623  Biso   1.000  N
  N40      1.0000 0.30250  0.98970  0.20623  Biso   1.000  N
  N41      1.0000 0.73970  0.94750  0.04377  Biso   1.000  N
  N42      1.0000 0.76030  0.05250  0.54377  Biso   1.000  N
  N43      1.0000 0.80250  0.98970  0.29377  Biso   1.000  N
  N44      1.0000 0.69750  0.01030  0.79377  Biso   1.000  N
  N45      1.0000 0.23970  0.44750  0.54377  Biso   1.000  N
  N46      1.0000 0.26030  0.55250  0.04377  Biso   1.000  N
  N47      1.0000 0.30250  0.48970  0.79377  Biso   1.000  N
  N48      1.0000 0.19750  0.51030  0.29377  Biso   1.000  N
  N49      1.0000 0.11380  0.87270  0.06035  Biso   1.000  N
  N50      1.0000 0.38620  0.12730  0.56035  Biso   1.000  N
  N51      1.0000 0.87730  0.36380  0.31035  Biso   1.000  N
  N52      1.0000 0.62270  0.63620  0.81035  Biso   1.000  N
  N53      1.0000 0.61380  0.37270  0.56035  Biso   1.000  N
  N54      1.0000 0.88620  0.62730  0.06035  Biso   1.000  N
  N55      1.0000 0.37730  0.86380  0.81035  Biso   1.000  N
  N56      1.0000 0.12270  0.13620  0.31035  Biso   1.000  N
  N57      1.0000 0.88620  0.12730  0.93965  Biso   1.000  N
  N58      1.0000 0.61380  0.87270  0.43965  Biso   1.000  N
  N59      1.0000 0.62270  0.13620  0.18965  Biso   1.000  N
  N60      1.0000 0.87730  0.86380  0.68965  Biso   1.000  N
  N61      1.0000 0.38620  0.62730  0.43965  Biso   1.000  N
  N62      1.0000 0.11380  0.37270  0.93965  Biso   1.000  N
  N63      1.0000 0.12270  0.63620  0.68965  Biso   1.000  N
  N64      1.0000 0.37730  0.36380  0.18965  Biso   1.000  N
  N65      1.0000 0.11350  0.91120  0.03777  Biso   1.000  N
  N66      1.0000 0.38650  0.08880  0.53777  Biso   1.000  N
  N67      1.0000 0.83880  0.36350  0.28777  Biso   1.000  N
  N68      1.0000 0.66120  0.63650  0.78777  Biso   1.000  N
  N69      1.0000 0.61350  0.41120  0.53777  Biso   1.000  N
  N70      1.0000 0.88650  0.58880  0.03777  Biso   1.000  N
  N71      1.0000 0.33880  0.86350  0.78777  Biso   1.000  N
  N72      1.0000 0.16120  0.13650  0.28777  Biso   1.000  N
  N73      1.0000 0.88650  0.08880  0.96223  Biso   1.000  N
  N74      1.0000 0.61350  0.91120  0.46223  Biso   1.000  N
  N75      1.0000 0.66120  0.13650  0.21223  Biso   1.000  N
  N76      1.0000 0.83880  0.86350  0.71223  Biso   1.000  N
  N77      1.0000 0.38650  0.58880  0.46223  Biso   1.000  N
  N78      1.0000 0.11350  0.41120  0.96223  Biso   1.000  N
  N79      1.0000 0.16120  0.63650  0.71223  Biso   1.000  N
  N80      1.0000 0.33880  0.36350  0.21223  Biso   1.000  N
  N81      1.0000 0.19970  0.98480  0.03546  Biso   1.000  N
  N82      1.0000 0.30030  0.01520  0.53546  Biso   1.000  N
  N83      1.0000 0.76520  0.44970  0.28546  Biso   1.000  N
  N84      1.0000 0.73480  0.55030  0.78546  Biso   1.000  N
  N85      1.0000 0.69970  0.48480  0.53546  Biso   1.000  N
  N86      1.0000 0.80030  0.51520  0.03546  Biso   1.000  N
  N87      1.0000 0.26520  0.94970  0.78546  Biso   1.000  N
  N88      1.0000 0.23480  0.05030  0.28546  Biso   1.000  N
  N89      1.0000 0.80030  0.01520  0.96454  Biso   1.000  N
  N90      1.0000 0.69970  0.98480  0.46454  Biso   1.000  N
  N91      1.0000 0.73480  0.05030  0.21454  Biso   1.000  N
  N92      1.0000 0.76520  0.94970  0.71454  Biso   1.000  N
  N93      1.0000 0.30030  0.51520  0.46454  Biso   1.000  N
  N94      1.0000 0.19970  0.48480  0.96454  Biso   1.000  N
  N95      1.0000 0.23480  0.55030  0.71454  Biso   1.000  N
  N96      1.0000 0.26520  0.44970  0.21454  Biso   1.000  N
  C1       1.0000 0.23490  0.98100  0.93717  Biso   1.000  C
  C2       1.0000 0.26510  0.01900  0.43717  Biso   1.000  C
  C3       1.0000 0.76900  0.48490  0.18717  Biso   1.000  C
  C4       1.0000 0.73100  0.51510  0.68717  Biso   1.000  C
  C5       1.0000 0.73490  0.48100  0.43717  Biso   1.000  C
  C6       1.0000 0.76510  0.51900  0.93717  Biso   1.000  C
  C7       1.0000 0.26900  0.98490  0.68717  Biso   1.000  C
  C8       1.0000 0.23100  0.01510  0.18717  Biso   1.000  C
  C9       1.0000 0.76510  0.01900  0.06283  Biso   1.000  C
  C10      1.0000 0.73490  0.98100  0.56283  Biso   1.000  C
  C11      1.0000 0.73100  0.01510  0.31283  Biso   1.000  C
  C12      1.0000 0.76900  0.98490  0.81283  Biso   1.000  C
  C13      1.0000 0.26510  0.51900  0.56283  Biso   1.000  C
  C14      1.0000 0.23490  0.48100  0.06283  Biso   1.000  C
  C15      1.0000 0.23100  0.51510  0.81283  Biso   1.000  C
  C16      1.0000 0.26900  0.48490  0.31283  Biso   1.000  C
  C17      1.0000 0.28160  0.88010  0.92882  Biso   1.000  C
  C18      1.0000 0.21840  0.11990  0.42882  Biso   1.000  C
  C19      1.0000 0.86990  0.53160  0.17882  Biso   1.000  C
  C20      1.0000 0.63010  0.46840  0.67882  Biso   1.000  C
  C21      1.0000 0.78160  0.38010  0.42882  Biso   1.000  C
  C22      1.0000 0.71840  0.61990  0.92882  Biso   1.000  C
  C23      1.0000 0.36990  0.03160  0.67882  Biso   1.000  C
  C24      1.0000 0.13010  0.96840  0.17882  Biso   1.000  C
  C25      1.0000 0.71840  0.11990  0.07118  Biso   1.000  C
  C26      1.0000 0.78160  0.88010  0.57118  Biso   1.000  C
  C27      1.0000 0.63010  0.96840  0.32118  Biso   1.000  C
  C28      1.0000 0.86990  0.03160  0.82118  Biso   1.000  C
  C29      1.0000 0.21840  0.61990  0.57118  Biso   1.000  C
  C30      1.0000 0.28160  0.38010  0.07118  Biso   1.000  C
  C31      1.0000 0.13010  0.46840  0.82118  Biso   1.000  C
  C32      1.0000 0.36990  0.53160  0.32118  Biso   1.000  C
  H1       1.0000 0.34310  0.84460  0.93690  Biso   1.000  H
  H2       1.0000 0.15690  0.15540  0.43690  Biso   1.000  H
  H3       1.0000 0.90540  0.59310  0.18690  Biso   1.000  H
  H4       1.0000 0.59460  0.40690  0.68690  Biso   1.000  H
  H5       1.0000 0.84310  0.34460  0.43690  Biso   1.000  H
  H6       1.0000 0.65690  0.65540  0.93690  Biso   1.000  H
  H7       1.0000 0.40540  0.09310  0.68690  Biso   1.000  H
  H8       1.0000 0.09460  0.90690  0.18690  Biso   1.000  H
  H9       1.0000 0.65690  0.15540  0.06310  Biso   1.000  H
  H10      1.0000 0.84310  0.84460  0.56310  Biso   1.000  H
  H11      1.0000 0.59460  0.90690  0.31310  Biso   1.000  H
  H12      1.0000 0.90540  0.09310  0.81310  Biso   1.000  H
  H13      1.0000 0.15690  0.65540  0.56310  Biso   1.000  H
  H14      1.0000 0.34310  0.34460  0.06310  Biso   1.000  H
  H15      1.0000 0.09460  0.40690  0.81310  Biso   1.000  H
  H16      1.0000 0.40540  0.59310  0.31310  Biso   1.000  H
  C33      1.0000 0.23330  0.83480  0.90818  Biso   1.000  C
  C34      1.0000 0.26670  0.16520  0.40818  Biso   1.000  C
  C35      1.0000 0.91520  0.48330  0.15818  Biso   1.000  C
  C36      1.0000 0.58480  0.51670  0.65818  Biso   1.000  C
  C37      1.0000 0.73330  0.33480  0.40818  Biso   1.000  C
  C38      1.0000 0.76670  0.66520  0.90818  Biso   1.000  C
  C39      1.0000 0.41520  0.98330  0.65818  Biso   1.000  C
  C40      1.0000 0.08480  0.01670  0.15818  Biso   1.000  C
  C41      1.0000 0.76670  0.16520  0.09182  Biso   1.000  C
  C42      1.0000 0.73330  0.83480  0.59182  Biso   1.000  C
  C43      1.0000 0.58480  0.01670  0.34182  Biso   1.000  C
  C44      1.0000 0.91520  0.98330  0.84182  Biso   1.000  C
  C45      1.0000 0.26670  0.66520  0.59182  Biso   1.000  C
  C46      1.0000 0.23330  0.33480  0.09182  Biso   1.000  C
  C47      1.0000 0.08480  0.51670  0.84182  Biso   1.000  C
  C48      1.0000 0.41520  0.48330  0.34182  Biso   1.000  C
  H17      1.0000 0.26360  0.76650  0.90190  Biso   1.000  H
  H18      1.0000 0.23640  0.23350  0.40190  Biso   1.000  H
  H19      1.0000 0.98350  0.51360  0.15190  Biso   1.000  H
  H20      1.0000 0.51650  0.48640  0.65190  Biso   1.000  H
  H21      1.0000 0.76360  0.26650  0.40190  Biso   1.000  H
  H22      1.0000 0.73640  0.73350  0.90190  Biso   1.000  H
  H23      1.0000 0.48350  0.01360  0.65190  Biso   1.000  H
  H24      1.0000 0.01650  0.98640  0.15190  Biso   1.000  H
  H25      1.0000 0.73640  0.23350  0.09810  Biso   1.000  H
  H26      1.0000 0.76360  0.76650  0.59810  Biso   1.000  H
  H27      1.0000 0.51650  0.98640  0.34810  Biso   1.000  H
  H28      1.0000 0.98350  0.01360  0.84810  Biso   1.000  H
  H29      1.0000 0.23640  0.73350  0.59810  Biso   1.000  H
  H30      1.0000 0.26360  0.26650  0.09810  Biso   1.000  H
  H31      1.0000 0.01650  0.48640  0.84810  Biso   1.000  H
  H32      1.0000 0.48350  0.51360  0.34810  Biso   1.000  H
  C49      1.0000 0.14140  0.88480  0.89612  Biso   1.000  C
  C50      1.0000 0.35860  0.11520  0.39612  Biso   1.000  C
  C51      1.0000 0.86520  0.39140  0.14612  Biso   1.000  C
  C52      1.0000 0.63480  0.60860  0.64612  Biso   1.000  C
  C53      1.0000 0.64140  0.38480  0.39612  Biso   1.000  C
  C54      1.0000 0.85860  0.61520  0.89612  Biso   1.000  C
  C55      1.0000 0.36520  0.89140  0.64612  Biso   1.000  C
  C56      1.0000 0.13480  0.10860  0.14612  Biso   1.000  C
  C57      1.0000 0.85860  0.11520  0.10388  Biso   1.000  C
  C58      1.0000 0.64140  0.88480  0.60388  Biso   1.000  C
  C59      1.0000 0.63480  0.10860  0.35388  Biso   1.000  C
  C60      1.0000 0.86520  0.89140  0.85388  Biso   1.000  C
  C61      1.0000 0.35860  0.61520  0.60388  Biso   1.000  C
  C62      1.0000 0.14140  0.38480  0.10388  Biso   1.000  C
  C63      1.0000 0.13480  0.60860  0.85388  Biso   1.000  C
  C64      1.0000 0.36520  0.39140  0.35388  Biso   1.000  C
  H33      1.0000 0.11080  0.84930  0.88210  Biso   1.000  H
  H34      1.0000 0.38920  0.15070  0.38210  Biso   1.000  H
  H35      1.0000 0.90070  0.36080  0.13210  Biso   1.000  H
  H36      1.0000 0.59930  0.63920  0.63210  Biso   1.000  H
  H37      1.0000 0.61080  0.34930  0.38210  Biso   1.000  H
  H38      1.0000 0.88920  0.65070  0.88210  Biso   1.000  H
  H39      1.0000 0.40070  0.86080  0.63210  Biso   1.000  H
  H40      1.0000 0.09930  0.13920  0.13210  Biso   1.000  H
  H41      1.0000 0.88920  0.15070  0.11790  Biso   1.000  H
  H42      1.0000 0.61080  0.84930  0.61790  Biso   1.000  H
  H43      1.0000 0.59930  0.13920  0.36790  Biso   1.000  H
  H44      1.0000 0.90070  0.86080  0.86790  Biso   1.000  H
  H45      1.0000 0.38920  0.65070  0.61790  Biso   1.000  H
  H46      1.0000 0.11080  0.34930  0.11790  Biso   1.000  H
  H47      1.0000 0.09930  0.63920  0.86790  Biso   1.000  H
  H48      1.0000 0.40070  0.36080  0.36790  Biso   1.000  H
  C65      1.0000 0.09510  0.98470  0.90430  Biso   1.000  C
  C66      1.0000 0.40490  0.01530  0.40430  Biso   1.000  C
  C67      1.0000 0.76530  0.34510  0.15430  Biso   1.000  C
  C68      1.0000 0.73470  0.65490  0.65430  Biso   1.000  C
  C69      1.0000 0.59510  0.48470  0.40430  Biso   1.000  C
  C70      1.0000 0.90490  0.51530  0.90430  Biso   1.000  C
  C71      1.0000 0.26530  0.84510  0.65430  Biso   1.000  C
  C72      1.0000 0.23470  0.15490  0.15430  Biso   1.000  C
  C73      1.0000 0.90490  0.01530  0.09570  Biso   1.000  C
  C74      1.0000 0.59510  0.98470  0.59570  Biso   1.000  C
  C75      1.0000 0.73470  0.15490  0.34570  Biso   1.000  C
  C76      1.0000 0.76530  0.84510  0.84570  Biso   1.000  C
  C77      1.0000 0.40490  0.51530  0.59570  Biso   1.000  C
  C78      1.0000 0.09510  0.48470  0.09570  Biso   1.000  C
  C79      1.0000 0.23470  0.65490  0.84570  Biso   1.000  C
  C80      1.0000 0.26530  0.34510  0.34570  Biso   1.000  C
  H49      1.0000 0.03280  0.01910  0.89630  Biso   1.000  H
  H50      1.0000 0.46720  0.98090  0.39630  Biso   1.000  H
  H51      1.0000 0.73090  0.28280  0.14630  Biso   1.000  H
  H52      1.0000 0.76910  0.71720  0.64630  Biso   1.000  H
  H53      1.0000 0.53280  0.51910  0.39630  Biso   1.000  H
  H54      1.0000 0.96720  0.48090  0.89630  Biso   1.000  H
  H55      1.0000 0.23090  0.78280  0.64630  Biso   1.000  H
  H56      1.0000 0.26910  0.21720  0.14630  Biso   1.000  H
  H57      1.0000 0.96720  0.98090  0.10370  Biso   1.000  H
  H58      1.0000 0.53280  0.01910  0.60370  Biso   1.000  H
  H59      1.0000 0.76910  0.21720  0.35370  Biso   1.000  H
  H60      1.0000 0.73090  0.78280  0.85370  Biso   1.000  H
  H61      1.0000 0.46720  0.48090  0.60370  Biso   1.000  H
  H62      1.0000 0.03280  0.51910  0.10370  Biso   1.000  H
  H63      1.0000 0.26910  0.71720  0.85370  Biso   1.000  H
  H64      1.0000 0.23090  0.28280  0.35370  Biso   1.000  H
  C81      1.0000 0.14490  0.03380  0.92523  Biso   1.000  C
  C82      1.0000 0.35510  0.96620  0.42523  Biso   1.000  C
  C83      1.0000 0.71620  0.39490  0.17523  Biso   1.000  C
  C84      1.0000 0.78380  0.60510  0.67523  Biso   1.000  C
  C85      1.0000 0.64490  0.53380  0.42523  Biso   1.000  C
  C86      1.0000 0.85510  0.46620  0.92523  Biso   1.000  C
  C87      1.0000 0.21620  0.89490  0.67523  Biso   1.000  C
  C88      1.0000 0.28380  0.10510  0.17523  Biso   1.000  C
  C89      1.0000 0.85510  0.96620  0.07477  Biso   1.000  C
  C90      1.0000 0.64490  0.03380  0.57477  Biso   1.000  C
  C91      1.0000 0.78380  0.10510  0.32477  Biso   1.000  C
  C92      1.0000 0.71620  0.89490  0.82477  Biso   1.000  C
  C93      1.0000 0.35510  0.46620  0.57477  Biso   1.000  C
  C94      1.0000 0.14490  0.53380  0.07477  Biso   1.000  C
  C95      1.0000 0.28380  0.60510  0.82477  Biso   1.000  C
  C96      1.0000 0.21620  0.39490  0.32477  Biso   1.000  C
  C97      1.0000 0.34910  0.04280  0.97477  Biso   1.000  C
  C98      1.0000 0.15090  0.95720  0.47477  Biso   1.000  C
  C99      1.0000 0.70720  0.59910  0.22477  Biso   1.000  C
  C100     1.0000 0.79280  0.40090  0.72477  Biso   1.000  C
  C101     1.0000 0.84910  0.54280  0.47477  Biso   1.000  C
  C102     1.0000 0.65090  0.45720  0.97477  Biso   1.000  C
  C103     1.0000 0.20720  0.09910  0.72477  Biso   1.000  C
  C104     1.0000 0.29280  0.90090  0.22477  Biso   1.000  C
  C105     1.0000 0.65090  0.95720  0.02523  Biso   1.000  C
  C106     1.0000 0.84910  0.04280  0.52523  Biso   1.000  C
  C107     1.0000 0.79280  0.90090  0.27523  Biso   1.000  C
  C108     1.0000 0.70720  0.09910  0.77523  Biso   1.000  C
  C109     1.0000 0.15090  0.45720  0.52523  Biso   1.000  C
  C110     1.0000 0.34910  0.54280  0.02523  Biso   1.000  C
  C111     1.0000 0.29280  0.40090  0.77523  Biso   1.000  C
  C112     1.0000 0.20720  0.59910  0.27523  Biso   1.000  C
  H65      1.0000 0.41600  0.00580  0.96740  Biso   1.000  H
  H66      1.0000 0.08400  0.99420  0.46740  Biso   1.000  H
  H67      1.0000 0.74420  0.66600  0.21740  Biso   1.000  H
  H68      1.0000 0.75580  0.33400  0.71740  Biso   1.000  H
  H69      1.0000 0.91600  0.50580  0.46740  Biso   1.000  H
  H70      1.0000 0.58400  0.49420  0.96740  Biso   1.000  H
  H71      1.0000 0.24420  0.16600  0.71740  Biso   1.000  H
  H72      1.0000 0.25580  0.83400  0.21740  Biso   1.000  H
  H73      1.0000 0.58400  0.99420  0.03260  Biso   1.000  H
  H74      1.0000 0.91600  0.00580  0.53260  Biso   1.000  H
  H75      1.0000 0.75580  0.83400  0.28260  Biso   1.000  H
  H76      1.0000 0.74420  0.16600  0.78260  Biso   1.000  H
  H77      1.0000 0.08400  0.49420  0.53260  Biso   1.000  H
  H78      1.0000 0.41600  0.50580  0.03260  Biso   1.000  H
  H79      1.0000 0.25580  0.33400  0.78260  Biso   1.000  H
  H80      1.0000 0.24420  0.66600  0.28260  Biso   1.000  H
  H81      1.0000 0.37190  0.11970  0.97990  Biso   1.000  H
  H82      1.0000 0.12810  0.88030  0.47990  Biso   1.000  H
  H83      1.0000 0.63030  0.62190  0.22990  Biso   1.000  H
  H84      1.0000 0.86970  0.37810  0.72990  Biso   1.000  H
  H85      1.0000 0.87190  0.61970  0.47990  Biso   1.000  H
  H86      1.0000 0.62810  0.38030  0.97990  Biso   1.000  H
  H87      1.0000 0.13030  0.12190  0.72990  Biso   1.000  H
  H88      1.0000 0.36970  0.87810  0.22990  Biso   1.000  H
  H89      1.0000 0.62810  0.88030  0.02010  Biso   1.000  H
  H90      1.0000 0.87190  0.11970  0.52010  Biso   1.000  H
  H91      1.0000 0.86970  0.87810  0.27010  Biso   1.000  H
  H92      1.0000 0.63030  0.12190  0.77010  Biso   1.000  H
  H93      1.0000 0.12810  0.38030  0.52010  Biso   1.000  H
  H94      1.0000 0.37190  0.61970  0.02010  Biso   1.000  H
  H95      1.0000 0.36970  0.37810  0.77010  Biso   1.000  H
  H96      1.0000 0.13030  0.62190  0.27010  Biso   1.000  H
  C113     1.0000 0.31280  0.97500  0.99737  Biso   1.000  C
  C114     1.0000 0.18720  0.02500  0.49737  Biso   1.000  C
  C115     1.0000 0.77500  0.56280  0.24737  Biso   1.000  C
  C116     1.0000 0.72500  0.43720  0.74737  Biso   1.000  C
  C117     1.0000 0.81280  0.47500  0.49737  Biso   1.000  C
  C118     1.0000 0.68720  0.52500  0.99737  Biso   1.000  C
  C119     1.0000 0.27500  0.06280  0.74737  Biso   1.000  C
  C120     1.0000 0.22500  0.93720  0.24737  Biso   1.000  C
  C121     1.0000 0.68720  0.02500  0.00263  Biso   1.000  C
  C122     1.0000 0.81280  0.97500  0.50263  Biso   1.000  C
  C123     1.0000 0.72500  0.93720  0.25263  Biso   1.000  C
  C124     1.0000 0.77500  0.06280  0.75263  Biso   1.000  C
  C125     1.0000 0.18720  0.52500  0.50263  Biso   1.000  C
  C126     1.0000 0.31280  0.47500  0.00263  Biso   1.000  C
  C127     1.0000 0.22500  0.43720  0.75263  Biso   1.000  C
  C128     1.0000 0.27500  0.56280  0.25263  Biso   1.000  C
  C129     1.0000 0.22180  0.03800  0.01162  Biso   1.000  C
  C130     1.0000 0.27820  0.96200  0.51162  Biso   1.000  C
  C131     1.0000 0.71200  0.47180  0.26162  Biso   1.000  C
  C132     1.0000 0.78800  0.52820  0.76162  Biso   1.000  C
  C133     1.0000 0.72180  0.53800  0.51162  Biso   1.000  C
  C134     1.0000 0.77820  0.46200  0.01162  Biso   1.000  C
  C135     1.0000 0.21200  0.97180  0.76162  Biso   1.000  C
  C136     1.0000 0.28800  0.02820  0.26162  Biso   1.000  C
  C137     1.0000 0.77820  0.96200  0.98838  Biso   1.000  C
  C138     1.0000 0.72180  0.03800  0.48838  Biso   1.000  C
  C139     1.0000 0.78800  0.02820  0.23838  Biso   1.000  C
  C140     1.0000 0.71200  0.97180  0.73838  Biso   1.000  C
  C141     1.0000 0.27820  0.46200  0.48838  Biso   1.000  C
  C142     1.0000 0.22180  0.53800  0.98838  Biso   1.000  C
  C143     1.0000 0.28800  0.52820  0.73838  Biso   1.000  C
  C144     1.0000 0.21200  0.47180  0.23838  Biso   1.000  C
  H97      1.0000 0.24620  0.11730  0.01410  Biso   1.000  H
  H98      1.0000 0.25380  0.88270  0.51410  Biso   1.000  H
  H99      1.0000 0.63270  0.49620  0.26410  Biso   1.000  H
  H100     1.0000 0.86730  0.50380  0.76410  Biso   1.000  H
  H101     1.0000 0.74620  0.61730  0.51410  Biso   1.000  H
  H102     1.0000 0.75380  0.38270  0.01410  Biso   1.000  H
  H103     1.0000 0.13270  0.99620  0.76410  Biso   1.000  H
  H104     1.0000 0.36730  0.00380  0.26410  Biso   1.000  H
  H105     1.0000 0.75380  0.88270  0.98590  Biso   1.000  H
  H106     1.0000 0.74620  0.11730  0.48590  Biso   1.000  H
  H107     1.0000 0.86730  0.00380  0.23590  Biso   1.000  H
  H108     1.0000 0.63270  0.99620  0.73590  Biso   1.000  H
  H109     1.0000 0.25380  0.38270  0.48590  Biso   1.000  H
  H110     1.0000 0.24620  0.61730  0.98590  Biso   1.000  H
  H111     1.0000 0.36730  0.50380  0.73590  Biso   1.000  H
  H112     1.0000 0.13270  0.49620  0.23590  Biso   1.000  H
  H113     1.0000 0.15090  0.03920  0.00200  Biso   1.000  H
  H114     1.0000 0.34910  0.96080  0.50200  Biso   1.000  H
  H115     1.0000 0.71080  0.40090  0.25200  Biso   1.000  H
  H116     1.0000 0.78920  0.59910  0.75200  Biso   1.000  H
  H117     1.0000 0.65090  0.53920  0.50200  Biso   1.000  H
  H118     1.0000 0.84910  0.46080  0.00200  Biso   1.000  H
  H119     1.0000 0.21080  0.90090  0.75200  Biso   1.000  H
  H120     1.0000 0.28920  0.09910  0.25200  Biso   1.000  H
  H121     1.0000 0.84910  0.96080  0.99800  Biso   1.000  H
  H122     1.0000 0.65090  0.03920  0.49800  Biso   1.000  H
  H123     1.0000 0.78920  0.09910  0.24800  Biso   1.000  H
  H124     1.0000 0.71080  0.90090  0.74800  Biso   1.000  H
  H125     1.0000 0.34910  0.46080  0.49800  Biso   1.000  H
  H126     1.0000 0.15090  0.53920  0.99800  Biso   1.000  H
  H127     1.0000 0.28920  0.59910  0.74800  Biso   1.000  H
  H128     1.0000 0.21080  0.40090  0.24800  Biso   1.000  H
  C145     1.0000 0.25710  0.99460  0.05699  Biso   1.000  C
  C146     1.0000 0.24290  0.00540  0.55699  Biso   1.000  C
  C147     1.0000 0.75540  0.50710  0.30699  Biso   1.000  C
  C148     1.0000 0.74460  0.49290  0.80699  Biso   1.000  C
  C149     1.0000 0.75710  0.49460  0.55699  Biso   1.000  C
  C150     1.0000 0.74290  0.50540  0.05699  Biso   1.000  C
  C151     1.0000 0.25540  0.00710  0.80699  Biso   1.000  C
  C152     1.0000 0.24460  0.99290  0.30699  Biso   1.000  C
  C153     1.0000 0.74290  0.00540  0.94301  Biso   1.000  C
  C154     1.0000 0.75710  0.99460  0.44301  Biso   1.000  C
  C155     1.0000 0.74460  0.99290  0.19301  Biso   1.000  C
  C156     1.0000 0.75540  0.00710  0.69301  Biso   1.000  C
  C157     1.0000 0.24290  0.50540  0.44301  Biso   1.000  C
  C158     1.0000 0.25710  0.49460  0.94301  Biso   1.000  C
  C159     1.0000 0.24460  0.49290  0.69301  Biso   1.000  C
  C160     1.0000 0.25540  0.50710  0.19301  Biso   1.000  C
  C161     1.0000 0.34920  0.06060  0.06402  Biso   1.000  C
  C162     1.0000 0.15080  0.93940  0.56402  Biso   1.000  C
  C163     1.0000 0.68940  0.59920  0.31402  Biso   1.000  C
  C164     1.0000 0.81060  0.40080  0.81402  Biso   1.000  C
  C165     1.0000 0.84920  0.56060  0.56402  Biso   1.000  C
  C166     1.0000 0.65080  0.43940  0.06402  Biso   1.000  C
  C167     1.0000 0.18940  0.09920  0.81402  Biso   1.000  C
  C168     1.0000 0.31060  0.90080  0.31402  Biso   1.000  C
  C169     1.0000 0.65080  0.93940  0.93598  Biso   1.000  C
  C170     1.0000 0.84920  0.06060  0.43598  Biso   1.000  C
  C171     1.0000 0.81060  0.90080  0.18598  Biso   1.000  C
  C172     1.0000 0.68940  0.09920  0.68598  Biso   1.000  C
  C173     1.0000 0.15080  0.43940  0.43598  Biso   1.000  C
  C174     1.0000 0.34920  0.56060  0.93598  Biso   1.000  C
  C175     1.0000 0.31060  0.40080  0.68598  Biso   1.000  C
  C176     1.0000 0.18940  0.59920  0.18598  Biso   1.000  C
  H129     1.0000 0.38710  0.10900  0.05300  Biso   1.000  H
  H130     1.0000 0.11290  0.89100  0.55300  Biso   1.000  H
  H131     1.0000 0.64100  0.63710  0.30300  Biso   1.000  H
  H132     1.0000 0.85900  0.36290  0.80300  Biso   1.000  H
  H133     1.0000 0.88710  0.60900  0.55300  Biso   1.000  H
  H134     1.0000 0.61290  0.39100  0.05300  Biso   1.000  H
  H135     1.0000 0.14100  0.13710  0.80300  Biso   1.000  H
  H136     1.0000 0.35900  0.86290  0.30300  Biso   1.000  H
  H137     1.0000 0.61290  0.89100  0.94700  Biso   1.000  H
  H138     1.0000 0.88710  0.10900  0.44700  Biso   1.000  H
  H139     1.0000 0.85900  0.86290  0.19700  Biso   1.000  H
  H140     1.0000 0.64100  0.13710  0.69700  Biso   1.000  H
  H141     1.0000 0.11290  0.39100  0.44700  Biso   1.000  H
  H142     1.0000 0.38710  0.60900  0.94700  Biso   1.000  H
  H143     1.0000 0.35900  0.36290  0.69700  Biso   1.000  H
  H144     1.0000 0.14100  0.63710  0.19700  Biso   1.000  H
  C177     1.0000 0.38190  0.05130  0.08792  Biso   1.000  C
  C178     1.0000 0.11810  0.94870  0.58792  Biso   1.000  C
  C179     1.0000 0.69870  0.63190  0.33792  Biso   1.000  C
  C180     1.0000 0.80130  0.36810  0.83792  Biso   1.000  C
  C181     1.0000 0.88190  0.55130  0.58792  Biso   1.000  C
  C182     1.0000 0.61810  0.44870  0.08792  Biso   1.000  C
  C183     1.0000 0.19870  0.13190  0.83792  Biso   1.000  C
  C184     1.0000 0.30130  0.86810  0.33792  Biso   1.000  C
  C185     1.0000 0.61810  0.94870  0.91208  Biso   1.000  C
  C186     1.0000 0.88190  0.05130  0.41208  Biso   1.000  C
  C187     1.0000 0.80130  0.86810  0.16208  Biso   1.000  C
  C188     1.0000 0.69870  0.13190  0.66208  Biso   1.000  C
  C189     1.0000 0.11810  0.44870  0.41208  Biso   1.000  C
  C190     1.0000 0.38190  0.55130  0.91208  Biso   1.000  C
  C191     1.0000 0.30130  0.36810  0.66208  Biso   1.000  C
  C192     1.0000 0.19870  0.63190  0.16208  Biso   1.000  C
  H145     1.0000 0.44370  0.09570  0.09340  Biso   1.000  H
  H146     1.0000 0.05630  0.90430  0.59340  Biso   1.000  H
  H147     1.0000 0.65430  0.69370  0.34340  Biso   1.000  H
  H148     1.0000 0.84570  0.30630  0.84340  Biso   1.000  H
  H149     1.0000 0.94370  0.59570  0.59340  Biso   1.000  H
  H150     1.0000 0.55630  0.40430  0.09340  Biso   1.000  H
  H151     1.0000 0.15430  0.19370  0.84340  Biso   1.000  H
  H152     1.0000 0.34570  0.80630  0.34340  Biso   1.000  H
  H153     1.0000 0.55630  0.90430  0.90660  Biso   1.000  H
  H154     1.0000 0.94370  0.09570  0.40660  Biso   1.000  H
  H155     1.0000 0.84570  0.80630  0.15660  Biso   1.000  H
  H156     1.0000 0.65430  0.19370  0.65660  Biso   1.000  H
  H157     1.0000 0.05630  0.40430  0.40660  Biso   1.000  H
  H158     1.0000 0.44370  0.59570  0.90660  Biso   1.000  H
  H159     1.0000 0.34570  0.30630  0.65660  Biso   1.000  H
  H160     1.0000 0.15430  0.69370  0.15660  Biso   1.000  H
  C193     1.0000 0.32820  0.97980  0.10439  Biso   1.000  C
  C194     1.0000 0.17180  0.02020  0.60439  Biso   1.000  C
  C195     1.0000 0.77020  0.57820  0.35439  Biso   1.000  C
  C196     1.0000 0.72980  0.42180  0.85439  Biso   1.000  C
  C197     1.0000 0.82820  0.47980  0.60439  Biso   1.000  C
  C198     1.0000 0.67180  0.52020  0.10439  Biso   1.000  C
  C199     1.0000 0.27020  0.07820  0.85439  Biso   1.000  C
  C200     1.0000 0.22980  0.92180  0.35439  Biso   1.000  C
  C201     1.0000 0.67180  0.02020  0.89561  Biso   1.000  C
  C202     1.0000 0.82820  0.97980  0.39561  Biso   1.000  C
  C203     1.0000 0.72980  0.92180  0.14561  Biso   1.000  C
  C204     1.0000 0.77020  0.07820  0.64561  Biso   1.000  C
  C205     1.0000 0.17180  0.52020  0.39561  Biso   1.000  C
  C206     1.0000 0.32820  0.47980  0.89561  Biso   1.000  C
  C207     1.0000 0.22980  0.42180  0.64561  Biso   1.000  C
  C208     1.0000 0.27020  0.57820  0.14561  Biso   1.000  C
  H161     1.0000 0.35520  0.97680  0.12060  Biso   1.000  H
  H162     1.0000 0.14480  0.02320  0.62060  Biso   1.000  H
  H163     1.0000 0.77320  0.60520  0.37060  Biso   1.000  H
  H164     1.0000 0.72680  0.39480  0.87060  Biso   1.000  H
  H165     1.0000 0.85520  0.47680  0.62060  Biso   1.000  H
  H166     1.0000 0.64480  0.52320  0.12060  Biso   1.000  H
  H167     1.0000 0.27320  0.10520  0.87060  Biso   1.000  H
  H168     1.0000 0.22680  0.89480  0.37060  Biso   1.000  H
  H169     1.0000 0.64480  0.02320  0.87940  Biso   1.000  H
  H170     1.0000 0.85520  0.97680  0.37940  Biso   1.000  H
  H171     1.0000 0.72680  0.89480  0.12940  Biso   1.000  H
  H172     1.0000 0.77320  0.10520  0.62940  Biso   1.000  H
  H173     1.0000 0.14480  0.52320  0.37940  Biso   1.000  H
  H174     1.0000 0.35520  0.47680  0.87940  Biso   1.000  H
  H175     1.0000 0.22680  0.39480  0.62940  Biso   1.000  H
  H176     1.0000 0.27320  0.60520  0.12940  Biso   1.000  H
  C209     1.0000 0.23720  0.91320  0.09793  Biso   1.000  C
  C210     1.0000 0.26280  0.08680  0.59793  Biso   1.000  C
  C211     1.0000 0.83680  0.48720  0.34793  Biso   1.000  C
  C212     1.0000 0.66320  0.51280  0.84793  Biso   1.000  C
  C213     1.0000 0.73720  0.41320  0.59793  Biso   1.000  C
  C214     1.0000 0.76280  0.58680  0.09793  Biso   1.000  C
  C215     1.0000 0.33680  0.98720  0.84793  Biso   1.000  C
  C216     1.0000 0.16320  0.01280  0.34793  Biso   1.000  C
  C217     1.0000 0.76280  0.08680  0.90207  Biso   1.000  C
  C218     1.0000 0.73720  0.91320  0.40207  Biso   1.000  C
  C219     1.0000 0.66320  0.01280  0.15207  Biso   1.000  C
  C220     1.0000 0.83680  0.98720  0.65207  Biso   1.000  C
  C221     1.0000 0.26280  0.58680  0.40207  Biso   1.000  C
  C222     1.0000 0.23720  0.41320  0.90207  Biso   1.000  C
  C223     1.0000 0.16320  0.51280  0.65207  Biso   1.000  C
  C224     1.0000 0.33680  0.48720  0.15207  Biso   1.000  C
  H177     1.0000 0.20050  0.86480  0.10920  Biso   1.000  H
  H178     1.0000 0.29950  0.13520  0.60920  Biso   1.000  H
  H179     1.0000 0.88520  0.45050  0.35920  Biso   1.000  H
  H180     1.0000 0.61480  0.54950  0.85920  Biso   1.000  H
  H181     1.0000 0.70050  0.36480  0.60920  Biso   1.000  H
  H182     1.0000 0.79950  0.63520  0.10920  Biso   1.000  H
  H183     1.0000 0.38520  0.95050  0.85920  Biso   1.000  H
  H184     1.0000 0.11480  0.04950  0.35920  Biso   1.000  H
  H185     1.0000 0.79950  0.13520  0.89080  Biso   1.000  H
  H186     1.0000 0.70050  0.86480  0.39080  Biso   1.000  H
  H187     1.0000 0.61480  0.04950  0.14080  Biso   1.000  H
  H188     1.0000 0.88520  0.95050  0.64080  Biso   1.000  H
  H189     1.0000 0.29950  0.63520  0.39080  Biso   1.000  H
  H190     1.0000 0.20050  0.36480  0.89080  Biso   1.000  H
  H191     1.0000 0.11480  0.54950  0.64080  Biso   1.000  H
  H192     1.0000 0.38520  0.45050  0.14080  Biso   1.000  H
  C225     1.0000 0.20200  0.92190  0.07330  Biso   1.000  C
  C226     1.0000 0.29800  0.07810  0.57330  Biso   1.000  C
  C227     1.0000 0.82810  0.45200  0.32330  Biso   1.000  C
  C228     1.0000 0.67190  0.54800  0.82330  Biso   1.000  C
  C229     1.0000 0.70200  0.42190  0.57330  Biso   1.000  C
  C230     1.0000 0.79800  0.57810  0.07330  Biso   1.000  C
  C231     1.0000 0.32810  0.95200  0.82330  Biso   1.000  C
  C232     1.0000 0.17190  0.04800  0.32330  Biso   1.000  C
  C233     1.0000 0.79800  0.07810  0.92670  Biso   1.000  C
  C234     1.0000 0.70200  0.92190  0.42670  Biso   1.000  C
  C235     1.0000 0.67190  0.04800  0.17670  Biso   1.000  C
  C236     1.0000 0.82810  0.95200  0.67670  Biso   1.000  C
  C237     1.0000 0.29800  0.57810  0.42670  Biso   1.000  C
  C238     1.0000 0.20200  0.42190  0.92670  Biso   1.000  C
  C239     1.0000 0.17190  0.54800  0.67670  Biso   1.000  C
  C240     1.0000 0.32810  0.45200  0.17670  Biso   1.000  C
  O1       1.0000 0.28240  0.87040  0.99141  Biso   1.000  O
  O2       1.0000 0.21760  0.12960  0.49141  Biso   1.000  O
  O3       1.0000 0.87960  0.53240  0.24141  Biso   1.000  O
  O4       1.0000 0.62040  0.46760  0.74141  Biso   1.000  O
  O5       1.0000 0.78240  0.37040  0.49141  Biso   1.000  O
  O6       1.0000 0.71760  0.62960  0.99141  Biso   1.000  O
  O7       1.0000 0.37960  0.03240  0.74141  Biso   1.000  O
  O8       1.0000 0.12040  0.96760  0.24141  Biso   1.000  O
  O9       1.0000 0.71760  0.12960  0.00859  Biso   1.000  O
  O10      1.0000 0.78240  0.87040  0.50859  Biso   1.000  O
  O11      1.0000 0.62040  0.96760  0.25859  Biso   1.000  O
  O12      1.0000 0.87960  0.03240  0.75859  Biso   1.000  O
  O13      1.0000 0.21760  0.62960  0.50859  Biso   1.000  O
  O14      1.0000 0.28240  0.37040  0.00859  Biso   1.000  O
  O15      1.0000 0.12040  0.46760  0.75859  Biso   1.000  O
  O16      1.0000 0.37960  0.53240  0.25859  Biso   1.000  O
  H193     1.0000 0.27700  0.86530  0.97630  Biso   1.000  H
  H194     1.0000 0.22300  0.13470  0.47630  Biso   1.000  H
  H195     1.0000 0.88470  0.52700  0.22630  Biso   1.000  H
  H196     1.0000 0.61530  0.47300  0.72630  Biso   1.000  H
  H197     1.0000 0.77700  0.36530  0.47630  Biso   1.000  H
  H198     1.0000 0.72300  0.63470  0.97630  Biso   1.000  H
  H199     1.0000 0.38470  0.02700  0.72630  Biso   1.000  H
  H200     1.0000 0.11530  0.97300  0.22630  Biso   1.000  H
  H201     1.0000 0.72300  0.13470  0.02370  Biso   1.000  H
  H202     1.0000 0.77700  0.86530  0.52370  Biso   1.000  H
  H203     1.0000 0.61530  0.97300  0.27370  Biso   1.000  H
  H204     1.0000 0.88470  0.02700  0.77370  Biso   1.000  H
  H205     1.0000 0.22300  0.63470  0.52370  Biso   1.000  H
  H206     1.0000 0.27700  0.36530  0.02370  Biso   1.000  H
  H207     1.0000 0.11530  0.47300  0.77370  Biso   1.000  H
  H208     1.0000 0.38470  0.52700  0.27370  Biso   1.000  H
  Cl17     1.0000 0.59090  0.83450  0.08976  Biso   1.000  Cl
  Cl18     1.0000 0.90910  0.16550  0.58976  Biso   1.000  Cl
  Cl19     1.0000 0.91550  0.84090  0.33976  Biso   1.000  Cl
  Cl20     1.0000 0.58450  0.15910  0.83976  Biso   1.000  Cl
  Cl21     1.0000 0.09090  0.33450  0.58976  Biso   1.000  Cl
  Cl22     1.0000 0.40910  0.66550  0.08976  Biso   1.000  Cl
  Cl23     1.0000 0.41550  0.34090  0.83976  Biso   1.000  Cl
  Cl24     1.0000 0.08450  0.65910  0.33976  Biso   1.000  Cl
  Cl25     1.0000 0.40910  0.16550  0.91024  Biso   1.000  Cl
  Cl26     1.0000 0.09090  0.83450  0.41024  Biso   1.000  Cl
  Cl27     1.0000 0.58450  0.65910  0.16024  Biso   1.000  Cl
  Cl28     1.0000 0.91550  0.34090  0.66024  Biso   1.000  Cl
  Cl29     1.0000 0.90910  0.66550  0.41024  Biso   1.000  Cl
  Cl30     1.0000 0.59090  0.33450  0.91024  Biso   1.000  Cl
  Cl31     1.0000 0.08450  0.15910  0.66024  Biso   1.000  Cl
  Cl32     1.0000 0.41550  0.84090  0.16024  Biso   1.000  Cl
  C241     1.0000 0.50000  0.75000  0.06780  Biso   1.000  C
  C242     1.0000 0.00000  0.25000  0.56780  Biso   1.000  C
  C243     1.0000 0.00000  0.75000  0.31780  Biso   1.000  C
  C244     1.0000 0.50000  0.25000  0.81780  Biso   1.000  C
  C245     1.0000 0.50000  0.25000  0.93220  Biso   1.000  C
  C246     1.0000 0.00000  0.75000  0.43220  Biso   1.000  C
  C247     1.0000 0.50000  0.75000  0.18220  Biso   1.000  C
  C248     1.0000 0.00000  0.25000  0.68220  Biso   1.000  C
  H209     1.0000 0.54650  0.69990  0.05740  Biso   1.000  H
  H210     1.0000 0.95350  0.30010  0.55740  Biso   1.000  H
  H211     1.0000 0.05010  0.79650  0.30740  Biso   1.000  H
  H212     1.0000 0.44990  0.20350  0.80740  Biso   1.000  H
  H213     1.0000 0.04650  0.19990  0.55740  Biso   1.000  H
  H214     1.0000 0.45350  0.80010  0.05740  Biso   1.000  H
  H215     1.0000 0.55010  0.29650  0.80740  Biso   1.000  H
  H216     1.0000 0.94990  0.70350  0.30740  Biso   1.000  H
  H217     1.0000 0.45350  0.30010  0.94260  Biso   1.000  H
  H218     1.0000 0.04650  0.69990  0.44260  Biso   1.000  H
  H219     1.0000 0.44990  0.70350  0.19260  Biso   1.000  H
  H220     1.0000 0.05010  0.29650  0.69260  Biso   1.000  H
  H221     1.0000 0.95350  0.80010  0.44260  Biso   1.000  H
  H222     1.0000 0.54650  0.19990  0.94260  Biso   1.000  H
  H223     1.0000 0.94990  0.20350  0.69260  Biso   1.000  H
  H224     1.0000 0.55010  0.79650  0.19260  Biso   1.000  H
  Cl33     1.0000 0.00000  0.25000  0.00716  Biso   1.000  Cl
  Cl34     1.0000 0.50000  0.75000  0.50716  Biso   1.000  Cl
  Cl35     1.0000 0.50000  0.25000  0.25716  Biso   1.000  Cl
  Cl36     1.0000 0.00000  0.75000  0.75716  Biso   1.000  Cl
  Cl37     1.0000 0.00000  0.75000  0.99284  Biso   1.000  Cl
  Cl38     1.0000 0.50000  0.25000  0.49284  Biso   1.000  Cl
  Cl39     1.0000 0.00000  0.25000  0.24284  Biso   1.000  Cl
  Cl40     1.0000 0.50000  0.75000  0.74284  Biso   1.000  Cl
  Cl41     1.0000 0.03430  0.19360  0.05600  Biso   1.000  Cl
  Cl42     1.0000 0.46570  0.80640  0.55600  Biso   1.000  Cl
  Cl43     1.0000 0.55640  0.28430  0.30600  Biso   1.000  Cl
  Cl44     1.0000 0.94360  0.71570  0.80600  Biso   1.000  Cl
  Cl45     1.0000 0.53430  0.69360  0.55600  Biso   1.000  Cl
  Cl46     1.0000 0.96570  0.30640  0.05600  Biso   1.000  Cl
  Cl47     1.0000 0.05640  0.78430  0.80600  Biso   1.000  Cl
  Cl48     1.0000 0.44360  0.21570  0.30600  Biso   1.000  Cl
  Cl49     1.0000 0.96570  0.80640  0.94400  Biso   1.000  Cl
  Cl50     1.0000 0.53430  0.19360  0.44400  Biso   1.000  Cl
  Cl51     1.0000 0.94360  0.21570  0.19400  Biso   1.000  Cl
  Cl52     1.0000 0.55640  0.78430  0.69400  Biso   1.000  Cl
  Cl53     1.0000 0.46570  0.30640  0.44400  Biso   1.000  Cl
  Cl54     1.0000 0.03430  0.69360  0.94400  Biso   1.000  Cl
  Cl55     1.0000 0.44360  0.71570  0.69400  Biso   1.000  Cl
  Cl56     1.0000 0.05640  0.28430  0.19400  Biso   1.000  Cl
  C249     1.0000 0.97530  0.13970  0.02850  Biso   1.000  C
  C250     1.0000 0.52470  0.86030  0.52850  Biso   1.000  C
  C251     1.0000 0.61030  0.22530  0.27850  Biso   1.000  C
  C252     1.0000 0.88970  0.77470  0.77850  Biso   1.000  C
  C253     1.0000 0.47530  0.63970  0.52850  Biso   1.000  C
  C254     1.0000 0.02470  0.36030  0.02850  Biso   1.000  C
  C255     1.0000 0.11030  0.72530  0.77850  Biso   1.000  C
  C256     1.0000 0.38970  0.27470  0.27850  Biso   1.000  C
  C257     1.0000 0.02470  0.86030  0.97150  Biso   1.000  C
  C258     1.0000 0.47530  0.13970  0.47150  Biso   1.000  C
  C259     1.0000 0.88970  0.27470  0.22150  Biso   1.000  C
  C260     1.0000 0.61030  0.72530  0.72150  Biso   1.000  C
  C261     1.0000 0.52470  0.36030  0.47150  Biso   1.000  C
  C262     1.0000 0.97530  0.63970  0.97150  Biso   1.000  C
  C263     1.0000 0.38970  0.77470  0.72150  Biso   1.000  C
  C264     1.0000 0.11030  0.22530  0.22150  Biso   1.000  C
  H225     1.0000 0.01360  0.06900  0.02350  Biso   1.000  H
  H226     1.0000 0.48640  0.93100  0.52350  Biso   1.000  H
  H227     1.0000 0.68100  0.26360  0.27350  Biso   1.000  H
  H228     1.0000 0.81900  0.73640  0.77350  Biso   1.000  H
  H229     1.0000 0.51360  0.56900  0.52350  Biso   1.000  H
  H230     1.0000 0.98640  0.43100  0.02350  Biso   1.000  H
  H231     1.0000 0.18100  0.76360  0.77350  Biso   1.000  H
  H232     1.0000 0.31900  0.23640  0.27350  Biso   1.000  H
  H233     1.0000 0.98640  0.93100  0.97650  Biso   1.000  H
  H234     1.0000 0.51360  0.06900  0.47650  Biso   1.000  H
  H235     1.0000 0.81900  0.23640  0.22650  Biso   1.000  H
  H236     1.0000 0.68100  0.76360  0.72650  Biso   1.000  H
  H237     1.0000 0.48640  0.43100  0.47650  Biso   1.000  H
  H238     1.0000 0.01360  0.56900  0.97650  Biso   1.000  H
  H239     1.0000 0.31900  0.73640  0.72650  Biso   1.000  H
  H240     1.0000 0.18100  0.26360  0.22650  Biso   1.000  H
  H241     1.0000 0.89330  0.12480  0.03040  Biso   1.000  H
  H242     1.0000 0.60670  0.87520  0.53040  Biso   1.000  H
  H243     1.0000 0.62520  0.14330  0.28040  Biso   1.000  H
  H244     1.0000 0.87480  0.85670  0.78040  Biso   1.000  H
  H245     1.0000 0.39330  0.62480  0.53040  Biso   1.000  H
  H246     1.0000 0.10670  0.37520  0.03040  Biso   1.000  H
  H247     1.0000 0.12520  0.64330  0.78040  Biso   1.000  H
  H248     1.0000 0.37480  0.35670  0.28040  Biso   1.000  H
  H249     1.0000 0.10670  0.87520  0.96960  Biso   1.000  H
  H250     1.0000 0.39330  0.12480  0.46960  Biso   1.000  H
  H251     1.0000 0.87480  0.35670  0.21960  Biso   1.000  H
  H252     1.0000 0.62520  0.64330  0.71960  Biso   1.000  H
  H253     1.0000 0.60670  0.37520  0.46960  Biso   1.000  H
  H254     1.0000 0.89330  0.62480  0.96960  Biso   1.000  H
  H255     1.0000 0.37480  0.85670  0.71960  Biso   1.000  H
  H256     1.0000 0.12520  0.14330  0.21960  Biso   1.000  H
  H257     1.0000 0.40830  0.47680  0.97650  Biso   1.000  H
  H258     1.0000 0.09170  0.52320  0.47650  Biso   1.000  H
  H259     1.0000 0.27320  0.65830  0.22650  Biso   1.000  H
  H260     1.0000 0.22680  0.34170  0.72650  Biso   1.000  H
  H261     1.0000 0.90830  0.97680  0.47650  Biso   1.000  H
  H262     1.0000 0.59170  0.02320  0.97650  Biso   1.000  H
  H263     1.0000 0.77320  0.15830  0.72650  Biso   1.000  H
  H264     1.0000 0.72680  0.84170  0.22650  Biso   1.000  H
  H265     1.0000 0.59170  0.52320  0.02350  Biso   1.000  H
  H266     1.0000 0.90830  0.47680  0.52350  Biso   1.000  H
  H267     1.0000 0.22680  0.84170  0.27350  Biso   1.000  H
  H268     1.0000 0.27320  0.15830  0.77350  Biso   1.000  H
  H269     1.0000 0.09170  0.02320  0.52350  Biso   1.000  H
  H270     1.0000 0.40830  0.97680  0.02350  Biso   1.000  H
  H271     1.0000 0.72680  0.34170  0.77350  Biso   1.000  H
  H272     1.0000 0.77320  0.65830  0.27350  Biso   1.000  H
  O17      1.0000 0.39840  0.43370  0.98841  Biso   1.000  O
  O18      1.0000 0.10160  0.56630  0.48841  Biso   1.000  O
  O19      1.0000 0.31630  0.64840  0.23841  Biso   1.000  O
  O20      1.0000 0.18370  0.35160  0.73841  Biso   1.000  O
  O21      1.0000 0.89840  0.93370  0.48841  Biso   1.000  O
  O22      1.0000 0.60160  0.06630  0.98841  Biso   1.000  O
  O23      1.0000 0.81630  0.14840  0.73841  Biso   1.000  O
  O24      1.0000 0.68370  0.85160  0.23841  Biso   1.000  O
  O25      1.0000 0.60160  0.56630  0.01159  Biso   1.000  O
  O26      1.0000 0.89840  0.43370  0.51159  Biso   1.000  O
  O27      1.0000 0.18370  0.85160  0.26159  Biso   1.000  O
  O28      1.0000 0.31630  0.14840  0.76159  Biso   1.000  O
  O29      1.0000 0.10160  0.06630  0.51159  Biso   1.000  O
  O30      1.0000 0.39840  0.93370  0.01159  Biso   1.000  O
  O31      1.0000 0.68370  0.35160  0.76159  Biso   1.000  O
  O32      1.0000 0.81630  0.64840  0.26159  Biso   1.000  O
