data_image0
_cell_length_a       32.452
_cell_length_b       32.452
_cell_length_c       32.452
_cell_angle_alpha    90
_cell_angle_beta     90
_cell_angle_gamma    90

_symmetry_space_group_name_H-M    "P 1"
_symmetry_int_tables_number       1

loop_
  _symmetry_equiv_pos_as_xyz
  'x, y, z'

loop_
  _atom_site_label
  _atom_site_occupancy
  _atom_site_fract_x
  _atom_site_fract_y
  _atom_site_fract_z
  _atom_site_thermal_displace_type
  _atom_site_B_iso_or_equiv
  _atom_site_type_symbol
  Cu1      1.0000 0.75000  0.75000  0.75000  Biso   1.000  Cu
  Cu2      1.0000 0.25000  0.75000  0.75000  Biso   1.000  Cu
  Cu3      1.0000 0.25000  0.25000  0.75000  Biso   1.000  Cu
  Cu4      1.0000 0.75000  0.25000  0.75000  Biso   1.000  Cu
  Cu5      1.0000 0.75000  0.25000  0.25000  Biso   1.000  Cu
  Cu6      1.0000 0.75000  0.75000  0.25000  Biso   1.000  Cu
  Cu7      1.0000 0.25000  0.75000  0.25000  Biso   1.000  Cu
  Cu8      1.0000 0.25000  0.25000  0.25000  Biso   1.000  Cu
  Cu9      1.0000 0.76109  0.00000  0.00000  Biso   1.000  Cu
  Cu10     1.0000 0.00000  0.76109  0.00000  Biso   1.000  Cu
  Cu11     1.0000 0.23891  0.00000  0.00000  Biso   1.000  Cu
  Cu12     1.0000 0.00000  0.23891  0.00000  Biso   1.000  Cu
  Cu13     1.0000 0.00000  0.00000  0.23891  Biso   1.000  Cu
  Cu14     1.0000 0.00000  0.00000  0.76109  Biso   1.000  Cu
  Cu15     1.0000 0.26109  0.50000  0.50000  Biso   1.000  Cu
  Cu16     1.0000 0.50000  0.26109  0.50000  Biso   1.000  Cu
  Cu17     1.0000 0.73891  0.50000  0.50000  Biso   1.000  Cu
  Cu18     1.0000 0.50000  0.73891  0.50000  Biso   1.000  Cu
  Cu19     1.0000 0.50000  0.50000  0.73891  Biso   1.000  Cu
  Cu20     1.0000 0.50000  0.50000  0.26109  Biso   1.000  Cu
  N1       1.0000 0.74887  0.81485  0.74310  Biso   1.000  N
  N2       1.0000 0.18515  0.74887  0.74310  Biso   1.000  N
  N3       1.0000 0.25113  0.18515  0.74310  Biso   1.000  N
  N4       1.0000 0.81485  0.25113  0.74310  Biso   1.000  N
  N5       1.0000 0.74887  0.25690  0.81485  Biso   1.000  N
  N6       1.0000 0.74887  0.18515  0.25690  Biso   1.000  N
  N7       1.0000 0.74887  0.74310  0.18515  Biso   1.000  N
  N8       1.0000 0.74310  0.81485  0.25113  Biso   1.000  N
  N9       1.0000 0.25113  0.81485  0.25690  Biso   1.000  N
  N10      1.0000 0.25690  0.81485  0.74887  Biso   1.000  N
  N11      1.0000 0.74310  0.74887  0.81485  Biso   1.000  N
  N12      1.0000 0.81485  0.74310  0.74887  Biso   1.000  N
  N13      1.0000 0.18515  0.25690  0.74887  Biso   1.000  N
  N14      1.0000 0.74310  0.25113  0.18515  Biso   1.000  N
  N15      1.0000 0.18515  0.74310  0.25113  Biso   1.000  N
  N16      1.0000 0.25690  0.25113  0.81485  Biso   1.000  N
  N17      1.0000 0.25690  0.74887  0.18515  Biso   1.000  N
  N18      1.0000 0.81485  0.25690  0.25113  Biso   1.000  N
  N19      1.0000 0.81485  0.74887  0.25690  Biso   1.000  N
  N20      1.0000 0.18515  0.25113  0.25690  Biso   1.000  N
  N21      1.0000 0.25113  0.74310  0.81485  Biso   1.000  N
  N22      1.0000 0.25113  0.25690  0.18515  Biso   1.000  N
  N23      1.0000 0.74310  0.18515  0.74887  Biso   1.000  N
  N24      1.0000 0.25690  0.18515  0.25113  Biso   1.000  N
  N25      1.0000 0.24887  0.31485  0.24310  Biso   1.000  N
  N26      1.0000 0.68515  0.24887  0.24310  Biso   1.000  N
  N27      1.0000 0.75113  0.68515  0.24310  Biso   1.000  N
  N28      1.0000 0.31485  0.75113  0.24310  Biso   1.000  N
  N29      1.0000 0.24887  0.75690  0.31485  Biso   1.000  N
  N30      1.0000 0.24887  0.68515  0.75690  Biso   1.000  N
  N31      1.0000 0.24887  0.24310  0.68515  Biso   1.000  N
  N32      1.0000 0.24310  0.31485  0.75113  Biso   1.000  N
  N33      1.0000 0.75113  0.31485  0.75690  Biso   1.000  N
  N34      1.0000 0.75690  0.31485  0.24887  Biso   1.000  N
  N35      1.0000 0.24310  0.24887  0.31485  Biso   1.000  N
  N36      1.0000 0.31485  0.24310  0.24887  Biso   1.000  N
  N37      1.0000 0.68515  0.75690  0.24887  Biso   1.000  N
  N38      1.0000 0.24310  0.75113  0.68515  Biso   1.000  N
  N39      1.0000 0.68515  0.24310  0.75113  Biso   1.000  N
  N40      1.0000 0.75690  0.75113  0.31485  Biso   1.000  N
  N41      1.0000 0.75690  0.24887  0.68515  Biso   1.000  N
  N42      1.0000 0.31485  0.75690  0.75113  Biso   1.000  N
  N43      1.0000 0.31485  0.24887  0.75690  Biso   1.000  N
  N44      1.0000 0.68515  0.75113  0.75690  Biso   1.000  N
  N45      1.0000 0.75113  0.24310  0.31485  Biso   1.000  N
  N46      1.0000 0.75113  0.75690  0.68515  Biso   1.000  N
  N47      1.0000 0.24310  0.68515  0.24887  Biso   1.000  N
  N48      1.0000 0.75690  0.68515  0.75113  Biso   1.000  N
  O1       1.0000 0.83226  0.00000  0.00000  Biso   1.000  O
  O2       1.0000 0.00000  0.83226  0.00000  Biso   1.000  O
  O3       1.0000 0.16774  0.00000  0.00000  Biso   1.000  O
  O4       1.0000 0.00000  0.16774  0.00000  Biso   1.000  O
  O5       1.0000 0.00000  0.00000  0.16774  Biso   1.000  O
  O6       1.0000 0.00000  0.00000  0.83226  Biso   1.000  O
  O7       1.0000 0.33226  0.50000  0.50000  Biso   1.000  O
  O8       1.0000 0.50000  0.33226  0.50000  Biso   1.000  O
  O9       1.0000 0.66774  0.50000  0.50000  Biso   1.000  O
  O10      1.0000 0.50000  0.66774  0.50000  Biso   1.000  O
  O11      1.0000 0.50000  0.50000  0.66774  Biso   1.000  O
  O12      1.0000 0.50000  0.50000  0.33226  Biso   1.000  O
  N49      1.0000 0.83306  0.83306  0.83306  Biso   1.000  N
  N50      1.0000 0.16694  0.83306  0.83306  Biso   1.000  N
  N51      1.0000 0.16694  0.16694  0.83306  Biso   1.000  N
  N52      1.0000 0.83306  0.16694  0.83306  Biso   1.000  N
  N53      1.0000 0.83306  0.16694  0.16694  Biso   1.000  N
  N54      1.0000 0.83306  0.83306  0.16694  Biso   1.000  N
  N55      1.0000 0.16694  0.83306  0.16694  Biso   1.000  N
  N56      1.0000 0.16694  0.16694  0.16694  Biso   1.000  N
  N57      1.0000 0.33306  0.33306  0.33306  Biso   1.000  N
  N58      1.0000 0.66694  0.33306  0.33306  Biso   1.000  N
  N59      1.0000 0.66694  0.66694  0.33306  Biso   1.000  N
  N60      1.0000 0.33306  0.66694  0.33306  Biso   1.000  N
  N61      1.0000 0.33306  0.66694  0.66694  Biso   1.000  N
  N62      1.0000 0.33306  0.33306  0.66694  Biso   1.000  N
  N63      1.0000 0.66694  0.33306  0.66694  Biso   1.000  N
  N64      1.0000 0.66694  0.66694  0.66694  Biso   1.000  N
  O13      1.0000 0.82845  0.86210  0.80840  Biso   1.000  O
  O14      1.0000 0.13790  0.82845  0.80840  Biso   1.000  O
  O15      1.0000 0.17155  0.13790  0.80840  Biso   1.000  O
  O16      1.0000 0.86210  0.17155  0.80840  Biso   1.000  O
  O17      1.0000 0.82845  0.19160  0.86210  Biso   1.000  O
  O18      1.0000 0.82845  0.13790  0.19160  Biso   1.000  O
  O19      1.0000 0.82845  0.80840  0.13790  Biso   1.000  O
  O20      1.0000 0.80840  0.86210  0.17155  Biso   1.000  O
  O21      1.0000 0.17155  0.86210  0.19160  Biso   1.000  O
  O22      1.0000 0.19160  0.86210  0.82845  Biso   1.000  O
  O23      1.0000 0.80840  0.82845  0.86210  Biso   1.000  O
  O24      1.0000 0.86210  0.80840  0.82845  Biso   1.000  O
  O25      1.0000 0.13790  0.19160  0.82845  Biso   1.000  O
  O26      1.0000 0.80840  0.17155  0.13790  Biso   1.000  O
  O27      1.0000 0.13790  0.80840  0.17155  Biso   1.000  O
  O28      1.0000 0.19160  0.17155  0.86210  Biso   1.000  O
  O29      1.0000 0.19160  0.82845  0.13790  Biso   1.000  O
  O30      1.0000 0.86210  0.19160  0.17155  Biso   1.000  O
  O31      1.0000 0.86210  0.82845  0.19160  Biso   1.000  O
  O32      1.0000 0.13790  0.17155  0.19160  Biso   1.000  O
  O33      1.0000 0.17155  0.80840  0.86210  Biso   1.000  O
  O34      1.0000 0.17155  0.19160  0.13790  Biso   1.000  O
  O35      1.0000 0.80840  0.13790  0.82845  Biso   1.000  O
  O36      1.0000 0.19160  0.13790  0.17155  Biso   1.000  O
  O37      1.0000 0.32845  0.36210  0.30840  Biso   1.000  O
  O38      1.0000 0.63790  0.32845  0.30840  Biso   1.000  O
  O39      1.0000 0.67155  0.63790  0.30840  Biso   1.000  O
  O40      1.0000 0.36210  0.67155  0.30840  Biso   1.000  O
  O41      1.0000 0.32845  0.69160  0.36210  Biso   1.000  O
  O42      1.0000 0.32845  0.63790  0.69160  Biso   1.000  O
  O43      1.0000 0.32845  0.30840  0.63790  Biso   1.000  O
  O44      1.0000 0.30840  0.36210  0.67155  Biso   1.000  O
  O45      1.0000 0.67155  0.36210  0.69160  Biso   1.000  O
  O46      1.0000 0.69160  0.36210  0.32845  Biso   1.000  O
  O47      1.0000 0.30840  0.32845  0.36210  Biso   1.000  O
  O48      1.0000 0.36210  0.30840  0.32845  Biso   1.000  O
  O49      1.0000 0.63790  0.69160  0.32845  Biso   1.000  O
  O50      1.0000 0.30840  0.67155  0.63790  Biso   1.000  O
  O51      1.0000 0.63790  0.30840  0.67155  Biso   1.000  O
  O52      1.0000 0.69160  0.67155  0.36210  Biso   1.000  O
  O53      1.0000 0.69160  0.32845  0.63790  Biso   1.000  O
  O54      1.0000 0.36210  0.69160  0.67155  Biso   1.000  O
  O55      1.0000 0.36210  0.32845  0.69160  Biso   1.000  O
  O56      1.0000 0.63790  0.67155  0.69160  Biso   1.000  O
  O57      1.0000 0.67155  0.30840  0.36210  Biso   1.000  O
  O58      1.0000 0.67155  0.69160  0.63790  Biso   1.000  O
  O59      1.0000 0.30840  0.63790  0.32845  Biso   1.000  O
  O60      1.0000 0.69160  0.63790  0.67155  Biso   1.000  O
  O61      1.0000 0.70264  0.93951  0.79810  Biso   1.000  O
  O62      1.0000 0.06049  0.70264  0.79810  Biso   1.000  O
  O63      1.0000 0.29736  0.06049  0.79810  Biso   1.000  O
  O64      1.0000 0.93951  0.29736  0.79810  Biso   1.000  O
  O65      1.0000 0.70264  0.20190  0.93951  Biso   1.000  O
  O66      1.0000 0.70264  0.06049  0.20190  Biso   1.000  O
  O67      1.0000 0.70264  0.79810  0.06049  Biso   1.000  O
  O68      1.0000 0.79810  0.93951  0.29736  Biso   1.000  O
  O69      1.0000 0.29736  0.93951  0.20190  Biso   1.000  O
  O70      1.0000 0.20190  0.93951  0.70264  Biso   1.000  O
  O71      1.0000 0.79810  0.70264  0.93951  Biso   1.000  O
  O72      1.0000 0.93951  0.79810  0.70264  Biso   1.000  O
  O73      1.0000 0.06049  0.20190  0.70264  Biso   1.000  O
  O74      1.0000 0.79810  0.29736  0.06049  Biso   1.000  O
  O75      1.0000 0.06049  0.79810  0.29736  Biso   1.000  O
  O76      1.0000 0.20190  0.29736  0.93951  Biso   1.000  O
  O77      1.0000 0.20190  0.70264  0.06049  Biso   1.000  O
  O78      1.0000 0.93951  0.20190  0.29736  Biso   1.000  O
  O79      1.0000 0.93951  0.70264  0.20190  Biso   1.000  O
  O80      1.0000 0.06049  0.29736  0.20190  Biso   1.000  O
  O81      1.0000 0.29736  0.79810  0.93951  Biso   1.000  O
  O82      1.0000 0.29736  0.20190  0.06049  Biso   1.000  O
  O83      1.0000 0.79810  0.06049  0.70264  Biso   1.000  O
  O84      1.0000 0.20190  0.06049  0.29736  Biso   1.000  O
  O85      1.0000 0.20264  0.43951  0.29810  Biso   1.000  O
  O86      1.0000 0.56049  0.20264  0.29810  Biso   1.000  O
  O87      1.0000 0.79736  0.56049  0.29810  Biso   1.000  O
  O88      1.0000 0.43951  0.79736  0.29810  Biso   1.000  O
  O89      1.0000 0.20264  0.70190  0.43951  Biso   1.000  O
  O90      1.0000 0.20264  0.56049  0.70190  Biso   1.000  O
  O91      1.0000 0.20264  0.29810  0.56049  Biso   1.000  O
  O92      1.0000 0.29810  0.43951  0.79736  Biso   1.000  O
  O93      1.0000 0.79736  0.43951  0.70190  Biso   1.000  O
  O94      1.0000 0.70190  0.43951  0.20264  Biso   1.000  O
  O95      1.0000 0.29810  0.20264  0.43951  Biso   1.000  O
  O96      1.0000 0.43951  0.29810  0.20264  Biso   1.000  O
  O97      1.0000 0.56049  0.70190  0.20264  Biso   1.000  O
  O98      1.0000 0.29810  0.79736  0.56049  Biso   1.000  O
  O99      1.0000 0.56049  0.29810  0.79736  Biso   1.000  O
  O100     1.0000 0.70190  0.79736  0.43951  Biso   1.000  O
  O101     1.0000 0.70190  0.20264  0.56049  Biso   1.000  O
  O102     1.0000 0.43951  0.70190  0.79736  Biso   1.000  O
  O103     1.0000 0.43951  0.20264  0.70190  Biso   1.000  O
  O104     1.0000 0.56049  0.79736  0.70190  Biso   1.000  O
  O105     1.0000 0.79736  0.29810  0.43951  Biso   1.000  O
  O106     1.0000 0.79736  0.70190  0.56049  Biso   1.000  O
  O107     1.0000 0.29810  0.56049  0.20264  Biso   1.000  O
  O108     1.0000 0.70190  0.56049  0.79736  Biso   1.000  O
  N65      1.0000 0.75833  0.97114  0.94523  Biso   1.000  N
  N66      1.0000 0.02886  0.75833  0.94523  Biso   1.000  N
  N67      1.0000 0.24167  0.02886  0.94523  Biso   1.000  N
  N68      1.0000 0.97114  0.24167  0.94523  Biso   1.000  N
  N69      1.0000 0.75833  0.05477  0.97114  Biso   1.000  N
  N70      1.0000 0.75833  0.02886  0.05477  Biso   1.000  N
  N71      1.0000 0.75833  0.94523  0.02886  Biso   1.000  N
  N72      1.0000 0.94523  0.97114  0.24167  Biso   1.000  N
  N73      1.0000 0.24167  0.97114  0.05477  Biso   1.000  N
  N74      1.0000 0.05477  0.97114  0.75833  Biso   1.000  N
  N75      1.0000 0.94523  0.75833  0.97114  Biso   1.000  N
  N76      1.0000 0.97114  0.94523  0.75833  Biso   1.000  N
  N77      1.0000 0.02886  0.05477  0.75833  Biso   1.000  N
  N78      1.0000 0.94523  0.24167  0.02886  Biso   1.000  N
  N79      1.0000 0.02886  0.94523  0.24167  Biso   1.000  N
  N80      1.0000 0.05477  0.24167  0.97114  Biso   1.000  N
  N81      1.0000 0.05477  0.75833  0.02886  Biso   1.000  N
  N82      1.0000 0.97114  0.05477  0.24167  Biso   1.000  N
  N83      1.0000 0.97114  0.75833  0.05477  Biso   1.000  N
  N84      1.0000 0.02886  0.24167  0.05477  Biso   1.000  N
  N85      1.0000 0.24167  0.94523  0.97114  Biso   1.000  N
  N86      1.0000 0.24167  0.05477  0.02886  Biso   1.000  N
  N87      1.0000 0.94523  0.02886  0.75833  Biso   1.000  N
  N88      1.0000 0.05477  0.02886  0.24167  Biso   1.000  N
  N89      1.0000 0.25833  0.47114  0.44523  Biso   1.000  N
  N90      1.0000 0.52886  0.25833  0.44523  Biso   1.000  N
  N91      1.0000 0.74167  0.52886  0.44523  Biso   1.000  N
  N92      1.0000 0.47114  0.74167  0.44523  Biso   1.000  N
  N93      1.0000 0.25833  0.55477  0.47114  Biso   1.000  N
  N94      1.0000 0.25833  0.52886  0.55477  Biso   1.000  N
  N95      1.0000 0.25833  0.44523  0.52886  Biso   1.000  N
  N96      1.0000 0.44523  0.47114  0.74167  Biso   1.000  N
  N97      1.0000 0.74167  0.47114  0.55477  Biso   1.000  N
  N98      1.0000 0.55477  0.47114  0.25833  Biso   1.000  N
  N99      1.0000 0.44523  0.25833  0.47114  Biso   1.000  N
  N100     1.0000 0.47114  0.44523  0.25833  Biso   1.000  N
  N101     1.0000 0.52886  0.55477  0.25833  Biso   1.000  N
  N102     1.0000 0.44523  0.74167  0.52886  Biso   1.000  N
  N103     1.0000 0.52886  0.44523  0.74167  Biso   1.000  N
  N104     1.0000 0.55477  0.74167  0.47114  Biso   1.000  N
  N105     1.0000 0.55477  0.25833  0.52886  Biso   1.000  N
  N106     1.0000 0.47114  0.55477  0.74167  Biso   1.000  N
  N107     1.0000 0.47114  0.25833  0.55477  Biso   1.000  N
  N108     1.0000 0.52886  0.74167  0.55477  Biso   1.000  N
  N109     1.0000 0.74167  0.44523  0.47114  Biso   1.000  N
  N110     1.0000 0.74167  0.55477  0.52886  Biso   1.000  N
  N111     1.0000 0.44523  0.52886  0.25833  Biso   1.000  N
  N112     1.0000 0.55477  0.52886  0.74167  Biso   1.000  N
  C1       1.0000 0.78662  0.92334  0.89733  Biso   1.000  C
  C2       1.0000 0.07666  0.78662  0.89733  Biso   1.000  C
  C3       1.0000 0.21338  0.07666  0.89733  Biso   1.000  C
  C4       1.0000 0.92334  0.21338  0.89733  Biso   1.000  C
  C5       1.0000 0.78662  0.10267  0.92334  Biso   1.000  C
  C6       1.0000 0.78662  0.07666  0.10267  Biso   1.000  C
  C7       1.0000 0.78662  0.89733  0.07666  Biso   1.000  C
  C8       1.0000 0.89733  0.92334  0.21338  Biso   1.000  C
  C9       1.0000 0.21338  0.92334  0.10267  Biso   1.000  C
  C10      1.0000 0.10267  0.92334  0.78662  Biso   1.000  C
  C11      1.0000 0.89733  0.78662  0.92334  Biso   1.000  C
  C12      1.0000 0.92334  0.89733  0.78662  Biso   1.000  C
  C13      1.0000 0.07666  0.10267  0.78662  Biso   1.000  C
  C14      1.0000 0.89733  0.21338  0.07666  Biso   1.000  C
  C15      1.0000 0.07666  0.89733  0.21338  Biso   1.000  C
  C16      1.0000 0.10267  0.21338  0.92334  Biso   1.000  C
  C17      1.0000 0.10267  0.78662  0.07666  Biso   1.000  C
  C18      1.0000 0.92334  0.10267  0.21338  Biso   1.000  C
  C19      1.0000 0.92334  0.78662  0.10267  Biso   1.000  C
  C20      1.0000 0.07666  0.21338  0.10267  Biso   1.000  C
  C21      1.0000 0.21338  0.89733  0.92334  Biso   1.000  C
  C22      1.0000 0.21338  0.10267  0.07666  Biso   1.000  C
  C23      1.0000 0.89733  0.07666  0.78662  Biso   1.000  C
  C24      1.0000 0.10267  0.07666  0.21338  Biso   1.000  C
  C25      1.0000 0.28662  0.42334  0.39733  Biso   1.000  C
  C26      1.0000 0.57666  0.28662  0.39733  Biso   1.000  C
  C27      1.0000 0.71338  0.57666  0.39733  Biso   1.000  C
  C28      1.0000 0.42334  0.71338  0.39733  Biso   1.000  C
  C29      1.0000 0.28662  0.60267  0.42334  Biso   1.000  C
  C30      1.0000 0.28662  0.57666  0.60267  Biso   1.000  C
  C31      1.0000 0.28662  0.39733  0.57666  Biso   1.000  C
  C32      1.0000 0.39733  0.42334  0.71338  Biso   1.000  C
  C33      1.0000 0.71338  0.42334  0.60267  Biso   1.000  C
  C34      1.0000 0.60267  0.42334  0.28662  Biso   1.000  C
  C35      1.0000 0.39733  0.28662  0.42334  Biso   1.000  C
  C36      1.0000 0.42334  0.39733  0.28662  Biso   1.000  C
  C37      1.0000 0.57666  0.60267  0.28662  Biso   1.000  C
  C38      1.0000 0.39733  0.71338  0.57666  Biso   1.000  C
  C39      1.0000 0.57666  0.39733  0.71338  Biso   1.000  C
  C40      1.0000 0.60267  0.71338  0.42334  Biso   1.000  C
  C41      1.0000 0.60267  0.28662  0.57666  Biso   1.000  C
  C42      1.0000 0.42334  0.60267  0.71338  Biso   1.000  C
  C43      1.0000 0.42334  0.28662  0.60267  Biso   1.000  C
  C44      1.0000 0.57666  0.71338  0.60267  Biso   1.000  C
  C45      1.0000 0.71338  0.39733  0.42334  Biso   1.000  C
  C46      1.0000 0.71338  0.60267  0.57666  Biso   1.000  C
  C47      1.0000 0.39733  0.57666  0.28662  Biso   1.000  C
  C48      1.0000 0.60267  0.57666  0.71338  Biso   1.000  C
  H1       1.0000 0.80810  0.90460  0.89060  Biso   1.000  H
  H2       1.0000 0.09540  0.80810  0.89060  Biso   1.000  H
  H3       1.0000 0.19190  0.09540  0.89060  Biso   1.000  H
  H4       1.0000 0.90460  0.19190  0.89060  Biso   1.000  H
  H5       1.0000 0.80810  0.10940  0.90460  Biso   1.000  H
  H6       1.0000 0.80810  0.09540  0.10940  Biso   1.000  H
  H7       1.0000 0.80810  0.89060  0.09540  Biso   1.000  H
  H8       1.0000 0.89060  0.90460  0.19190  Biso   1.000  H
  H9       1.0000 0.19190  0.90460  0.10940  Biso   1.000  H
  H10      1.0000 0.10940  0.90460  0.80810  Biso   1.000  H
  H11      1.0000 0.89060  0.80810  0.90460  Biso   1.000  H
  H12      1.0000 0.90460  0.89060  0.80810  Biso   1.000  H
  H13      1.0000 0.09540  0.10940  0.80810  Biso   1.000  H
  H14      1.0000 0.89060  0.19190  0.09540  Biso   1.000  H
  H15      1.0000 0.09540  0.89060  0.19190  Biso   1.000  H
  H16      1.0000 0.10940  0.19190  0.90460  Biso   1.000  H
  H17      1.0000 0.10940  0.80810  0.09540  Biso   1.000  H
  H18      1.0000 0.90460  0.10940  0.19190  Biso   1.000  H
  H19      1.0000 0.90460  0.80810  0.10940  Biso   1.000  H
  H20      1.0000 0.09540  0.19190  0.10940  Biso   1.000  H
  H21      1.0000 0.19190  0.89060  0.90460  Biso   1.000  H
  H22      1.0000 0.19190  0.10940  0.09540  Biso   1.000  H
  H23      1.0000 0.89060  0.09540  0.80810  Biso   1.000  H
  H24      1.0000 0.10940  0.09540  0.19190  Biso   1.000  H
  H25      1.0000 0.30810  0.40460  0.39060  Biso   1.000  H
  H26      1.0000 0.59540  0.30810  0.39060  Biso   1.000  H
  H27      1.0000 0.69190  0.59540  0.39060  Biso   1.000  H
  H28      1.0000 0.40460  0.69190  0.39060  Biso   1.000  H
  H29      1.0000 0.30810  0.60940  0.40460  Biso   1.000  H
  H30      1.0000 0.30810  0.59540  0.60940  Biso   1.000  H
  H31      1.0000 0.30810  0.39060  0.59540  Biso   1.000  H
  H32      1.0000 0.39060  0.40460  0.69190  Biso   1.000  H
  H33      1.0000 0.69190  0.40460  0.60940  Biso   1.000  H
  H34      1.0000 0.60940  0.40460  0.30810  Biso   1.000  H
  H35      1.0000 0.39060  0.30810  0.40460  Biso   1.000  H
  H36      1.0000 0.40460  0.39060  0.30810  Biso   1.000  H
  H37      1.0000 0.59540  0.60940  0.30810  Biso   1.000  H
  H38      1.0000 0.39060  0.69190  0.59540  Biso   1.000  H
  H39      1.0000 0.59540  0.39060  0.69190  Biso   1.000  H
  H40      1.0000 0.60940  0.69190  0.40460  Biso   1.000  H
  H41      1.0000 0.60940  0.30810  0.59540  Biso   1.000  H
  H42      1.0000 0.40460  0.60940  0.69190  Biso   1.000  H
  H43      1.0000 0.40460  0.30810  0.60940  Biso   1.000  H
  H44      1.0000 0.59540  0.69190  0.60940  Biso   1.000  H
  H45      1.0000 0.69190  0.39060  0.40460  Biso   1.000  H
  H46      1.0000 0.69190  0.60940  0.59540  Biso   1.000  H
  H47      1.0000 0.39060  0.59540  0.30810  Biso   1.000  H
  H48      1.0000 0.60940  0.59540  0.69190  Biso   1.000  H
  N113     1.0000 0.75436  0.90800  0.83345  Biso   1.000  N
  N114     1.0000 0.09200  0.75436  0.83345  Biso   1.000  N
  N115     1.0000 0.24564  0.09200  0.83345  Biso   1.000  N
  N116     1.0000 0.90800  0.24564  0.83345  Biso   1.000  N
  N117     1.0000 0.75436  0.16655  0.90800  Biso   1.000  N
  N118     1.0000 0.75436  0.09200  0.16655  Biso   1.000  N
  N119     1.0000 0.75436  0.83345  0.09200  Biso   1.000  N
  N120     1.0000 0.83345  0.90800  0.24564  Biso   1.000  N
  N121     1.0000 0.24564  0.90800  0.16655  Biso   1.000  N
  N122     1.0000 0.16655  0.90800  0.75436  Biso   1.000  N
  N123     1.0000 0.83345  0.75436  0.90800  Biso   1.000  N
  N124     1.0000 0.90800  0.83345  0.75436  Biso   1.000  N
  N125     1.0000 0.09200  0.16655  0.75436  Biso   1.000  N
  N126     1.0000 0.83345  0.24564  0.09200  Biso   1.000  N
  N127     1.0000 0.09200  0.83345  0.24564  Biso   1.000  N
  N128     1.0000 0.16655  0.24564  0.90800  Biso   1.000  N
  N129     1.0000 0.16655  0.75436  0.09200  Biso   1.000  N
  N130     1.0000 0.90800  0.16655  0.24564  Biso   1.000  N
  N131     1.0000 0.90800  0.75436  0.16655  Biso   1.000  N
  N132     1.0000 0.09200  0.24564  0.16655  Biso   1.000  N
  N133     1.0000 0.24564  0.83345  0.90800  Biso   1.000  N
  N134     1.0000 0.24564  0.16655  0.09200  Biso   1.000  N
  N135     1.0000 0.83345  0.09200  0.75436  Biso   1.000  N
  N136     1.0000 0.16655  0.09200  0.24564  Biso   1.000  N
  N137     1.0000 0.25436  0.40800  0.33345  Biso   1.000  N
  N138     1.0000 0.59200  0.25436  0.33345  Biso   1.000  N
  N139     1.0000 0.74564  0.59200  0.33345  Biso   1.000  N
  N140     1.0000 0.40800  0.74564  0.33345  Biso   1.000  N
  N141     1.0000 0.25436  0.66655  0.40800  Biso   1.000  N
  N142     1.0000 0.25436  0.59200  0.66655  Biso   1.000  N
  N143     1.0000 0.25436  0.33345  0.59200  Biso   1.000  N
  N144     1.0000 0.33345  0.40800  0.74564  Biso   1.000  N
  N145     1.0000 0.74564  0.40800  0.66655  Biso   1.000  N
  N146     1.0000 0.66655  0.40800  0.25436  Biso   1.000  N
  N147     1.0000 0.33345  0.25436  0.40800  Biso   1.000  N
  N148     1.0000 0.40800  0.33345  0.25436  Biso   1.000  N
  N149     1.0000 0.59200  0.66655  0.25436  Biso   1.000  N
  N150     1.0000 0.33345  0.74564  0.59200  Biso   1.000  N
  N151     1.0000 0.59200  0.33345  0.74564  Biso   1.000  N
  N152     1.0000 0.66655  0.74564  0.40800  Biso   1.000  N
  N153     1.0000 0.66655  0.25436  0.59200  Biso   1.000  N
  N154     1.0000 0.40800  0.66655  0.74564  Biso   1.000  N
  N155     1.0000 0.40800  0.25436  0.66655  Biso   1.000  N
  N156     1.0000 0.59200  0.74564  0.66655  Biso   1.000  N
  N157     1.0000 0.74564  0.33345  0.40800  Biso   1.000  N
  N158     1.0000 0.74564  0.66655  0.59200  Biso   1.000  N
  N159     1.0000 0.33345  0.59200  0.25436  Biso   1.000  N
  N160     1.0000 0.66655  0.59200  0.74564  Biso   1.000  N
  H49      1.0000 0.77320  0.88870  0.83080  Biso   1.000  H
  H50      1.0000 0.11130  0.77320  0.83080  Biso   1.000  H
  H51      1.0000 0.22680  0.11130  0.83080  Biso   1.000  H
  H52      1.0000 0.88870  0.22680  0.83080  Biso   1.000  H
  H53      1.0000 0.77320  0.16920  0.88870  Biso   1.000  H
  H54      1.0000 0.77320  0.11130  0.16920  Biso   1.000  H
  H55      1.0000 0.77320  0.83080  0.11130  Biso   1.000  H
  H56      1.0000 0.83080  0.88870  0.22680  Biso   1.000  H
  H57      1.0000 0.22680  0.88870  0.16920  Biso   1.000  H
  H58      1.0000 0.16920  0.88870  0.77320  Biso   1.000  H
  H59      1.0000 0.83080  0.77320  0.88870  Biso   1.000  H
  H60      1.0000 0.88870  0.83080  0.77320  Biso   1.000  H
  H61      1.0000 0.11130  0.16920  0.77320  Biso   1.000  H
  H62      1.0000 0.83080  0.22680  0.11130  Biso   1.000  H
  H63      1.0000 0.11130  0.83080  0.22680  Biso   1.000  H
  H64      1.0000 0.16920  0.22680  0.88870  Biso   1.000  H
  H65      1.0000 0.16920  0.77320  0.11130  Biso   1.000  H
  H66      1.0000 0.88870  0.16920  0.22680  Biso   1.000  H
  H67      1.0000 0.88870  0.77320  0.16920  Biso   1.000  H
  H68      1.0000 0.11130  0.22680  0.16920  Biso   1.000  H
  H69      1.0000 0.22680  0.83080  0.88870  Biso   1.000  H
  H70      1.0000 0.22680  0.16920  0.11130  Biso   1.000  H
  H71      1.0000 0.83080  0.11130  0.77320  Biso   1.000  H
  H72      1.0000 0.16920  0.11130  0.22680  Biso   1.000  H
  H73      1.0000 0.27320  0.38870  0.33080  Biso   1.000  H
  H74      1.0000 0.61130  0.27320  0.33080  Biso   1.000  H
  H75      1.0000 0.72680  0.61130  0.33080  Biso   1.000  H
  H76      1.0000 0.38870  0.72680  0.33080  Biso   1.000  H
  H77      1.0000 0.27320  0.66920  0.38870  Biso   1.000  H
  H78      1.0000 0.27320  0.61130  0.66920  Biso   1.000  H
  H79      1.0000 0.27320  0.33080  0.61130  Biso   1.000  H
  H80      1.0000 0.33080  0.38870  0.72680  Biso   1.000  H
  H81      1.0000 0.72680  0.38870  0.66920  Biso   1.000  H
  H82      1.0000 0.66920  0.38870  0.27320  Biso   1.000  H
  H83      1.0000 0.33080  0.27320  0.38870  Biso   1.000  H
  H84      1.0000 0.38870  0.33080  0.27320  Biso   1.000  H
  H85      1.0000 0.61130  0.66920  0.27320  Biso   1.000  H
  H86      1.0000 0.33080  0.72680  0.61130  Biso   1.000  H
  H87      1.0000 0.61130  0.33080  0.72680  Biso   1.000  H
  H88      1.0000 0.66920  0.72680  0.38870  Biso   1.000  H
  H89      1.0000 0.66920  0.27320  0.61130  Biso   1.000  H
  H90      1.0000 0.38870  0.66920  0.72680  Biso   1.000  H
  H91      1.0000 0.38870  0.27320  0.66920  Biso   1.000  H
  H92      1.0000 0.61130  0.72680  0.66920  Biso   1.000  H
  H93      1.0000 0.72680  0.33080  0.38870  Biso   1.000  H
  H94      1.0000 0.72680  0.66920  0.61130  Biso   1.000  H
  H95      1.0000 0.33080  0.61130  0.27320  Biso   1.000  H
  H96      1.0000 0.66920  0.61130  0.72680  Biso   1.000  H
  C49      1.0000 0.78759  0.94395  0.93427  Biso   1.000  C
  C50      1.0000 0.05605  0.78759  0.93427  Biso   1.000  C
  C51      1.0000 0.21241  0.05605  0.93427  Biso   1.000  C
  C52      1.0000 0.94395  0.21241  0.93427  Biso   1.000  C
  C53      1.0000 0.78759  0.06573  0.94395  Biso   1.000  C
  C54      1.0000 0.78759  0.05605  0.06573  Biso   1.000  C
  C55      1.0000 0.78759  0.93427  0.05605  Biso   1.000  C
  C56      1.0000 0.93427  0.94395  0.21241  Biso   1.000  C
  C57      1.0000 0.21241  0.94395  0.06573  Biso   1.000  C
  C58      1.0000 0.06573  0.94395  0.78759  Biso   1.000  C
  C59      1.0000 0.93427  0.78759  0.94395  Biso   1.000  C
  C60      1.0000 0.94395  0.93427  0.78759  Biso   1.000  C
  C61      1.0000 0.05605  0.06573  0.78759  Biso   1.000  C
  C62      1.0000 0.93427  0.21241  0.05605  Biso   1.000  C
  C63      1.0000 0.05605  0.93427  0.21241  Biso   1.000  C
  C64      1.0000 0.06573  0.21241  0.94395  Biso   1.000  C
  C65      1.0000 0.06573  0.78759  0.05605  Biso   1.000  C
  C66      1.0000 0.94395  0.06573  0.21241  Biso   1.000  C
  C67      1.0000 0.94395  0.78759  0.06573  Biso   1.000  C
  C68      1.0000 0.05605  0.21241  0.06573  Biso   1.000  C
  C69      1.0000 0.21241  0.93427  0.94395  Biso   1.000  C
  C70      1.0000 0.21241  0.06573  0.05605  Biso   1.000  C
  C71      1.0000 0.93427  0.05605  0.78759  Biso   1.000  C
  C72      1.0000 0.06573  0.05605  0.21241  Biso   1.000  C
  C73      1.0000 0.28759  0.44395  0.43427  Biso   1.000  C
  C74      1.0000 0.55605  0.28759  0.43427  Biso   1.000  C
  C75      1.0000 0.71241  0.55605  0.43427  Biso   1.000  C
  C76      1.0000 0.44395  0.71241  0.43427  Biso   1.000  C
  C77      1.0000 0.28759  0.56573  0.44395  Biso   1.000  C
  C78      1.0000 0.28759  0.55605  0.56573  Biso   1.000  C
  C79      1.0000 0.28759  0.43427  0.55605  Biso   1.000  C
  C80      1.0000 0.43427  0.44395  0.71241  Biso   1.000  C
  C81      1.0000 0.71241  0.44395  0.56573  Biso   1.000  C
  C82      1.0000 0.56573  0.44395  0.28759  Biso   1.000  C
  C83      1.0000 0.43427  0.28759  0.44395  Biso   1.000  C
  C84      1.0000 0.44395  0.43427  0.28759  Biso   1.000  C
  C85      1.0000 0.55605  0.56573  0.28759  Biso   1.000  C
  C86      1.0000 0.43427  0.71241  0.55605  Biso   1.000  C
  C87      1.0000 0.55605  0.43427  0.71241  Biso   1.000  C
  C88      1.0000 0.56573  0.71241  0.44395  Biso   1.000  C
  C89      1.0000 0.56573  0.28759  0.55605  Biso   1.000  C
  C90      1.0000 0.44395  0.56573  0.71241  Biso   1.000  C
  C91      1.0000 0.44395  0.28759  0.56573  Biso   1.000  C
  C92      1.0000 0.55605  0.71241  0.56573  Biso   1.000  C
  C93      1.0000 0.71241  0.43427  0.44395  Biso   1.000  C
  C94      1.0000 0.71241  0.56573  0.55605  Biso   1.000  C
  C95      1.0000 0.43427  0.55605  0.28759  Biso   1.000  C
  C96      1.0000 0.56573  0.55605  0.71241  Biso   1.000  C
  H97      1.0000 0.80970  0.93880  0.95270  Biso   1.000  H
  H98      1.0000 0.06120  0.80970  0.95270  Biso   1.000  H
  H99      1.0000 0.19030  0.06120  0.95270  Biso   1.000  H
  H100     1.0000 0.93880  0.19030  0.95270  Biso   1.000  H
  H101     1.0000 0.80970  0.04730  0.93880  Biso   1.000  H
  H102     1.0000 0.80970  0.06120  0.04730  Biso   1.000  H
  H103     1.0000 0.80970  0.95270  0.06120  Biso   1.000  H
  H104     1.0000 0.95270  0.93880  0.19030  Biso   1.000  H
  H105     1.0000 0.19030  0.93880  0.04730  Biso   1.000  H
  H106     1.0000 0.04730  0.93880  0.80970  Biso   1.000  H
  H107     1.0000 0.95270  0.80970  0.93880  Biso   1.000  H
  H108     1.0000 0.93880  0.95270  0.80970  Biso   1.000  H
  H109     1.0000 0.06120  0.04730  0.80970  Biso   1.000  H
  H110     1.0000 0.95270  0.19030  0.06120  Biso   1.000  H
  H111     1.0000 0.06120  0.95270  0.19030  Biso   1.000  H
  H112     1.0000 0.04730  0.19030  0.93880  Biso   1.000  H
  H113     1.0000 0.04730  0.80970  0.06120  Biso   1.000  H
  H114     1.0000 0.93880  0.04730  0.19030  Biso   1.000  H
  H115     1.0000 0.93880  0.80970  0.04730  Biso   1.000  H
  H116     1.0000 0.06120  0.19030  0.04730  Biso   1.000  H
  H117     1.0000 0.19030  0.95270  0.93880  Biso   1.000  H
  H118     1.0000 0.19030  0.04730  0.06120  Biso   1.000  H
  H119     1.0000 0.95270  0.06120  0.80970  Biso   1.000  H
  H120     1.0000 0.04730  0.06120  0.19030  Biso   1.000  H
  H121     1.0000 0.30970  0.43880  0.45270  Biso   1.000  H
  H122     1.0000 0.56120  0.30970  0.45270  Biso   1.000  H
  H123     1.0000 0.69030  0.56120  0.45270  Biso   1.000  H
  H124     1.0000 0.43880  0.69030  0.45270  Biso   1.000  H
  H125     1.0000 0.30970  0.54730  0.43880  Biso   1.000  H
  H126     1.0000 0.30970  0.56120  0.54730  Biso   1.000  H
  H127     1.0000 0.30970  0.45270  0.56120  Biso   1.000  H
  H128     1.0000 0.45270  0.43880  0.69030  Biso   1.000  H
  H129     1.0000 0.69030  0.43880  0.54730  Biso   1.000  H
  H130     1.0000 0.54730  0.43880  0.30970  Biso   1.000  H
  H131     1.0000 0.45270  0.30970  0.43880  Biso   1.000  H
  H132     1.0000 0.43880  0.45270  0.30970  Biso   1.000  H
  H133     1.0000 0.56120  0.54730  0.30970  Biso   1.000  H
  H134     1.0000 0.45270  0.69030  0.56120  Biso   1.000  H
  H135     1.0000 0.56120  0.45270  0.69030  Biso   1.000  H
  H136     1.0000 0.54730  0.69030  0.43880  Biso   1.000  H
  H137     1.0000 0.54730  0.30970  0.56120  Biso   1.000  H
  H138     1.0000 0.43880  0.54730  0.69030  Biso   1.000  H
  H139     1.0000 0.43880  0.30970  0.54730  Biso   1.000  H
  H140     1.0000 0.56120  0.69030  0.54730  Biso   1.000  H
  H141     1.0000 0.69030  0.45270  0.43880  Biso   1.000  H
  H142     1.0000 0.69030  0.54730  0.56120  Biso   1.000  H
  H143     1.0000 0.45270  0.56120  0.30970  Biso   1.000  H
  H144     1.0000 0.54730  0.56120  0.69030  Biso   1.000  H
  C97      1.0000 0.73187  0.89613  0.72565  Biso   1.000  C
  C98      1.0000 0.10387  0.73187  0.72565  Biso   1.000  C
  C99      1.0000 0.26813  0.10387  0.72565  Biso   1.000  C
  C100     1.0000 0.89613  0.26813  0.72565  Biso   1.000  C
  C101     1.0000 0.73187  0.27435  0.89613  Biso   1.000  C
  C102     1.0000 0.73187  0.10387  0.27435  Biso   1.000  C
  C103     1.0000 0.73187  0.72565  0.10387  Biso   1.000  C
  C104     1.0000 0.72565  0.89613  0.26813  Biso   1.000  C
  C105     1.0000 0.26813  0.89613  0.27435  Biso   1.000  C
  C106     1.0000 0.27435  0.89613  0.73187  Biso   1.000  C
  C107     1.0000 0.72565  0.73187  0.89613  Biso   1.000  C
  C108     1.0000 0.89613  0.72565  0.73187  Biso   1.000  C
  C109     1.0000 0.10387  0.27435  0.73187  Biso   1.000  C
  C110     1.0000 0.72565  0.26813  0.10387  Biso   1.000  C
  C111     1.0000 0.10387  0.72565  0.26813  Biso   1.000  C
  C112     1.0000 0.27435  0.26813  0.89613  Biso   1.000  C
  C113     1.0000 0.27435  0.73187  0.10387  Biso   1.000  C
  C114     1.0000 0.89613  0.27435  0.26813  Biso   1.000  C
  C115     1.0000 0.89613  0.73187  0.27435  Biso   1.000  C
  C116     1.0000 0.10387  0.26813  0.27435  Biso   1.000  C
  C117     1.0000 0.26813  0.72565  0.89613  Biso   1.000  C
  C118     1.0000 0.26813  0.27435  0.10387  Biso   1.000  C
  C119     1.0000 0.72565  0.10387  0.73187  Biso   1.000  C
  C120     1.0000 0.27435  0.10387  0.26813  Biso   1.000  C
  C121     1.0000 0.23187  0.39613  0.22565  Biso   1.000  C
  C122     1.0000 0.60387  0.23187  0.22565  Biso   1.000  C
  C123     1.0000 0.76813  0.60387  0.22565  Biso   1.000  C
  C124     1.0000 0.39613  0.76813  0.22565  Biso   1.000  C
  C125     1.0000 0.23187  0.77435  0.39613  Biso   1.000  C
  C126     1.0000 0.23187  0.60387  0.77435  Biso   1.000  C
  C127     1.0000 0.23187  0.22565  0.60387  Biso   1.000  C
  C128     1.0000 0.22565  0.39613  0.76813  Biso   1.000  C
  C129     1.0000 0.76813  0.39613  0.77435  Biso   1.000  C
  C130     1.0000 0.77435  0.39613  0.23187  Biso   1.000  C
  C131     1.0000 0.22565  0.23187  0.39613  Biso   1.000  C
  C132     1.0000 0.39613  0.22565  0.23187  Biso   1.000  C
  C133     1.0000 0.60387  0.77435  0.23187  Biso   1.000  C
  C134     1.0000 0.22565  0.76813  0.60387  Biso   1.000  C
  C135     1.0000 0.60387  0.22565  0.76813  Biso   1.000  C
  C136     1.0000 0.77435  0.76813  0.39613  Biso   1.000  C
  C137     1.0000 0.77435  0.23187  0.60387  Biso   1.000  C
  C138     1.0000 0.39613  0.77435  0.76813  Biso   1.000  C
  C139     1.0000 0.39613  0.23187  0.77435  Biso   1.000  C
  C140     1.0000 0.60387  0.76813  0.77435  Biso   1.000  C
  C141     1.0000 0.76813  0.22565  0.39613  Biso   1.000  C
  C142     1.0000 0.76813  0.77435  0.60387  Biso   1.000  C
  C143     1.0000 0.22565  0.60387  0.23187  Biso   1.000  C
  C144     1.0000 0.77435  0.60387  0.76813  Biso   1.000  C
  H145     1.0000 0.72450  0.92380  0.71980  Biso   1.000  H
  H146     1.0000 0.07620  0.72450  0.71980  Biso   1.000  H
  H147     1.0000 0.27550  0.07620  0.71980  Biso   1.000  H
  H148     1.0000 0.92380  0.27550  0.71980  Biso   1.000  H
  H149     1.0000 0.72450  0.28020  0.92380  Biso   1.000  H
  H150     1.0000 0.72450  0.07620  0.28020  Biso   1.000  H
  H151     1.0000 0.72450  0.71980  0.07620  Biso   1.000  H
  H152     1.0000 0.71980  0.92380  0.27550  Biso   1.000  H
  H153     1.0000 0.27550  0.92380  0.28020  Biso   1.000  H
  H154     1.0000 0.28020  0.92380  0.72450  Biso   1.000  H
  H155     1.0000 0.71980  0.72450  0.92380  Biso   1.000  H
  H156     1.0000 0.92380  0.71980  0.72450  Biso   1.000  H
  H157     1.0000 0.07620  0.28020  0.72450  Biso   1.000  H
  H158     1.0000 0.71980  0.27550  0.07620  Biso   1.000  H
  H159     1.0000 0.07620  0.71980  0.27550  Biso   1.000  H
  H160     1.0000 0.28020  0.27550  0.92380  Biso   1.000  H
  H161     1.0000 0.28020  0.72450  0.07620  Biso   1.000  H
  H162     1.0000 0.92380  0.28020  0.27550  Biso   1.000  H
  H163     1.0000 0.92380  0.72450  0.28020  Biso   1.000  H
  H164     1.0000 0.07620  0.27550  0.28020  Biso   1.000  H
  H165     1.0000 0.27550  0.71980  0.92380  Biso   1.000  H
  H166     1.0000 0.27550  0.28020  0.07620  Biso   1.000  H
  H167     1.0000 0.71980  0.07620  0.72450  Biso   1.000  H
  H168     1.0000 0.28020  0.07620  0.27550  Biso   1.000  H
  H169     1.0000 0.22450  0.42380  0.21980  Biso   1.000  H
  H170     1.0000 0.57620  0.22450  0.21980  Biso   1.000  H
  H171     1.0000 0.77550  0.57620  0.21980  Biso   1.000  H
  H172     1.0000 0.42380  0.77550  0.21980  Biso   1.000  H
  H173     1.0000 0.22450  0.78020  0.42380  Biso   1.000  H
  H174     1.0000 0.22450  0.57620  0.78020  Biso   1.000  H
  H175     1.0000 0.22450  0.21980  0.57620  Biso   1.000  H
  H176     1.0000 0.21980  0.42380  0.77550  Biso   1.000  H
  H177     1.0000 0.77550  0.42380  0.78020  Biso   1.000  H
  H178     1.0000 0.78020  0.42380  0.22450  Biso   1.000  H
  H179     1.0000 0.21980  0.22450  0.42380  Biso   1.000  H
  H180     1.0000 0.42380  0.21980  0.22450  Biso   1.000  H
  H181     1.0000 0.57620  0.78020  0.22450  Biso   1.000  H
  H182     1.0000 0.21980  0.77550  0.57620  Biso   1.000  H
  H183     1.0000 0.57620  0.21980  0.77550  Biso   1.000  H
  H184     1.0000 0.78020  0.77550  0.42380  Biso   1.000  H
  H185     1.0000 0.78020  0.22450  0.57620  Biso   1.000  H
  H186     1.0000 0.42380  0.78020  0.77550  Biso   1.000  H
  H187     1.0000 0.42380  0.22450  0.78020  Biso   1.000  H
  H188     1.0000 0.57620  0.77550  0.78020  Biso   1.000  H
  H189     1.0000 0.77550  0.21980  0.42380  Biso   1.000  H
  H190     1.0000 0.77550  0.78020  0.57620  Biso   1.000  H
  H191     1.0000 0.21980  0.57620  0.22450  Biso   1.000  H
  H192     1.0000 0.78020  0.57620  0.77550  Biso   1.000  H
  C145     1.0000 0.74661  0.82814  0.70349  Biso   1.000  C
  C146     1.0000 0.17186  0.74661  0.70349  Biso   1.000  C
  C147     1.0000 0.25339  0.17186  0.70349  Biso   1.000  C
  C148     1.0000 0.82814  0.25339  0.70349  Biso   1.000  C
  C149     1.0000 0.74661  0.29651  0.82814  Biso   1.000  C
  C150     1.0000 0.74661  0.17186  0.29651  Biso   1.000  C
  C151     1.0000 0.74661  0.70349  0.17186  Biso   1.000  C
  C152     1.0000 0.70349  0.82814  0.25339  Biso   1.000  C
  C153     1.0000 0.25339  0.82814  0.29651  Biso   1.000  C
  C154     1.0000 0.29651  0.82814  0.74661  Biso   1.000  C
  C155     1.0000 0.70349  0.74661  0.82814  Biso   1.000  C
  C156     1.0000 0.82814  0.70349  0.74661  Biso   1.000  C
  C157     1.0000 0.17186  0.29651  0.74661  Biso   1.000  C
  C158     1.0000 0.70349  0.25339  0.17186  Biso   1.000  C
  C159     1.0000 0.17186  0.70349  0.25339  Biso   1.000  C
  C160     1.0000 0.29651  0.25339  0.82814  Biso   1.000  C
  C161     1.0000 0.29651  0.74661  0.17186  Biso   1.000  C
  C162     1.0000 0.82814  0.29651  0.25339  Biso   1.000  C
  C163     1.0000 0.82814  0.74661  0.29651  Biso   1.000  C
  C164     1.0000 0.17186  0.25339  0.29651  Biso   1.000  C
  C165     1.0000 0.25339  0.70349  0.82814  Biso   1.000  C
  C166     1.0000 0.25339  0.29651  0.17186  Biso   1.000  C
  C167     1.0000 0.70349  0.17186  0.74661  Biso   1.000  C
  C168     1.0000 0.29651  0.17186  0.25339  Biso   1.000  C
  C169     1.0000 0.24661  0.32814  0.20349  Biso   1.000  C
  C170     1.0000 0.67186  0.24661  0.20349  Biso   1.000  C
  C171     1.0000 0.75339  0.67186  0.20349  Biso   1.000  C
  C172     1.0000 0.32814  0.75339  0.20349  Biso   1.000  C
  C173     1.0000 0.24661  0.79651  0.32814  Biso   1.000  C
  C174     1.0000 0.24661  0.67186  0.79651  Biso   1.000  C
  C175     1.0000 0.24661  0.20349  0.67186  Biso   1.000  C
  C176     1.0000 0.20349  0.32814  0.75339  Biso   1.000  C
  C177     1.0000 0.75339  0.32814  0.79651  Biso   1.000  C
  C178     1.0000 0.79651  0.32814  0.24661  Biso   1.000  C
  C179     1.0000 0.20349  0.24661  0.32814  Biso   1.000  C
  C180     1.0000 0.32814  0.20349  0.24661  Biso   1.000  C
  C181     1.0000 0.67186  0.79651  0.24661  Biso   1.000  C
  C182     1.0000 0.20349  0.75339  0.67186  Biso   1.000  C
  C183     1.0000 0.67186  0.20349  0.75339  Biso   1.000  C
  C184     1.0000 0.79651  0.75339  0.32814  Biso   1.000  C
  C185     1.0000 0.79651  0.24661  0.67186  Biso   1.000  C
  C186     1.0000 0.32814  0.79651  0.75339  Biso   1.000  C
  C187     1.0000 0.32814  0.24661  0.79651  Biso   1.000  C
  C188     1.0000 0.67186  0.75339  0.79651  Biso   1.000  C
  C189     1.0000 0.75339  0.20349  0.32814  Biso   1.000  C
  C190     1.0000 0.75339  0.79651  0.67186  Biso   1.000  C
  C191     1.0000 0.20349  0.67186  0.24661  Biso   1.000  C
  C192     1.0000 0.79651  0.67186  0.75339  Biso   1.000  C
  C193     1.0000 0.72391  0.95857  0.88075  Biso   1.000  C
  C194     1.0000 0.04143  0.72391  0.88075  Biso   1.000  C
  C195     1.0000 0.27609  0.04143  0.88075  Biso   1.000  C
  C196     1.0000 0.95857  0.27609  0.88075  Biso   1.000  C
  C197     1.0000 0.72391  0.11925  0.95857  Biso   1.000  C
  C198     1.0000 0.72391  0.04143  0.11925  Biso   1.000  C
  C199     1.0000 0.72391  0.88075  0.04143  Biso   1.000  C
  C200     1.0000 0.88075  0.95857  0.27609  Biso   1.000  C
  C201     1.0000 0.27609  0.95857  0.11925  Biso   1.000  C
  C202     1.0000 0.11925  0.95857  0.72391  Biso   1.000  C
  C203     1.0000 0.88075  0.72391  0.95857  Biso   1.000  C
  C204     1.0000 0.95857  0.88075  0.72391  Biso   1.000  C
  C205     1.0000 0.04143  0.11925  0.72391  Biso   1.000  C
  C206     1.0000 0.88075  0.27609  0.04143  Biso   1.000  C
  C207     1.0000 0.04143  0.88075  0.27609  Biso   1.000  C
  C208     1.0000 0.11925  0.27609  0.95857  Biso   1.000  C
  C209     1.0000 0.11925  0.72391  0.04143  Biso   1.000  C
  C210     1.0000 0.95857  0.11925  0.27609  Biso   1.000  C
  C211     1.0000 0.95857  0.72391  0.11925  Biso   1.000  C
  C212     1.0000 0.04143  0.27609  0.11925  Biso   1.000  C
  C213     1.0000 0.27609  0.88075  0.95857  Biso   1.000  C
  C214     1.0000 0.27609  0.11925  0.04143  Biso   1.000  C
  C215     1.0000 0.88075  0.04143  0.72391  Biso   1.000  C
  C216     1.0000 0.11925  0.04143  0.27609  Biso   1.000  C
  C217     1.0000 0.22391  0.45857  0.38075  Biso   1.000  C
  C218     1.0000 0.54143  0.22391  0.38075  Biso   1.000  C
  C219     1.0000 0.77609  0.54143  0.38075  Biso   1.000  C
  C220     1.0000 0.45857  0.77609  0.38075  Biso   1.000  C
  C221     1.0000 0.22391  0.61925  0.45857  Biso   1.000  C
  C222     1.0000 0.22391  0.54143  0.61925  Biso   1.000  C
  C223     1.0000 0.22391  0.38075  0.54143  Biso   1.000  C
  C224     1.0000 0.38075  0.45857  0.77609  Biso   1.000  C
  C225     1.0000 0.77609  0.45857  0.61925  Biso   1.000  C
  C226     1.0000 0.61925  0.45857  0.22391  Biso   1.000  C
  C227     1.0000 0.38075  0.22391  0.45857  Biso   1.000  C
  C228     1.0000 0.45857  0.38075  0.22391  Biso   1.000  C
  C229     1.0000 0.54143  0.61925  0.22391  Biso   1.000  C
  C230     1.0000 0.38075  0.77609  0.54143  Biso   1.000  C
  C231     1.0000 0.54143  0.38075  0.77609  Biso   1.000  C
  C232     1.0000 0.61925  0.77609  0.45857  Biso   1.000  C
  C233     1.0000 0.61925  0.22391  0.54143  Biso   1.000  C
  C234     1.0000 0.45857  0.61925  0.77609  Biso   1.000  C
  C235     1.0000 0.45857  0.22391  0.61925  Biso   1.000  C
  C236     1.0000 0.54143  0.77609  0.61925  Biso   1.000  C
  C237     1.0000 0.77609  0.38075  0.45857  Biso   1.000  C
  C238     1.0000 0.77609  0.61925  0.54143  Biso   1.000  C
  C239     1.0000 0.38075  0.54143  0.22391  Biso   1.000  C
  C240     1.0000 0.61925  0.54143  0.77609  Biso   1.000  C
  H193     1.0000 0.70150  0.96430  0.86280  Biso   1.000  H
  H194     1.0000 0.03570  0.70150  0.86280  Biso   1.000  H
  H195     1.0000 0.29850  0.03570  0.86280  Biso   1.000  H
  H196     1.0000 0.96430  0.29850  0.86280  Biso   1.000  H
  H197     1.0000 0.70150  0.13720  0.96430  Biso   1.000  H
  H198     1.0000 0.70150  0.03570  0.13720  Biso   1.000  H
  H199     1.0000 0.70150  0.86280  0.03570  Biso   1.000  H
  H200     1.0000 0.86280  0.96430  0.29850  Biso   1.000  H
  H201     1.0000 0.29850  0.96430  0.13720  Biso   1.000  H
  H202     1.0000 0.13720  0.96430  0.70150  Biso   1.000  H
  H203     1.0000 0.86280  0.70150  0.96430  Biso   1.000  H
  H204     1.0000 0.96430  0.86280  0.70150  Biso   1.000  H
  H205     1.0000 0.03570  0.13720  0.70150  Biso   1.000  H
  H206     1.0000 0.86280  0.29850  0.03570  Biso   1.000  H
  H207     1.0000 0.03570  0.86280  0.29850  Biso   1.000  H
  H208     1.0000 0.13720  0.29850  0.96430  Biso   1.000  H
  H209     1.0000 0.13720  0.70150  0.03570  Biso   1.000  H
  H210     1.0000 0.96430  0.13720  0.29850  Biso   1.000  H
  H211     1.0000 0.96430  0.70150  0.13720  Biso   1.000  H
  H212     1.0000 0.03570  0.29850  0.13720  Biso   1.000  H
  H213     1.0000 0.29850  0.86280  0.96430  Biso   1.000  H
  H214     1.0000 0.29850  0.13720  0.03570  Biso   1.000  H
  H215     1.0000 0.86280  0.03570  0.70150  Biso   1.000  H
  H216     1.0000 0.13720  0.03570  0.29850  Biso   1.000  H
  H217     1.0000 0.20150  0.46430  0.36280  Biso   1.000  H
  H218     1.0000 0.53570  0.20150  0.36280  Biso   1.000  H
  H219     1.0000 0.79850  0.53570  0.36280  Biso   1.000  H
  H220     1.0000 0.46430  0.79850  0.36280  Biso   1.000  H
  H221     1.0000 0.20150  0.63720  0.46430  Biso   1.000  H
  H222     1.0000 0.20150  0.53570  0.63720  Biso   1.000  H
  H223     1.0000 0.20150  0.36280  0.53570  Biso   1.000  H
  H224     1.0000 0.36280  0.46430  0.79850  Biso   1.000  H
  H225     1.0000 0.79850  0.46430  0.63720  Biso   1.000  H
  H226     1.0000 0.63720  0.46430  0.20150  Biso   1.000  H
  H227     1.0000 0.36280  0.20150  0.46430  Biso   1.000  H
  H228     1.0000 0.46430  0.36280  0.20150  Biso   1.000  H
  H229     1.0000 0.53570  0.63720  0.20150  Biso   1.000  H
  H230     1.0000 0.36280  0.79850  0.53570  Biso   1.000  H
  H231     1.0000 0.53570  0.36280  0.79850  Biso   1.000  H
  H232     1.0000 0.63720  0.79850  0.46430  Biso   1.000  H
  H233     1.0000 0.63720  0.20150  0.53570  Biso   1.000  H
  H234     1.0000 0.46430  0.63720  0.79850  Biso   1.000  H
  H235     1.0000 0.46430  0.20150  0.63720  Biso   1.000  H
  H236     1.0000 0.53570  0.79850  0.63720  Biso   1.000  H
  H237     1.0000 0.79850  0.36280  0.46430  Biso   1.000  H
  H238     1.0000 0.79850  0.63720  0.53570  Biso   1.000  H
  H239     1.0000 0.36280  0.53570  0.20150  Biso   1.000  H
  H240     1.0000 0.63720  0.53570  0.79850  Biso   1.000  H
  C241     1.0000 0.75440  0.92962  0.86958  Biso   1.000  C
  C242     1.0000 0.07038  0.75440  0.86958  Biso   1.000  C
  C243     1.0000 0.24560  0.07038  0.86958  Biso   1.000  C
  C244     1.0000 0.92962  0.24560  0.86958  Biso   1.000  C
  C245     1.0000 0.75440  0.13042  0.92962  Biso   1.000  C
  C246     1.0000 0.75440  0.07038  0.13042  Biso   1.000  C
  C247     1.0000 0.75440  0.86958  0.07038  Biso   1.000  C
  C248     1.0000 0.86958  0.92962  0.24560  Biso   1.000  C
  C249     1.0000 0.24560  0.92962  0.13042  Biso   1.000  C
  C250     1.0000 0.13042  0.92962  0.75440  Biso   1.000  C
  C251     1.0000 0.86958  0.75440  0.92962  Biso   1.000  C
  C252     1.0000 0.92962  0.86958  0.75440  Biso   1.000  C
  C253     1.0000 0.07038  0.13042  0.75440  Biso   1.000  C
  C254     1.0000 0.86958  0.24560  0.07038  Biso   1.000  C
  C255     1.0000 0.07038  0.86958  0.24560  Biso   1.000  C
  C256     1.0000 0.13042  0.24560  0.92962  Biso   1.000  C
  C257     1.0000 0.13042  0.75440  0.07038  Biso   1.000  C
  C258     1.0000 0.92962  0.13042  0.24560  Biso   1.000  C
  C259     1.0000 0.92962  0.75440  0.13042  Biso   1.000  C
  C260     1.0000 0.07038  0.24560  0.13042  Biso   1.000  C
  C261     1.0000 0.24560  0.86958  0.92962  Biso   1.000  C
  C262     1.0000 0.24560  0.13042  0.07038  Biso   1.000  C
  C263     1.0000 0.86958  0.07038  0.75440  Biso   1.000  C
  C264     1.0000 0.13042  0.07038  0.24560  Biso   1.000  C
  C265     1.0000 0.25440  0.42962  0.36958  Biso   1.000  C
  C266     1.0000 0.57038  0.25440  0.36958  Biso   1.000  C
  C267     1.0000 0.74560  0.57038  0.36958  Biso   1.000  C
  C268     1.0000 0.42962  0.74560  0.36958  Biso   1.000  C
  C269     1.0000 0.25440  0.63042  0.42962  Biso   1.000  C
  C270     1.0000 0.25440  0.57038  0.63042  Biso   1.000  C
  C271     1.0000 0.25440  0.36958  0.57038  Biso   1.000  C
  C272     1.0000 0.36958  0.42962  0.74560  Biso   1.000  C
  C273     1.0000 0.74560  0.42962  0.63042  Biso   1.000  C
  C274     1.0000 0.63042  0.42962  0.25440  Biso   1.000  C
  C275     1.0000 0.36958  0.25440  0.42962  Biso   1.000  C
  C276     1.0000 0.42962  0.36958  0.25440  Biso   1.000  C
  C277     1.0000 0.57038  0.63042  0.25440  Biso   1.000  C
  C278     1.0000 0.36958  0.74560  0.57038  Biso   1.000  C
  C279     1.0000 0.57038  0.36958  0.74560  Biso   1.000  C
  C280     1.0000 0.63042  0.74560  0.42962  Biso   1.000  C
  C281     1.0000 0.63042  0.25440  0.57038  Biso   1.000  C
  C282     1.0000 0.42962  0.63042  0.74560  Biso   1.000  C
  C283     1.0000 0.42962  0.25440  0.63042  Biso   1.000  C
  C284     1.0000 0.57038  0.74560  0.63042  Biso   1.000  C
  C285     1.0000 0.74560  0.36958  0.42962  Biso   1.000  C
  C286     1.0000 0.74560  0.63042  0.57038  Biso   1.000  C
  C287     1.0000 0.36958  0.57038  0.25440  Biso   1.000  C
  C288     1.0000 0.63042  0.57038  0.74560  Biso   1.000  C
  C289     1.0000 0.74341  0.84182  0.77327  Biso   1.000  C
  C290     1.0000 0.15818  0.74341  0.77327  Biso   1.000  C
  C291     1.0000 0.25659  0.15818  0.77327  Biso   1.000  C
  C292     1.0000 0.84182  0.25659  0.77327  Biso   1.000  C
  C293     1.0000 0.74341  0.22673  0.84182  Biso   1.000  C
  C294     1.0000 0.74341  0.15818  0.22673  Biso   1.000  C
  C295     1.0000 0.74341  0.77327  0.15818  Biso   1.000  C
  C296     1.0000 0.77327  0.84182  0.25659  Biso   1.000  C
  C297     1.0000 0.25659  0.84182  0.22673  Biso   1.000  C
  C298     1.0000 0.22673  0.84182  0.74341  Biso   1.000  C
  C299     1.0000 0.77327  0.74341  0.84182  Biso   1.000  C
  C300     1.0000 0.84182  0.77327  0.74341  Biso   1.000  C
  C301     1.0000 0.15818  0.22673  0.74341  Biso   1.000  C
  C302     1.0000 0.77327  0.25659  0.15818  Biso   1.000  C
  C303     1.0000 0.15818  0.77327  0.25659  Biso   1.000  C
  C304     1.0000 0.22673  0.25659  0.84182  Biso   1.000  C
  C305     1.0000 0.22673  0.74341  0.15818  Biso   1.000  C
  C306     1.0000 0.84182  0.22673  0.25659  Biso   1.000  C
  C307     1.0000 0.84182  0.74341  0.22673  Biso   1.000  C
  C308     1.0000 0.15818  0.25659  0.22673  Biso   1.000  C
  C309     1.0000 0.25659  0.77327  0.84182  Biso   1.000  C
  C310     1.0000 0.25659  0.22673  0.15818  Biso   1.000  C
  C311     1.0000 0.77327  0.15818  0.74341  Biso   1.000  C
  C312     1.0000 0.22673  0.15818  0.25659  Biso   1.000  C
  C313     1.0000 0.24341  0.34182  0.27327  Biso   1.000  C
  C314     1.0000 0.65818  0.24341  0.27327  Biso   1.000  C
  C315     1.0000 0.75659  0.65818  0.27327  Biso   1.000  C
  C316     1.0000 0.34182  0.75659  0.27327  Biso   1.000  C
  C317     1.0000 0.24341  0.72673  0.34182  Biso   1.000  C
  C318     1.0000 0.24341  0.65818  0.72673  Biso   1.000  C
  C319     1.0000 0.24341  0.27327  0.65818  Biso   1.000  C
  C320     1.0000 0.27327  0.34182  0.75659  Biso   1.000  C
  C321     1.0000 0.75659  0.34182  0.72673  Biso   1.000  C
  C322     1.0000 0.72673  0.34182  0.24341  Biso   1.000  C
  C323     1.0000 0.27327  0.24341  0.34182  Biso   1.000  C
  C324     1.0000 0.34182  0.27327  0.24341  Biso   1.000  C
  C325     1.0000 0.65818  0.72673  0.24341  Biso   1.000  C
  C326     1.0000 0.27327  0.75659  0.65818  Biso   1.000  C
  C327     1.0000 0.65818  0.27327  0.75659  Biso   1.000  C
  C328     1.0000 0.72673  0.75659  0.34182  Biso   1.000  C
  C329     1.0000 0.72673  0.24341  0.65818  Biso   1.000  C
  C330     1.0000 0.34182  0.72673  0.75659  Biso   1.000  C
  C331     1.0000 0.34182  0.24341  0.72673  Biso   1.000  C
  C332     1.0000 0.65818  0.75659  0.72673  Biso   1.000  C
  C333     1.0000 0.75659  0.27327  0.34182  Biso   1.000  C
  C334     1.0000 0.75659  0.72673  0.65818  Biso   1.000  C
  C335     1.0000 0.27327  0.65818  0.24341  Biso   1.000  C
  C336     1.0000 0.72673  0.65818  0.75659  Biso   1.000  C
  H241     1.0000 0.74500  0.83260  0.80100  Biso   1.000  H
  H242     1.0000 0.16740  0.74500  0.80100  Biso   1.000  H
  H243     1.0000 0.25500  0.16740  0.80100  Biso   1.000  H
  H244     1.0000 0.83260  0.25500  0.80100  Biso   1.000  H
  H245     1.0000 0.74500  0.19900  0.83260  Biso   1.000  H
  H246     1.0000 0.74500  0.16740  0.19900  Biso   1.000  H
  H247     1.0000 0.74500  0.80100  0.16740  Biso   1.000  H
  H248     1.0000 0.80100  0.83260  0.25500  Biso   1.000  H
  H249     1.0000 0.25500  0.83260  0.19900  Biso   1.000  H
  H250     1.0000 0.19900  0.83260  0.74500  Biso   1.000  H
  H251     1.0000 0.80100  0.74500  0.83260  Biso   1.000  H
  H252     1.0000 0.83260  0.80100  0.74500  Biso   1.000  H
  H253     1.0000 0.16740  0.19900  0.74500  Biso   1.000  H
  H254     1.0000 0.80100  0.25500  0.16740  Biso   1.000  H
  H255     1.0000 0.16740  0.80100  0.25500  Biso   1.000  H
  H256     1.0000 0.19900  0.25500  0.83260  Biso   1.000  H
  H257     1.0000 0.19900  0.74500  0.16740  Biso   1.000  H
  H258     1.0000 0.83260  0.19900  0.25500  Biso   1.000  H
  H259     1.0000 0.83260  0.74500  0.19900  Biso   1.000  H
  H260     1.0000 0.16740  0.25500  0.19900  Biso   1.000  H
  H261     1.0000 0.25500  0.80100  0.83260  Biso   1.000  H
  H262     1.0000 0.25500  0.19900  0.16740  Biso   1.000  H
  H263     1.0000 0.80100  0.16740  0.74500  Biso   1.000  H
  H264     1.0000 0.19900  0.16740  0.25500  Biso   1.000  H
  H265     1.0000 0.24500  0.33260  0.30100  Biso   1.000  H
  H266     1.0000 0.66740  0.24500  0.30100  Biso   1.000  H
  H267     1.0000 0.75500  0.66740  0.30100  Biso   1.000  H
  H268     1.0000 0.33260  0.75500  0.30100  Biso   1.000  H
  H269     1.0000 0.24500  0.69900  0.33260  Biso   1.000  H
  H270     1.0000 0.24500  0.66740  0.69900  Biso   1.000  H
  H271     1.0000 0.24500  0.30100  0.66740  Biso   1.000  H
  H272     1.0000 0.30100  0.33260  0.75500  Biso   1.000  H
  H273     1.0000 0.75500  0.33260  0.69900  Biso   1.000  H
  H274     1.0000 0.69900  0.33260  0.24500  Biso   1.000  H
  H275     1.0000 0.30100  0.24500  0.33260  Biso   1.000  H
  H276     1.0000 0.33260  0.30100  0.24500  Biso   1.000  H
  H277     1.0000 0.66740  0.69900  0.24500  Biso   1.000  H
  H278     1.0000 0.30100  0.75500  0.66740  Biso   1.000  H
  H279     1.0000 0.66740  0.30100  0.75500  Biso   1.000  H
  H280     1.0000 0.69900  0.75500  0.33260  Biso   1.000  H
  H281     1.0000 0.69900  0.24500  0.66740  Biso   1.000  H
  H282     1.0000 0.33260  0.69900  0.75500  Biso   1.000  H
  H283     1.0000 0.33260  0.24500  0.69900  Biso   1.000  H
  H284     1.0000 0.66740  0.75500  0.69900  Biso   1.000  H
  H285     1.0000 0.75500  0.30100  0.33260  Biso   1.000  H
  H286     1.0000 0.75500  0.69900  0.66740  Biso   1.000  H
  H287     1.0000 0.30100  0.66740  0.24500  Biso   1.000  H
  H288     1.0000 0.69900  0.66740  0.75500  Biso   1.000  H
  C337     1.0000 0.73896  0.86907  0.69439  Biso   1.000  C
  C338     1.0000 0.13093  0.73896  0.69439  Biso   1.000  C
  C339     1.0000 0.26104  0.13093  0.69439  Biso   1.000  C
  C340     1.0000 0.86907  0.26104  0.69439  Biso   1.000  C
  C341     1.0000 0.73896  0.30561  0.86907  Biso   1.000  C
  C342     1.0000 0.73896  0.13093  0.30561  Biso   1.000  C
  C343     1.0000 0.73896  0.69439  0.13093  Biso   1.000  C
  C344     1.0000 0.69439  0.86907  0.26104  Biso   1.000  C
  C345     1.0000 0.26104  0.86907  0.30561  Biso   1.000  C
  C346     1.0000 0.30561  0.86907  0.73896  Biso   1.000  C
  C347     1.0000 0.69439  0.73896  0.86907  Biso   1.000  C
  C348     1.0000 0.86907  0.69439  0.73896  Biso   1.000  C
  C349     1.0000 0.13093  0.30561  0.73896  Biso   1.000  C
  C350     1.0000 0.69439  0.26104  0.13093  Biso   1.000  C
  C351     1.0000 0.13093  0.69439  0.26104  Biso   1.000  C
  C352     1.0000 0.30561  0.26104  0.86907  Biso   1.000  C
  C353     1.0000 0.30561  0.73896  0.13093  Biso   1.000  C
  C354     1.0000 0.86907  0.30561  0.26104  Biso   1.000  C
  C355     1.0000 0.86907  0.73896  0.30561  Biso   1.000  C
  C356     1.0000 0.13093  0.26104  0.30561  Biso   1.000  C
  C357     1.0000 0.26104  0.69439  0.86907  Biso   1.000  C
  C358     1.0000 0.26104  0.30561  0.13093  Biso   1.000  C
  C359     1.0000 0.69439  0.13093  0.73896  Biso   1.000  C
  C360     1.0000 0.30561  0.13093  0.26104  Biso   1.000  C
  C361     1.0000 0.23896  0.36907  0.19439  Biso   1.000  C
  C362     1.0000 0.63093  0.23896  0.19439  Biso   1.000  C
  C363     1.0000 0.76104  0.63093  0.19439  Biso   1.000  C
  C364     1.0000 0.36907  0.76104  0.19439  Biso   1.000  C
  C365     1.0000 0.23896  0.80561  0.36907  Biso   1.000  C
  C366     1.0000 0.23896  0.63093  0.80561  Biso   1.000  C
  C367     1.0000 0.23896  0.19439  0.63093  Biso   1.000  C
  C368     1.0000 0.19439  0.36907  0.76104  Biso   1.000  C
  C369     1.0000 0.76104  0.36907  0.80561  Biso   1.000  C
  C370     1.0000 0.80561  0.36907  0.23896  Biso   1.000  C
  C371     1.0000 0.19439  0.23896  0.36907  Biso   1.000  C
  C372     1.0000 0.36907  0.19439  0.23896  Biso   1.000  C
  C373     1.0000 0.63093  0.80561  0.23896  Biso   1.000  C
  C374     1.0000 0.19439  0.76104  0.63093  Biso   1.000  C
  C375     1.0000 0.63093  0.19439  0.76104  Biso   1.000  C
  C376     1.0000 0.80561  0.76104  0.36907  Biso   1.000  C
  C377     1.0000 0.80561  0.23896  0.63093  Biso   1.000  C
  C378     1.0000 0.36907  0.80561  0.76104  Biso   1.000  C
  C379     1.0000 0.36907  0.23896  0.80561  Biso   1.000  C
  C380     1.0000 0.63093  0.76104  0.80561  Biso   1.000  C
  C381     1.0000 0.76104  0.19439  0.36907  Biso   1.000  C
  C382     1.0000 0.76104  0.80561  0.63093  Biso   1.000  C
  C383     1.0000 0.19439  0.63093  0.23896  Biso   1.000  C
  C384     1.0000 0.80561  0.63093  0.76104  Biso   1.000  C
  H289     1.0000 0.73870  0.87820  0.66660  Biso   1.000  H
  H290     1.0000 0.12180  0.73870  0.66660  Biso   1.000  H
  H291     1.0000 0.26130  0.12180  0.66660  Biso   1.000  H
  H292     1.0000 0.87820  0.26130  0.66660  Biso   1.000  H
  H293     1.0000 0.73870  0.33340  0.87820  Biso   1.000  H
  H294     1.0000 0.73870  0.12180  0.33340  Biso   1.000  H
  H295     1.0000 0.73870  0.66660  0.12180  Biso   1.000  H
  H296     1.0000 0.66660  0.87820  0.26130  Biso   1.000  H
  H297     1.0000 0.26130  0.87820  0.33340  Biso   1.000  H
  H298     1.0000 0.33340  0.87820  0.73870  Biso   1.000  H
  H299     1.0000 0.66660  0.73870  0.87820  Biso   1.000  H
  H300     1.0000 0.87820  0.66660  0.73870  Biso   1.000  H
  H301     1.0000 0.12180  0.33340  0.73870  Biso   1.000  H
  H302     1.0000 0.66660  0.26130  0.12180  Biso   1.000  H
  H303     1.0000 0.12180  0.66660  0.26130  Biso   1.000  H
  H304     1.0000 0.33340  0.26130  0.87820  Biso   1.000  H
  H305     1.0000 0.33340  0.73870  0.12180  Biso   1.000  H
  H306     1.0000 0.87820  0.33340  0.26130  Biso   1.000  H
  H307     1.0000 0.87820  0.73870  0.33340  Biso   1.000  H
  H308     1.0000 0.12180  0.26130  0.33340  Biso   1.000  H
  H309     1.0000 0.26130  0.66660  0.87820  Biso   1.000  H
  H310     1.0000 0.26130  0.33340  0.12180  Biso   1.000  H
  H311     1.0000 0.66660  0.12180  0.73870  Biso   1.000  H
  H312     1.0000 0.33340  0.12180  0.26130  Biso   1.000  H
  H313     1.0000 0.23870  0.37820  0.16660  Biso   1.000  H
  H314     1.0000 0.62180  0.23870  0.16660  Biso   1.000  H
  H315     1.0000 0.76130  0.62180  0.16660  Biso   1.000  H
  H316     1.0000 0.37820  0.76130  0.16660  Biso   1.000  H
  H317     1.0000 0.23870  0.83340  0.37820  Biso   1.000  H
  H318     1.0000 0.23870  0.62180  0.83340  Biso   1.000  H
  H319     1.0000 0.23870  0.16660  0.62180  Biso   1.000  H
  H320     1.0000 0.16660  0.37820  0.76130  Biso   1.000  H
  H321     1.0000 0.76130  0.37820  0.83340  Biso   1.000  H
  H322     1.0000 0.83340  0.37820  0.23870  Biso   1.000  H
  H323     1.0000 0.16660  0.23870  0.37820  Biso   1.000  H
  H324     1.0000 0.37820  0.16660  0.23870  Biso   1.000  H
  H325     1.0000 0.62180  0.83340  0.23870  Biso   1.000  H
  H326     1.0000 0.16660  0.76130  0.62180  Biso   1.000  H
  H327     1.0000 0.62180  0.16660  0.76130  Biso   1.000  H
  H328     1.0000 0.83340  0.76130  0.37820  Biso   1.000  H
  H329     1.0000 0.83340  0.23870  0.62180  Biso   1.000  H
  H330     1.0000 0.37820  0.83340  0.76130  Biso   1.000  H
  H331     1.0000 0.37820  0.23870  0.83340  Biso   1.000  H
  H332     1.0000 0.62180  0.76130  0.83340  Biso   1.000  H
  H333     1.0000 0.76130  0.16660  0.37820  Biso   1.000  H
  H334     1.0000 0.76130  0.83340  0.62180  Biso   1.000  H
  H335     1.0000 0.16660  0.62180  0.23870  Biso   1.000  H
  H336     1.0000 0.83340  0.62180  0.76130  Biso   1.000  H
  C385     1.0000 0.72718  0.97806  0.91774  Biso   1.000  C
  C386     1.0000 0.02194  0.72718  0.91774  Biso   1.000  C
  C387     1.0000 0.27282  0.02194  0.91774  Biso   1.000  C
  C388     1.0000 0.97806  0.27282  0.91774  Biso   1.000  C
  C389     1.0000 0.72718  0.08226  0.97806  Biso   1.000  C
  C390     1.0000 0.72718  0.02194  0.08226  Biso   1.000  C
  C391     1.0000 0.72718  0.91774  0.02194  Biso   1.000  C
  C392     1.0000 0.91774  0.97806  0.27282  Biso   1.000  C
  C393     1.0000 0.27282  0.97806  0.08226  Biso   1.000  C
  C394     1.0000 0.08226  0.97806  0.72718  Biso   1.000  C
  C395     1.0000 0.91774  0.72718  0.97806  Biso   1.000  C
  C396     1.0000 0.97806  0.91774  0.72718  Biso   1.000  C
  C397     1.0000 0.02194  0.08226  0.72718  Biso   1.000  C
  C398     1.0000 0.91774  0.27282  0.02194  Biso   1.000  C
  C399     1.0000 0.02194  0.91774  0.27282  Biso   1.000  C
  C400     1.0000 0.08226  0.27282  0.97806  Biso   1.000  C
  C401     1.0000 0.08226  0.72718  0.02194  Biso   1.000  C
  C402     1.0000 0.97806  0.08226  0.27282  Biso   1.000  C
  C403     1.0000 0.97806  0.72718  0.08226  Biso   1.000  C
  C404     1.0000 0.02194  0.27282  0.08226  Biso   1.000  C
  C405     1.0000 0.27282  0.91774  0.97806  Biso   1.000  C
  C406     1.0000 0.27282  0.08226  0.02194  Biso   1.000  C
  C407     1.0000 0.91774  0.02194  0.72718  Biso   1.000  C
  C408     1.0000 0.08226  0.02194  0.27282  Biso   1.000  C
  C409     1.0000 0.22718  0.47806  0.41774  Biso   1.000  C
  C410     1.0000 0.52194  0.22718  0.41774  Biso   1.000  C
  C411     1.0000 0.77282  0.52194  0.41774  Biso   1.000  C
  C412     1.0000 0.47806  0.77282  0.41774  Biso   1.000  C
  C413     1.0000 0.22718  0.58226  0.47806  Biso   1.000  C
  C414     1.0000 0.22718  0.52194  0.58226  Biso   1.000  C
  C415     1.0000 0.22718  0.41774  0.52194  Biso   1.000  C
  C416     1.0000 0.41774  0.47806  0.77282  Biso   1.000  C
  C417     1.0000 0.77282  0.47806  0.58226  Biso   1.000  C
  C418     1.0000 0.58226  0.47806  0.22718  Biso   1.000  C
  C419     1.0000 0.41774  0.22718  0.47806  Biso   1.000  C
  C420     1.0000 0.47806  0.41774  0.22718  Biso   1.000  C
  C421     1.0000 0.52194  0.58226  0.22718  Biso   1.000  C
  C422     1.0000 0.41774  0.77282  0.52194  Biso   1.000  C
  C423     1.0000 0.52194  0.41774  0.77282  Biso   1.000  C
  C424     1.0000 0.58226  0.77282  0.47806  Biso   1.000  C
  C425     1.0000 0.58226  0.22718  0.52194  Biso   1.000  C
  C426     1.0000 0.47806  0.58226  0.77282  Biso   1.000  C
  C427     1.0000 0.47806  0.22718  0.58226  Biso   1.000  C
  C428     1.0000 0.52194  0.77282  0.58226  Biso   1.000  C
  C429     1.0000 0.77282  0.41774  0.47806  Biso   1.000  C
  C430     1.0000 0.77282  0.58226  0.52194  Biso   1.000  C
  C431     1.0000 0.41774  0.52194  0.22718  Biso   1.000  C
  C432     1.0000 0.58226  0.52194  0.77282  Biso   1.000  C
  H337     1.0000 0.70660  0.99760  0.92490  Biso   1.000  H
  H338     1.0000 0.00240  0.70660  0.92490  Biso   1.000  H
  H339     1.0000 0.29340  0.00240  0.92490  Biso   1.000  H
  H340     1.0000 0.99760  0.29340  0.92490  Biso   1.000  H
  H341     1.0000 0.70660  0.07510  0.99760  Biso   1.000  H
  H342     1.0000 0.70660  0.00240  0.07510  Biso   1.000  H
  H343     1.0000 0.70660  0.92490  0.00240  Biso   1.000  H
  H344     1.0000 0.92490  0.99760  0.29340  Biso   1.000  H
  H345     1.0000 0.29340  0.99760  0.07510  Biso   1.000  H
  H346     1.0000 0.07510  0.99760  0.70660  Biso   1.000  H
  H347     1.0000 0.92490  0.70660  0.99760  Biso   1.000  H
  H348     1.0000 0.99760  0.92490  0.70660  Biso   1.000  H
  H349     1.0000 0.00240  0.07510  0.70660  Biso   1.000  H
  H350     1.0000 0.92490  0.29340  0.00240  Biso   1.000  H
  H351     1.0000 0.00240  0.92490  0.29340  Biso   1.000  H
  H352     1.0000 0.07510  0.29340  0.99760  Biso   1.000  H
  H353     1.0000 0.07510  0.70660  0.00240  Biso   1.000  H
  H354     1.0000 0.99760  0.07510  0.29340  Biso   1.000  H
  H355     1.0000 0.99760  0.70660  0.07510  Biso   1.000  H
  H356     1.0000 0.00240  0.29340  0.07510  Biso   1.000  H
  H357     1.0000 0.29340  0.92490  0.99760  Biso   1.000  H
  H358     1.0000 0.29340  0.07510  0.00240  Biso   1.000  H
  H359     1.0000 0.92490  0.00240  0.70660  Biso   1.000  H
  H360     1.0000 0.07510  0.00240  0.29340  Biso   1.000  H
  H361     1.0000 0.20660  0.49760  0.42490  Biso   1.000  H
  H362     1.0000 0.50240  0.20660  0.42490  Biso   1.000  H
  H363     1.0000 0.79340  0.50240  0.42490  Biso   1.000  H
  H364     1.0000 0.49760  0.79340  0.42490  Biso   1.000  H
  H365     1.0000 0.20660  0.57510  0.49760  Biso   1.000  H
  H366     1.0000 0.20660  0.50240  0.57510  Biso   1.000  H
  H367     1.0000 0.20660  0.42490  0.50240  Biso   1.000  H
  H368     1.0000 0.42490  0.49760  0.79340  Biso   1.000  H
  H369     1.0000 0.79340  0.49760  0.57510  Biso   1.000  H
  H370     1.0000 0.57510  0.49760  0.20660  Biso   1.000  H
  H371     1.0000 0.42490  0.20660  0.49760  Biso   1.000  H
  H372     1.0000 0.49760  0.42490  0.20660  Biso   1.000  H
  H373     1.0000 0.50240  0.57510  0.20660  Biso   1.000  H
  H374     1.0000 0.42490  0.79340  0.50240  Biso   1.000  H
  H375     1.0000 0.50240  0.42490  0.79340  Biso   1.000  H
  H376     1.0000 0.57510  0.79340  0.49760  Biso   1.000  H
  H377     1.0000 0.57510  0.20660  0.50240  Biso   1.000  H
  H378     1.0000 0.49760  0.57510  0.79340  Biso   1.000  H
  H379     1.0000 0.49760  0.20660  0.57510  Biso   1.000  H
  H380     1.0000 0.50240  0.79340  0.57510  Biso   1.000  H
  H381     1.0000 0.79340  0.42490  0.49760  Biso   1.000  H
  H382     1.0000 0.79340  0.57510  0.50240  Biso   1.000  H
  H383     1.0000 0.42490  0.50240  0.20660  Biso   1.000  H
  H384     1.0000 0.57510  0.50240  0.79340  Biso   1.000  H
  C433     1.0000 0.72827  0.91322  0.80122  Biso   1.000  C
  C434     1.0000 0.08678  0.72827  0.80122  Biso   1.000  C
  C435     1.0000 0.27173  0.08678  0.80122  Biso   1.000  C
  C436     1.0000 0.91322  0.27173  0.80122  Biso   1.000  C
  C437     1.0000 0.72827  0.19878  0.91322  Biso   1.000  C
  C438     1.0000 0.72827  0.08678  0.19878  Biso   1.000  C
  C439     1.0000 0.72827  0.80122  0.08678  Biso   1.000  C
  C440     1.0000 0.80122  0.91322  0.27173  Biso   1.000  C
  C441     1.0000 0.27173  0.91322  0.19878  Biso   1.000  C
  C442     1.0000 0.19878  0.91322  0.72827  Biso   1.000  C
  C443     1.0000 0.80122  0.72827  0.91322  Biso   1.000  C
  C444     1.0000 0.91322  0.80122  0.72827  Biso   1.000  C
  C445     1.0000 0.08678  0.19878  0.72827  Biso   1.000  C
  C446     1.0000 0.80122  0.27173  0.08678  Biso   1.000  C
  C447     1.0000 0.08678  0.80122  0.27173  Biso   1.000  C
  C448     1.0000 0.19878  0.27173  0.91322  Biso   1.000  C
  C449     1.0000 0.19878  0.72827  0.08678  Biso   1.000  C
  C450     1.0000 0.91322  0.19878  0.27173  Biso   1.000  C
  C451     1.0000 0.91322  0.72827  0.19878  Biso   1.000  C
  C452     1.0000 0.08678  0.27173  0.19878  Biso   1.000  C
  C453     1.0000 0.27173  0.80122  0.91322  Biso   1.000  C
  C454     1.0000 0.27173  0.19878  0.08678  Biso   1.000  C
  C455     1.0000 0.80122  0.08678  0.72827  Biso   1.000  C
  C456     1.0000 0.19878  0.08678  0.27173  Biso   1.000  C
  C457     1.0000 0.22827  0.41322  0.30122  Biso   1.000  C
  C458     1.0000 0.58678  0.22827  0.30122  Biso   1.000  C
  C459     1.0000 0.77173  0.58678  0.30122  Biso   1.000  C
  C460     1.0000 0.41322  0.77173  0.30122  Biso   1.000  C
  C461     1.0000 0.22827  0.69878  0.41322  Biso   1.000  C
  C462     1.0000 0.22827  0.58678  0.69878  Biso   1.000  C
  C463     1.0000 0.22827  0.30122  0.58678  Biso   1.000  C
  C464     1.0000 0.30122  0.41322  0.77173  Biso   1.000  C
  C465     1.0000 0.77173  0.41322  0.69878  Biso   1.000  C
  C466     1.0000 0.69878  0.41322  0.22827  Biso   1.000  C
  C467     1.0000 0.30122  0.22827  0.41322  Biso   1.000  C
  C468     1.0000 0.41322  0.30122  0.22827  Biso   1.000  C
  C469     1.0000 0.58678  0.69878  0.22827  Biso   1.000  C
  C470     1.0000 0.30122  0.77173  0.58678  Biso   1.000  C
  C471     1.0000 0.58678  0.30122  0.77173  Biso   1.000  C
  C472     1.0000 0.69878  0.77173  0.41322  Biso   1.000  C
  C473     1.0000 0.69878  0.22827  0.58678  Biso   1.000  C
  C474     1.0000 0.41322  0.69878  0.77173  Biso   1.000  C
  C475     1.0000 0.41322  0.22827  0.69878  Biso   1.000  C
  C476     1.0000 0.58678  0.77173  0.69878  Biso   1.000  C
  C477     1.0000 0.77173  0.30122  0.41322  Biso   1.000  C
  C478     1.0000 0.77173  0.69878  0.58678  Biso   1.000  C
  C479     1.0000 0.30122  0.58678  0.22827  Biso   1.000  C
  C480     1.0000 0.69878  0.58678  0.77173  Biso   1.000  C
  C481     1.0000 0.73547  0.88319  0.76557  Biso   1.000  C
  C482     1.0000 0.11681  0.73547  0.76557  Biso   1.000  C
  C483     1.0000 0.26453  0.11681  0.76557  Biso   1.000  C
  C484     1.0000 0.88319  0.26453  0.76557  Biso   1.000  C
  C485     1.0000 0.73547  0.23443  0.88319  Biso   1.000  C
  C486     1.0000 0.73547  0.11681  0.23443  Biso   1.000  C
  C487     1.0000 0.73547  0.76557  0.11681  Biso   1.000  C
  C488     1.0000 0.76557  0.88319  0.26453  Biso   1.000  C
  C489     1.0000 0.26453  0.88319  0.23443  Biso   1.000  C
  C490     1.0000 0.23443  0.88319  0.73547  Biso   1.000  C
  C491     1.0000 0.76557  0.73547  0.88319  Biso   1.000  C
  C492     1.0000 0.88319  0.76557  0.73547  Biso   1.000  C
  C493     1.0000 0.11681  0.23443  0.73547  Biso   1.000  C
  C494     1.0000 0.76557  0.26453  0.11681  Biso   1.000  C
  C495     1.0000 0.11681  0.76557  0.26453  Biso   1.000  C
  C496     1.0000 0.23443  0.26453  0.88319  Biso   1.000  C
  C497     1.0000 0.23443  0.73547  0.11681  Biso   1.000  C
  C498     1.0000 0.88319  0.23443  0.26453  Biso   1.000  C
  C499     1.0000 0.88319  0.73547  0.23443  Biso   1.000  C
  C500     1.0000 0.11681  0.26453  0.23443  Biso   1.000  C
  C501     1.0000 0.26453  0.76557  0.88319  Biso   1.000  C
  C502     1.0000 0.26453  0.23443  0.11681  Biso   1.000  C
  C503     1.0000 0.76557  0.11681  0.73547  Biso   1.000  C
  C504     1.0000 0.23443  0.11681  0.26453  Biso   1.000  C
  C505     1.0000 0.23547  0.38319  0.26557  Biso   1.000  C
  C506     1.0000 0.61681  0.23547  0.26557  Biso   1.000  C
  C507     1.0000 0.76453  0.61681  0.26557  Biso   1.000  C
  C508     1.0000 0.38319  0.76453  0.26557  Biso   1.000  C
  C509     1.0000 0.23547  0.73443  0.38319  Biso   1.000  C
  C510     1.0000 0.23547  0.61681  0.73443  Biso   1.000  C
  C511     1.0000 0.23547  0.26557  0.61681  Biso   1.000  C
  C512     1.0000 0.26557  0.38319  0.76453  Biso   1.000  C
  C513     1.0000 0.76453  0.38319  0.73443  Biso   1.000  C
  C514     1.0000 0.73443  0.38319  0.23547  Biso   1.000  C
  C515     1.0000 0.26557  0.23547  0.38319  Biso   1.000  C
  C516     1.0000 0.38319  0.26557  0.23547  Biso   1.000  C
  C517     1.0000 0.61681  0.73443  0.23547  Biso   1.000  C
  C518     1.0000 0.26557  0.76453  0.61681  Biso   1.000  C
  C519     1.0000 0.61681  0.26557  0.76453  Biso   1.000  C
  C520     1.0000 0.73443  0.76453  0.38319  Biso   1.000  C
  C521     1.0000 0.73443  0.23547  0.61681  Biso   1.000  C
  C522     1.0000 0.38319  0.73443  0.76453  Biso   1.000  C
  C523     1.0000 0.38319  0.23547  0.73443  Biso   1.000  C
  C524     1.0000 0.61681  0.76453  0.73443  Biso   1.000  C
  C525     1.0000 0.76453  0.26557  0.38319  Biso   1.000  C
  C526     1.0000 0.76453  0.73443  0.61681  Biso   1.000  C
  C527     1.0000 0.26557  0.61681  0.23547  Biso   1.000  C
  C528     1.0000 0.73443  0.61681  0.76453  Biso   1.000  C
  N161     1.0000 0.90280  0.90280  0.90280  Biso   1.000  N
  N162     1.0000 0.09720  0.90280  0.90280  Biso   1.000  N
  N163     1.0000 0.09720  0.09720  0.90280  Biso   1.000  N
  N164     1.0000 0.90280  0.09720  0.90280  Biso   1.000  N
  N165     1.0000 0.90280  0.09720  0.09720  Biso   1.000  N
  N166     1.0000 0.90280  0.90280  0.09720  Biso   1.000  N
  N167     1.0000 0.09720  0.90280  0.09720  Biso   1.000  N
  N168     1.0000 0.09720  0.09720  0.09720  Biso   1.000  N
  N169     1.0000 0.40280  0.40280  0.40280  Biso   1.000  N
  N170     1.0000 0.59720  0.40280  0.40280  Biso   1.000  N
  N171     1.0000 0.59720  0.59720  0.40280  Biso   1.000  N
  N172     1.0000 0.40280  0.59720  0.40280  Biso   1.000  N
  N173     1.0000 0.40280  0.59720  0.59720  Biso   1.000  N
  N174     1.0000 0.40280  0.40280  0.59720  Biso   1.000  N
  N175     1.0000 0.59720  0.40280  0.59720  Biso   1.000  N
  N176     1.0000 0.59720  0.59720  0.59720  Biso   1.000  N
  O109     1.0000 0.89400  0.93474  0.88382  Biso   1.000  O
  O110     1.0000 0.06526  0.89400  0.88382  Biso   1.000  O
  O111     1.0000 0.10600  0.06526  0.88382  Biso   1.000  O
  O112     1.0000 0.93474  0.10600  0.88382  Biso   1.000  O
  O113     1.0000 0.89400  0.11618  0.93474  Biso   1.000  O
  O114     1.0000 0.89400  0.06526  0.11618  Biso   1.000  O
  O115     1.0000 0.89400  0.88382  0.06526  Biso   1.000  O
  O116     1.0000 0.88382  0.93474  0.10600  Biso   1.000  O
  O117     1.0000 0.10600  0.93474  0.11618  Biso   1.000  O
  O118     1.0000 0.11618  0.93474  0.89400  Biso   1.000  O
  O119     1.0000 0.88382  0.89400  0.93474  Biso   1.000  O
  O120     1.0000 0.93474  0.88382  0.89400  Biso   1.000  O
  O121     1.0000 0.06526  0.11618  0.89400  Biso   1.000  O
  O122     1.0000 0.88382  0.10600  0.06526  Biso   1.000  O
  O123     1.0000 0.06526  0.88382  0.10600  Biso   1.000  O
  O124     1.0000 0.11618  0.10600  0.93474  Biso   1.000  O
  O125     1.0000 0.11618  0.89400  0.06526  Biso   1.000  O
  O126     1.0000 0.93474  0.11618  0.10600  Biso   1.000  O
  O127     1.0000 0.93474  0.89400  0.11618  Biso   1.000  O
  O128     1.0000 0.06526  0.10600  0.11618  Biso   1.000  O
  O129     1.0000 0.10600  0.88382  0.93474  Biso   1.000  O
  O130     1.0000 0.10600  0.11618  0.06526  Biso   1.000  O
  O131     1.0000 0.88382  0.06526  0.89400  Biso   1.000  O
  O132     1.0000 0.11618  0.06526  0.10600  Biso   1.000  O
  O133     1.0000 0.39400  0.43474  0.38382  Biso   1.000  O
  O134     1.0000 0.56526  0.39400  0.38382  Biso   1.000  O
  O135     1.0000 0.60600  0.56526  0.38382  Biso   1.000  O
  O136     1.0000 0.43474  0.60600  0.38382  Biso   1.000  O
  O137     1.0000 0.39400  0.61618  0.43474  Biso   1.000  O
  O138     1.0000 0.39400  0.56526  0.61618  Biso   1.000  O
  O139     1.0000 0.39400  0.38382  0.56526  Biso   1.000  O
  O140     1.0000 0.38382  0.43474  0.60600  Biso   1.000  O
  O141     1.0000 0.60600  0.43474  0.61618  Biso   1.000  O
  O142     1.0000 0.61618  0.43474  0.39400  Biso   1.000  O
  O143     1.0000 0.38382  0.39400  0.43474  Biso   1.000  O
  O144     1.0000 0.43474  0.38382  0.39400  Biso   1.000  O
  O145     1.0000 0.56526  0.61618  0.39400  Biso   1.000  O
  O146     1.0000 0.38382  0.60600  0.56526  Biso   1.000  O
  O147     1.0000 0.56526  0.38382  0.60600  Biso   1.000  O
  O148     1.0000 0.61618  0.60600  0.43474  Biso   1.000  O
  O149     1.0000 0.61618  0.39400  0.56526  Biso   1.000  O
  O150     1.0000 0.43474  0.61618  0.60600  Biso   1.000  O
  O151     1.0000 0.43474  0.39400  0.61618  Biso   1.000  O
  O152     1.0000 0.56526  0.60600  0.61618  Biso   1.000  O
  O153     1.0000 0.60600  0.38382  0.43474  Biso   1.000  O
  O154     1.0000 0.60600  0.61618  0.56526  Biso   1.000  O
  O155     1.0000 0.38382  0.56526  0.39400  Biso   1.000  O
  O156     1.0000 0.61618  0.56526  0.60600  Biso   1.000  O
  O157     1.0000 0.67604  0.00000  0.00000  Biso   1.000  O
  O158     1.0000 0.00000  0.67604  0.00000  Biso   1.000  O
  O159     1.0000 0.32396  0.00000  0.00000  Biso   1.000  O
  O160     1.0000 0.00000  0.32396  0.00000  Biso   1.000  O
  O161     1.0000 0.00000  0.00000  0.32396  Biso   1.000  O
  O162     1.0000 0.00000  0.00000  0.67604  Biso   1.000  O
  O163     1.0000 0.17604  0.50000  0.50000  Biso   1.000  O
  O164     1.0000 0.50000  0.17604  0.50000  Biso   1.000  O
  O165     1.0000 0.82396  0.50000  0.50000  Biso   1.000  O
  O166     1.0000 0.50000  0.82396  0.50000  Biso   1.000  O
  O167     1.0000 0.50000  0.50000  0.82396  Biso   1.000  O
  O168     1.0000 0.50000  0.50000  0.17604  Biso   1.000  O
  O169     1.0000 0.67372  0.84719  0.83830  Biso   1.000  O
  O170     1.0000 0.15281  0.67372  0.83830  Biso   1.000  O
  O171     1.0000 0.32628  0.15281  0.83830  Biso   1.000  O
  O172     1.0000 0.84719  0.32628  0.83830  Biso   1.000  O
  O173     1.0000 0.67372  0.16170  0.84719  Biso   1.000  O
  O174     1.0000 0.67372  0.15281  0.16170  Biso   1.000  O
  O175     1.0000 0.67372  0.83830  0.15281  Biso   1.000  O
  O176     1.0000 0.83830  0.84719  0.32628  Biso   1.000  O
  O177     1.0000 0.32628  0.84719  0.16170  Biso   1.000  O
  O178     1.0000 0.16170  0.84719  0.67372  Biso   1.000  O
  O179     1.0000 0.83830  0.67372  0.84719  Biso   1.000  O
  O180     1.0000 0.84719  0.83830  0.67372  Biso   1.000  O
  O181     1.0000 0.15281  0.16170  0.67372  Biso   1.000  O
  O182     1.0000 0.83830  0.32628  0.15281  Biso   1.000  O
  O183     1.0000 0.15281  0.83830  0.32628  Biso   1.000  O
  O184     1.0000 0.16170  0.32628  0.84719  Biso   1.000  O
  O185     1.0000 0.16170  0.67372  0.15281  Biso   1.000  O
  O186     1.0000 0.84719  0.16170  0.32628  Biso   1.000  O
  O187     1.0000 0.84719  0.67372  0.16170  Biso   1.000  O
  O188     1.0000 0.15281  0.32628  0.16170  Biso   1.000  O
  O189     1.0000 0.32628  0.83830  0.84719  Biso   1.000  O
  O190     1.0000 0.32628  0.16170  0.15281  Biso   1.000  O
  O191     1.0000 0.83830  0.15281  0.67372  Biso   1.000  O
  O192     1.0000 0.16170  0.15281  0.32628  Biso   1.000  O
  O193     1.0000 0.17372  0.34719  0.33830  Biso   1.000  O
  O194     1.0000 0.65281  0.17372  0.33830  Biso   1.000  O
  O195     1.0000 0.82628  0.65281  0.33830  Biso   1.000  O
  O196     1.0000 0.34719  0.82628  0.33830  Biso   1.000  O
  O197     1.0000 0.17372  0.66170  0.34719  Biso   1.000  O
  O198     1.0000 0.17372  0.65281  0.66170  Biso   1.000  O
  O199     1.0000 0.17372  0.33830  0.65281  Biso   1.000  O
  O200     1.0000 0.33830  0.34719  0.82628  Biso   1.000  O
  O201     1.0000 0.82628  0.34719  0.66170  Biso   1.000  O
  O202     1.0000 0.66170  0.34719  0.17372  Biso   1.000  O
  O203     1.0000 0.33830  0.17372  0.34719  Biso   1.000  O
  O204     1.0000 0.34719  0.33830  0.17372  Biso   1.000  O
  O205     1.0000 0.65281  0.66170  0.17372  Biso   1.000  O
  O206     1.0000 0.33830  0.82628  0.65281  Biso   1.000  O
  O207     1.0000 0.65281  0.33830  0.82628  Biso   1.000  O
  O208     1.0000 0.66170  0.82628  0.34719  Biso   1.000  O
  O209     1.0000 0.66170  0.17372  0.65281  Biso   1.000  O
  O210     1.0000 0.34719  0.66170  0.82628  Biso   1.000  O
  O211     1.0000 0.34719  0.17372  0.66170  Biso   1.000  O
  O212     1.0000 0.65281  0.82628  0.66170  Biso   1.000  O
  O213     1.0000 0.82628  0.33830  0.34719  Biso   1.000  O
  O214     1.0000 0.82628  0.66170  0.65281  Biso   1.000  O
  O215     1.0000 0.33830  0.65281  0.17372  Biso   1.000  O
  O216     1.0000 0.66170  0.65281  0.82628  Biso   1.000  O
  O217     1.0000 0.87290  0.00360  0.92714  Biso   1.000  O
  O218     1.0000 0.99640  0.87290  0.92714  Biso   1.000  O
  O219     1.0000 0.12710  0.99640  0.92714  Biso   1.000  O
  O220     1.0000 0.00360  0.12710  0.92714  Biso   1.000  O
  O221     1.0000 0.87290  0.07286  0.00360  Biso   1.000  O
  O222     1.0000 0.87290  0.99640  0.07286  Biso   1.000  O
  O223     1.0000 0.87290  0.92714  0.99640  Biso   1.000  O
  O224     1.0000 0.92714  0.00360  0.12710  Biso   1.000  O
  O225     1.0000 0.12710  0.00360  0.07286  Biso   1.000  O
  O226     1.0000 0.07286  0.00360  0.87290  Biso   1.000  O
  O227     1.0000 0.92714  0.87290  0.00360  Biso   1.000  O
  O228     1.0000 0.00360  0.92714  0.87290  Biso   1.000  O
  O229     1.0000 0.99640  0.07286  0.87290  Biso   1.000  O
  O230     1.0000 0.92714  0.12710  0.99640  Biso   1.000  O
  O231     1.0000 0.99640  0.92714  0.12710  Biso   1.000  O
  O232     1.0000 0.07286  0.12710  0.00360  Biso   1.000  O
  O233     1.0000 0.07286  0.87290  0.99640  Biso   1.000  O
  O234     1.0000 0.00360  0.07286  0.12710  Biso   1.000  O
  O235     1.0000 0.00360  0.87290  0.07286  Biso   1.000  O
  O236     1.0000 0.99640  0.12710  0.07286  Biso   1.000  O
  O237     1.0000 0.12710  0.92714  0.00360  Biso   1.000  O
  O238     1.0000 0.12710  0.07286  0.99640  Biso   1.000  O
  O239     1.0000 0.92714  0.99640  0.87290  Biso   1.000  O
  O240     1.0000 0.07286  0.99640  0.12710  Biso   1.000  O
  O241     1.0000 0.37290  0.50360  0.42714  Biso   1.000  O
  O242     1.0000 0.49640  0.37290  0.42714  Biso   1.000  O
  O243     1.0000 0.62710  0.49640  0.42714  Biso   1.000  O
  O244     1.0000 0.50360  0.62710  0.42714  Biso   1.000  O
  O245     1.0000 0.37290  0.57286  0.50360  Biso   1.000  O
  O246     1.0000 0.37290  0.49640  0.57286  Biso   1.000  O
  O247     1.0000 0.37290  0.42714  0.49640  Biso   1.000  O
  O248     1.0000 0.42714  0.50360  0.62710  Biso   1.000  O
  O249     1.0000 0.62710  0.50360  0.57286  Biso   1.000  O
  O250     1.0000 0.57286  0.50360  0.37290  Biso   1.000  O
  O251     1.0000 0.42714  0.37290  0.50360  Biso   1.000  O
  O252     1.0000 0.50360  0.42714  0.37290  Biso   1.000  O
  O253     1.0000 0.49640  0.57286  0.37290  Biso   1.000  O
  O254     1.0000 0.42714  0.62710  0.49640  Biso   1.000  O
  O255     1.0000 0.49640  0.42714  0.62710  Biso   1.000  O
  O256     1.0000 0.57286  0.62710  0.50360  Biso   1.000  O
  O257     1.0000 0.57286  0.37290  0.49640  Biso   1.000  O
  O258     1.0000 0.50360  0.57286  0.62710  Biso   1.000  O
  O259     1.0000 0.50360  0.37290  0.57286  Biso   1.000  O
  O260     1.0000 0.49640  0.62710  0.57286  Biso   1.000  O
  O261     1.0000 0.62710  0.42714  0.50360  Biso   1.000  O
  O262     1.0000 0.62710  0.57286  0.49640  Biso   1.000  O
  O263     1.0000 0.42714  0.49640  0.37290  Biso   1.000  O
  O264     1.0000 0.57286  0.49640  0.62710  Biso   1.000  O
