data_image0
_cell_length_a       32.637
_cell_length_b       32.637
_cell_length_c       32.637
_cell_angle_alpha    90
_cell_angle_beta     90
_cell_angle_gamma    90

_symmetry_space_group_name_H-M    "P 1"
_symmetry_int_tables_number       1

loop_
  _symmetry_equiv_pos_as_xyz
  'x, y, z'

loop_
  _atom_site_label
  _atom_site_occupancy
  _atom_site_fract_x
  _atom_site_fract_y
  _atom_site_fract_z
  _atom_site_thermal_displace_type
  _atom_site_B_iso_or_equiv
  _atom_site_type_symbol
  Fe1      1.0000 0.25000  0.25000  0.25000  Biso   1.000  Fe
  Fe2      1.0000 0.75000  0.25000  0.25000  Biso   1.000  Fe
  Fe3      1.0000 0.75000  0.75000  0.25000  Biso   1.000  Fe
  Fe4      1.0000 0.25000  0.75000  0.25000  Biso   1.000  Fe
  Fe5      1.0000 0.25000  0.75000  0.75000  Biso   1.000  Fe
  Fe6      1.0000 0.25000  0.25000  0.75000  Biso   1.000  Fe
  Fe7      1.0000 0.75000  0.25000  0.75000  Biso   1.000  Fe
  Fe8      1.0000 0.75000  0.75000  0.75000  Biso   1.000  Fe
  Cu1      1.0000 0.24272  0.00000  0.00000  Biso   1.000  Cu
  Cu2      1.0000 0.00000  0.24272  0.00000  Biso   1.000  Cu
  Cu3      1.0000 0.75728  0.00000  0.00000  Biso   1.000  Cu
  Cu4      1.0000 0.00000  0.75728  0.00000  Biso   1.000  Cu
  Cu5      1.0000 0.00000  0.00000  0.75728  Biso   1.000  Cu
  Cu6      1.0000 0.00000  0.00000  0.24272  Biso   1.000  Cu
  Cu7      1.0000 0.74272  0.50000  0.50000  Biso   1.000  Cu
  Cu8      1.0000 0.50000  0.74272  0.50000  Biso   1.000  Cu
  Cu9      1.0000 0.25728  0.50000  0.50000  Biso   1.000  Cu
  Cu10     1.0000 0.50000  0.25728  0.50000  Biso   1.000  Cu
  Cu11     1.0000 0.50000  0.50000  0.25728  Biso   1.000  Cu
  Cu12     1.0000 0.50000  0.50000  0.74272  Biso   1.000  Cu
  N1       1.0000 0.25145  0.18558  0.25671  Biso   1.000  N
  N2       1.0000 0.81442  0.25145  0.25671  Biso   1.000  N
  N3       1.0000 0.74855  0.81442  0.25671  Biso   1.000  N
  N4       1.0000 0.18558  0.74855  0.25671  Biso   1.000  N
  N5       1.0000 0.25145  0.74329  0.18558  Biso   1.000  N
  N6       1.0000 0.25145  0.81442  0.74329  Biso   1.000  N
  N7       1.0000 0.25145  0.25671  0.81442  Biso   1.000  N
  N8       1.0000 0.25671  0.18558  0.74855  Biso   1.000  N
  N9       1.0000 0.74855  0.18558  0.74329  Biso   1.000  N
  N10      1.0000 0.74329  0.18558  0.25145  Biso   1.000  N
  N11      1.0000 0.25671  0.25145  0.18558  Biso   1.000  N
  N12      1.0000 0.18558  0.25671  0.25145  Biso   1.000  N
  N13      1.0000 0.81442  0.74329  0.25145  Biso   1.000  N
  N14      1.0000 0.25671  0.74855  0.81442  Biso   1.000  N
  N15      1.0000 0.81442  0.25671  0.74855  Biso   1.000  N
  N16      1.0000 0.74329  0.74855  0.18558  Biso   1.000  N
  N17      1.0000 0.74329  0.25145  0.81442  Biso   1.000  N
  N18      1.0000 0.18558  0.74329  0.74855  Biso   1.000  N
  N19      1.0000 0.18558  0.25145  0.74329  Biso   1.000  N
  N20      1.0000 0.81442  0.74855  0.74329  Biso   1.000  N
  N21      1.0000 0.74855  0.25671  0.18558  Biso   1.000  N
  N22      1.0000 0.74855  0.74329  0.81442  Biso   1.000  N
  N23      1.0000 0.25671  0.81442  0.25145  Biso   1.000  N
  N24      1.0000 0.74329  0.81442  0.74855  Biso   1.000  N
  N25      1.0000 0.75145  0.68558  0.75671  Biso   1.000  N
  N26      1.0000 0.31442  0.75145  0.75671  Biso   1.000  N
  N27      1.0000 0.24855  0.31442  0.75671  Biso   1.000  N
  N28      1.0000 0.68558  0.24855  0.75671  Biso   1.000  N
  N29      1.0000 0.75145  0.24329  0.68558  Biso   1.000  N
  N30      1.0000 0.75145  0.31442  0.24329  Biso   1.000  N
  N31      1.0000 0.75145  0.75671  0.31442  Biso   1.000  N
  N32      1.0000 0.75671  0.68558  0.24855  Biso   1.000  N
  N33      1.0000 0.24855  0.68558  0.24329  Biso   1.000  N
  N34      1.0000 0.24329  0.68558  0.75145  Biso   1.000  N
  N35      1.0000 0.75671  0.75145  0.68558  Biso   1.000  N
  N36      1.0000 0.68558  0.75671  0.75145  Biso   1.000  N
  N37      1.0000 0.31442  0.24329  0.75145  Biso   1.000  N
  N38      1.0000 0.75671  0.24855  0.31442  Biso   1.000  N
  N39      1.0000 0.31442  0.75671  0.24855  Biso   1.000  N
  N40      1.0000 0.24329  0.24855  0.68558  Biso   1.000  N
  N41      1.0000 0.24329  0.75145  0.31442  Biso   1.000  N
  N42      1.0000 0.68558  0.24329  0.24855  Biso   1.000  N
  N43      1.0000 0.68558  0.75145  0.24329  Biso   1.000  N
  N44      1.0000 0.31442  0.24855  0.24329  Biso   1.000  N
  N45      1.0000 0.24855  0.75671  0.68558  Biso   1.000  N
  N46      1.0000 0.24855  0.24329  0.31442  Biso   1.000  N
  N47      1.0000 0.75671  0.31442  0.75145  Biso   1.000  N
  N48      1.0000 0.24329  0.31442  0.24855  Biso   1.000  N
  O1       1.0000 0.16721  0.00000  0.00000  Biso   1.000  O
  O2       1.0000 0.00000  0.16721  0.00000  Biso   1.000  O
  O3       1.0000 0.83279  0.00000  0.00000  Biso   1.000  O
  O4       1.0000 0.00000  0.83279  0.00000  Biso   1.000  O
  O5       1.0000 0.00000  0.00000  0.83279  Biso   1.000  O
  O6       1.0000 0.00000  0.00000  0.16721  Biso   1.000  O
  O7       1.0000 0.66721  0.50000  0.50000  Biso   1.000  O
  O8       1.0000 0.50000  0.66721  0.50000  Biso   1.000  O
  O9       1.0000 0.33279  0.50000  0.50000  Biso   1.000  O
  O10      1.0000 0.50000  0.33279  0.50000  Biso   1.000  O
  O11      1.0000 0.50000  0.50000  0.33279  Biso   1.000  O
  O12      1.0000 0.50000  0.50000  0.66721  Biso   1.000  O
  C1       1.0000 0.21590  0.07674  0.10156  Biso   1.000  C
  C2       1.0000 0.92326  0.21590  0.10156  Biso   1.000  C
  C3       1.0000 0.78410  0.92326  0.10156  Biso   1.000  C
  C4       1.0000 0.07674  0.78410  0.10156  Biso   1.000  C
  C5       1.0000 0.21590  0.89844  0.07674  Biso   1.000  C
  C6       1.0000 0.21590  0.92326  0.89844  Biso   1.000  C
  C7       1.0000 0.21590  0.10156  0.92326  Biso   1.000  C
  C8       1.0000 0.10156  0.07674  0.78410  Biso   1.000  C
  C9       1.0000 0.78410  0.07674  0.89844  Biso   1.000  C
  C10      1.0000 0.89844  0.07674  0.21590  Biso   1.000  C
  C11      1.0000 0.10156  0.21590  0.07674  Biso   1.000  C
  C12      1.0000 0.07674  0.10156  0.21590  Biso   1.000  C
  C13      1.0000 0.92326  0.89844  0.21590  Biso   1.000  C
  C14      1.0000 0.10156  0.78410  0.92326  Biso   1.000  C
  C15      1.0000 0.92326  0.10156  0.78410  Biso   1.000  C
  C16      1.0000 0.89844  0.78410  0.07674  Biso   1.000  C
  C17      1.0000 0.89844  0.21590  0.92326  Biso   1.000  C
  C18      1.0000 0.07674  0.89844  0.78410  Biso   1.000  C
  C19      1.0000 0.07674  0.21590  0.89844  Biso   1.000  C
  C20      1.0000 0.92326  0.78410  0.89844  Biso   1.000  C
  C21      1.0000 0.78410  0.10156  0.07674  Biso   1.000  C
  C22      1.0000 0.78410  0.89844  0.92326  Biso   1.000  C
  C23      1.0000 0.10156  0.92326  0.21590  Biso   1.000  C
  C24      1.0000 0.89844  0.92326  0.78410  Biso   1.000  C
  C25      1.0000 0.71590  0.57674  0.60156  Biso   1.000  C
  C26      1.0000 0.42326  0.71590  0.60156  Biso   1.000  C
  C27      1.0000 0.28410  0.42326  0.60156  Biso   1.000  C
  C28      1.0000 0.57674  0.28410  0.60156  Biso   1.000  C
  C29      1.0000 0.71590  0.39844  0.57674  Biso   1.000  C
  C30      1.0000 0.71590  0.42326  0.39844  Biso   1.000  C
  C31      1.0000 0.71590  0.60156  0.42326  Biso   1.000  C
  C32      1.0000 0.60156  0.57674  0.28410  Biso   1.000  C
  C33      1.0000 0.28410  0.57674  0.39844  Biso   1.000  C
  C34      1.0000 0.39844  0.57674  0.71590  Biso   1.000  C
  C35      1.0000 0.60156  0.71590  0.57674  Biso   1.000  C
  C36      1.0000 0.57674  0.60156  0.71590  Biso   1.000  C
  C37      1.0000 0.42326  0.39844  0.71590  Biso   1.000  C
  C38      1.0000 0.60156  0.28410  0.42326  Biso   1.000  C
  C39      1.0000 0.42326  0.60156  0.28410  Biso   1.000  C
  C40      1.0000 0.39844  0.28410  0.57674  Biso   1.000  C
  C41      1.0000 0.39844  0.71590  0.42326  Biso   1.000  C
  C42      1.0000 0.57674  0.39844  0.28410  Biso   1.000  C
  C43      1.0000 0.57674  0.71590  0.39844  Biso   1.000  C
  C44      1.0000 0.42326  0.28410  0.39844  Biso   1.000  C
  C45      1.0000 0.28410  0.60156  0.57674  Biso   1.000  C
  C46      1.0000 0.28410  0.39844  0.42326  Biso   1.000  C
  C47      1.0000 0.60156  0.42326  0.71590  Biso   1.000  C
  C48      1.0000 0.39844  0.42326  0.28410  Biso   1.000  C
  H1       1.0000 0.19460  0.09480  0.10740  Biso   1.000  H
  H2       1.0000 0.90520  0.19460  0.10740  Biso   1.000  H
  H3       1.0000 0.80540  0.90520  0.10740  Biso   1.000  H
  H4       1.0000 0.09480  0.80540  0.10740  Biso   1.000  H
  H5       1.0000 0.19460  0.89260  0.09480  Biso   1.000  H
  H6       1.0000 0.19460  0.90520  0.89260  Biso   1.000  H
  H7       1.0000 0.19460  0.10740  0.90520  Biso   1.000  H
  H8       1.0000 0.10740  0.09480  0.80540  Biso   1.000  H
  H9       1.0000 0.80540  0.09480  0.89260  Biso   1.000  H
  H10      1.0000 0.89260  0.09480  0.19460  Biso   1.000  H
  H11      1.0000 0.10740  0.19460  0.09480  Biso   1.000  H
  H12      1.0000 0.09480  0.10740  0.19460  Biso   1.000  H
  H13      1.0000 0.90520  0.89260  0.19460  Biso   1.000  H
  H14      1.0000 0.10740  0.80540  0.90520  Biso   1.000  H
  H15      1.0000 0.90520  0.10740  0.80540  Biso   1.000  H
  H16      1.0000 0.89260  0.80540  0.09480  Biso   1.000  H
  H17      1.0000 0.89260  0.19460  0.90520  Biso   1.000  H
  H18      1.0000 0.09480  0.89260  0.80540  Biso   1.000  H
  H19      1.0000 0.09480  0.19460  0.89260  Biso   1.000  H
  H20      1.0000 0.90520  0.80540  0.89260  Biso   1.000  H
  H21      1.0000 0.80540  0.10740  0.09480  Biso   1.000  H
  H22      1.0000 0.80540  0.89260  0.90520  Biso   1.000  H
  H23      1.0000 0.10740  0.90520  0.19460  Biso   1.000  H
  H24      1.0000 0.89260  0.90520  0.80540  Biso   1.000  H
  H25      1.0000 0.69460  0.59480  0.60740  Biso   1.000  H
  H26      1.0000 0.40520  0.69460  0.60740  Biso   1.000  H
  H27      1.0000 0.30540  0.40520  0.60740  Biso   1.000  H
  H28      1.0000 0.59480  0.30540  0.60740  Biso   1.000  H
  H29      1.0000 0.69460  0.39260  0.59480  Biso   1.000  H
  H30      1.0000 0.69460  0.40520  0.39260  Biso   1.000  H
  H31      1.0000 0.69460  0.60740  0.40520  Biso   1.000  H
  H32      1.0000 0.60740  0.59480  0.30540  Biso   1.000  H
  H33      1.0000 0.30540  0.59480  0.39260  Biso   1.000  H
  H34      1.0000 0.39260  0.59480  0.69460  Biso   1.000  H
  H35      1.0000 0.60740  0.69460  0.59480  Biso   1.000  H
  H36      1.0000 0.59480  0.60740  0.69460  Biso   1.000  H
  H37      1.0000 0.40520  0.39260  0.69460  Biso   1.000  H
  H38      1.0000 0.60740  0.30540  0.40520  Biso   1.000  H
  H39      1.0000 0.40520  0.60740  0.30540  Biso   1.000  H
  H40      1.0000 0.39260  0.30540  0.59480  Biso   1.000  H
  H41      1.0000 0.39260  0.69460  0.40520  Biso   1.000  H
  H42      1.0000 0.59480  0.39260  0.30540  Biso   1.000  H
  H43      1.0000 0.59480  0.69460  0.39260  Biso   1.000  H
  H44      1.0000 0.40520  0.30540  0.39260  Biso   1.000  H
  H45      1.0000 0.30540  0.60740  0.59480  Biso   1.000  H
  H46      1.0000 0.30540  0.39260  0.40520  Biso   1.000  H
  H47      1.0000 0.60740  0.40520  0.69460  Biso   1.000  H
  H48      1.0000 0.39260  0.40520  0.30540  Biso   1.000  H
  O13      1.0000 0.29552  0.06090  0.20177  Biso   1.000  O
  O14      1.0000 0.93910  0.29552  0.20177  Biso   1.000  O
  O15      1.0000 0.70448  0.93910  0.20177  Biso   1.000  O
  O16      1.0000 0.06090  0.70448  0.20177  Biso   1.000  O
  O17      1.0000 0.29552  0.79823  0.06090  Biso   1.000  O
  O18      1.0000 0.29552  0.93910  0.79823  Biso   1.000  O
  O19      1.0000 0.29552  0.20177  0.93910  Biso   1.000  O
  O20      1.0000 0.20177  0.06090  0.70448  Biso   1.000  O
  O21      1.0000 0.70448  0.06090  0.79823  Biso   1.000  O
  O22      1.0000 0.79823  0.06090  0.29552  Biso   1.000  O
  O23      1.0000 0.20177  0.29552  0.06090  Biso   1.000  O
  O24      1.0000 0.06090  0.20177  0.29552  Biso   1.000  O
  O25      1.0000 0.93910  0.79823  0.29552  Biso   1.000  O
  O26      1.0000 0.20177  0.70448  0.93910  Biso   1.000  O
  O27      1.0000 0.93910  0.20177  0.70448  Biso   1.000  O
  O28      1.0000 0.79823  0.70448  0.06090  Biso   1.000  O
  O29      1.0000 0.79823  0.29552  0.93910  Biso   1.000  O
  O30      1.0000 0.06090  0.79823  0.70448  Biso   1.000  O
  O31      1.0000 0.06090  0.29552  0.79823  Biso   1.000  O
  O32      1.0000 0.93910  0.70448  0.79823  Biso   1.000  O
  O33      1.0000 0.70448  0.20177  0.06090  Biso   1.000  O
  O34      1.0000 0.70448  0.79823  0.93910  Biso   1.000  O
  O35      1.0000 0.20177  0.93910  0.29552  Biso   1.000  O
  O36      1.0000 0.79823  0.93910  0.70448  Biso   1.000  O
  O37      1.0000 0.79552  0.56090  0.70177  Biso   1.000  O
  O38      1.0000 0.43910  0.79552  0.70177  Biso   1.000  O
  O39      1.0000 0.20448  0.43910  0.70177  Biso   1.000  O
  O40      1.0000 0.56090  0.20448  0.70177  Biso   1.000  O
  O41      1.0000 0.79552  0.29823  0.56090  Biso   1.000  O
  O42      1.0000 0.79552  0.43910  0.29823  Biso   1.000  O
  O43      1.0000 0.79552  0.70177  0.43910  Biso   1.000  O
  O44      1.0000 0.70177  0.56090  0.20448  Biso   1.000  O
  O45      1.0000 0.20448  0.56090  0.29823  Biso   1.000  O
  O46      1.0000 0.29823  0.56090  0.79552  Biso   1.000  O
  O47      1.0000 0.70177  0.79552  0.56090  Biso   1.000  O
  O48      1.0000 0.56090  0.70177  0.79552  Biso   1.000  O
  O49      1.0000 0.43910  0.29823  0.79552  Biso   1.000  O
  O50      1.0000 0.70177  0.20448  0.43910  Biso   1.000  O
  O51      1.0000 0.43910  0.70177  0.20448  Biso   1.000  O
  O52      1.0000 0.29823  0.20448  0.56090  Biso   1.000  O
  O53      1.0000 0.29823  0.79552  0.43910  Biso   1.000  O
  O54      1.0000 0.56090  0.29823  0.20448  Biso   1.000  O
  O55      1.0000 0.56090  0.79552  0.29823  Biso   1.000  O
  O56      1.0000 0.43910  0.20448  0.29823  Biso   1.000  O
  O57      1.0000 0.20448  0.70177  0.56090  Biso   1.000  O
  O58      1.0000 0.20448  0.29823  0.43910  Biso   1.000  O
  O59      1.0000 0.70177  0.43910  0.79552  Biso   1.000  O
  O60      1.0000 0.29823  0.43910  0.20448  Biso   1.000  O
  C49      1.0000 0.27784  0.04369  0.11819  Biso   1.000  C
  C50      1.0000 0.95631  0.27784  0.11819  Biso   1.000  C
  C51      1.0000 0.72216  0.95631  0.11819  Biso   1.000  C
  C52      1.0000 0.04369  0.72216  0.11819  Biso   1.000  C
  C53      1.0000 0.27784  0.88181  0.04369  Biso   1.000  C
  C54      1.0000 0.27784  0.95631  0.88181  Biso   1.000  C
  C55      1.0000 0.27784  0.11819  0.95631  Biso   1.000  C
  C56      1.0000 0.11819  0.04369  0.72216  Biso   1.000  C
  C57      1.0000 0.72216  0.04369  0.88181  Biso   1.000  C
  C58      1.0000 0.88181  0.04369  0.27784  Biso   1.000  C
  C59      1.0000 0.11819  0.27784  0.04369  Biso   1.000  C
  C60      1.0000 0.04369  0.11819  0.27784  Biso   1.000  C
  C61      1.0000 0.95631  0.88181  0.27784  Biso   1.000  C
  C62      1.0000 0.11819  0.72216  0.95631  Biso   1.000  C
  C63      1.0000 0.95631  0.11819  0.72216  Biso   1.000  C
  C64      1.0000 0.88181  0.72216  0.04369  Biso   1.000  C
  C65      1.0000 0.88181  0.27784  0.95631  Biso   1.000  C
  C66      1.0000 0.04369  0.88181  0.72216  Biso   1.000  C
  C67      1.0000 0.04369  0.27784  0.88181  Biso   1.000  C
  C68      1.0000 0.95631  0.72216  0.88181  Biso   1.000  C
  C69      1.0000 0.72216  0.11819  0.04369  Biso   1.000  C
  C70      1.0000 0.72216  0.88181  0.95631  Biso   1.000  C
  C71      1.0000 0.11819  0.95631  0.27784  Biso   1.000  C
  C72      1.0000 0.88181  0.95631  0.72216  Biso   1.000  C
  C73      1.0000 0.77784  0.54369  0.61819  Biso   1.000  C
  C74      1.0000 0.45631  0.77784  0.61819  Biso   1.000  C
  C75      1.0000 0.22216  0.45631  0.61819  Biso   1.000  C
  C76      1.0000 0.54369  0.22216  0.61819  Biso   1.000  C
  C77      1.0000 0.77784  0.38181  0.54369  Biso   1.000  C
  C78      1.0000 0.77784  0.45631  0.38181  Biso   1.000  C
  C79      1.0000 0.77784  0.61819  0.45631  Biso   1.000  C
  C80      1.0000 0.61819  0.54369  0.22216  Biso   1.000  C
  C81      1.0000 0.22216  0.54369  0.38181  Biso   1.000  C
  C82      1.0000 0.38181  0.54369  0.77784  Biso   1.000  C
  C83      1.0000 0.61819  0.77784  0.54369  Biso   1.000  C
  C84      1.0000 0.54369  0.61819  0.77784  Biso   1.000  C
  C85      1.0000 0.45631  0.38181  0.77784  Biso   1.000  C
  C86      1.0000 0.61819  0.22216  0.45631  Biso   1.000  C
  C87      1.0000 0.45631  0.61819  0.22216  Biso   1.000  C
  C88      1.0000 0.38181  0.22216  0.54369  Biso   1.000  C
  C89      1.0000 0.38181  0.77784  0.45631  Biso   1.000  C
  C90      1.0000 0.54369  0.38181  0.22216  Biso   1.000  C
  C91      1.0000 0.54369  0.77784  0.38181  Biso   1.000  C
  C92      1.0000 0.45631  0.22216  0.38181  Biso   1.000  C
  C93      1.0000 0.22216  0.61819  0.54369  Biso   1.000  C
  C94      1.0000 0.22216  0.38181  0.45631  Biso   1.000  C
  C95      1.0000 0.61819  0.45631  0.77784  Biso   1.000  C
  C96      1.0000 0.38181  0.45631  0.22216  Biso   1.000  C
  H49      1.0000 0.30040  0.03950  0.13510  Biso   1.000  H
  H50      1.0000 0.96050  0.30040  0.13510  Biso   1.000  H
  H51      1.0000 0.69960  0.96050  0.13510  Biso   1.000  H
  H52      1.0000 0.03950  0.69960  0.13510  Biso   1.000  H
  H53      1.0000 0.30040  0.86490  0.03950  Biso   1.000  H
  H54      1.0000 0.30040  0.96050  0.86490  Biso   1.000  H
  H55      1.0000 0.30040  0.13510  0.96050  Biso   1.000  H
  H56      1.0000 0.13510  0.03950  0.69960  Biso   1.000  H
  H57      1.0000 0.69960  0.03950  0.86490  Biso   1.000  H
  H58      1.0000 0.86490  0.03950  0.30040  Biso   1.000  H
  H59      1.0000 0.13510  0.30040  0.03950  Biso   1.000  H
  H60      1.0000 0.03950  0.13510  0.30040  Biso   1.000  H
  H61      1.0000 0.96050  0.86490  0.30040  Biso   1.000  H
  H62      1.0000 0.13510  0.69960  0.96050  Biso   1.000  H
  H63      1.0000 0.96050  0.13510  0.69960  Biso   1.000  H
  H64      1.0000 0.86490  0.69960  0.03950  Biso   1.000  H
  H65      1.0000 0.86490  0.30040  0.96050  Biso   1.000  H
  H66      1.0000 0.03950  0.86490  0.69960  Biso   1.000  H
  H67      1.0000 0.03950  0.30040  0.86490  Biso   1.000  H
  H68      1.0000 0.96050  0.69960  0.86490  Biso   1.000  H
  H69      1.0000 0.69960  0.13510  0.03950  Biso   1.000  H
  H70      1.0000 0.69960  0.86490  0.96050  Biso   1.000  H
  H71      1.0000 0.13510  0.96050  0.30040  Biso   1.000  H
  H72      1.0000 0.86490  0.96050  0.69960  Biso   1.000  H
  H73      1.0000 0.80040  0.53950  0.63510  Biso   1.000  H
  H74      1.0000 0.46050  0.80040  0.63510  Biso   1.000  H
  H75      1.0000 0.19960  0.46050  0.63510  Biso   1.000  H
  H76      1.0000 0.53950  0.19960  0.63510  Biso   1.000  H
  H77      1.0000 0.80040  0.36490  0.53950  Biso   1.000  H
  H78      1.0000 0.80040  0.46050  0.36490  Biso   1.000  H
  H79      1.0000 0.80040  0.63510  0.46050  Biso   1.000  H
  H80      1.0000 0.63510  0.53950  0.19960  Biso   1.000  H
  H81      1.0000 0.19960  0.53950  0.36490  Biso   1.000  H
  H82      1.0000 0.36490  0.53950  0.80040  Biso   1.000  H
  H83      1.0000 0.63510  0.80040  0.53950  Biso   1.000  H
  H84      1.0000 0.53950  0.63510  0.80040  Biso   1.000  H
  H85      1.0000 0.46050  0.36490  0.80040  Biso   1.000  H
  H86      1.0000 0.63510  0.19960  0.46050  Biso   1.000  H
  H87      1.0000 0.46050  0.63510  0.19960  Biso   1.000  H
  H88      1.0000 0.36490  0.19960  0.53950  Biso   1.000  H
  H89      1.0000 0.36490  0.80040  0.46050  Biso   1.000  H
  H90      1.0000 0.53950  0.36490  0.19960  Biso   1.000  H
  H91      1.0000 0.53950  0.80040  0.36490  Biso   1.000  H
  H92      1.0000 0.46050  0.19960  0.36490  Biso   1.000  H
  H93      1.0000 0.19960  0.63510  0.53950  Biso   1.000  H
  H94      1.0000 0.19960  0.36490  0.46050  Biso   1.000  H
  H95      1.0000 0.63510  0.46050  0.80040  Biso   1.000  H
  H96      1.0000 0.36490  0.46050  0.19960  Biso   1.000  H
  C97      1.0000 0.25235  0.17209  0.29572  Biso   1.000  C
  C98      1.0000 0.82791  0.25235  0.29572  Biso   1.000  C
  C99      1.0000 0.74765  0.82791  0.29572  Biso   1.000  C
  C100     1.0000 0.17209  0.74765  0.29572  Biso   1.000  C
  C101     1.0000 0.25235  0.70428  0.17209  Biso   1.000  C
  C102     1.0000 0.25235  0.82791  0.70428  Biso   1.000  C
  C103     1.0000 0.25235  0.29572  0.82791  Biso   1.000  C
  C104     1.0000 0.29572  0.17209  0.74765  Biso   1.000  C
  C105     1.0000 0.74765  0.17209  0.70428  Biso   1.000  C
  C106     1.0000 0.70428  0.17209  0.25235  Biso   1.000  C
  C107     1.0000 0.29572  0.25235  0.17209  Biso   1.000  C
  C108     1.0000 0.17209  0.29572  0.25235  Biso   1.000  C
  C109     1.0000 0.82791  0.70428  0.25235  Biso   1.000  C
  C110     1.0000 0.29572  0.74765  0.82791  Biso   1.000  C
  C111     1.0000 0.82791  0.29572  0.74765  Biso   1.000  C
  C112     1.0000 0.70428  0.74765  0.17209  Biso   1.000  C
  C113     1.0000 0.70428  0.25235  0.82791  Biso   1.000  C
  C114     1.0000 0.17209  0.70428  0.74765  Biso   1.000  C
  C115     1.0000 0.17209  0.25235  0.70428  Biso   1.000  C
  C116     1.0000 0.82791  0.74765  0.70428  Biso   1.000  C
  C117     1.0000 0.74765  0.29572  0.17209  Biso   1.000  C
  C118     1.0000 0.74765  0.70428  0.82791  Biso   1.000  C
  C119     1.0000 0.29572  0.82791  0.25235  Biso   1.000  C
  C120     1.0000 0.70428  0.82791  0.74765  Biso   1.000  C
  C121     1.0000 0.75235  0.67209  0.79572  Biso   1.000  C
  C122     1.0000 0.32791  0.75235  0.79572  Biso   1.000  C
  C123     1.0000 0.24765  0.32791  0.79572  Biso   1.000  C
  C124     1.0000 0.67209  0.24765  0.79572  Biso   1.000  C
  C125     1.0000 0.75235  0.20428  0.67209  Biso   1.000  C
  C126     1.0000 0.75235  0.32791  0.20428  Biso   1.000  C
  C127     1.0000 0.75235  0.79572  0.32791  Biso   1.000  C
  C128     1.0000 0.79572  0.67209  0.24765  Biso   1.000  C
  C129     1.0000 0.24765  0.67209  0.20428  Biso   1.000  C
  C130     1.0000 0.20428  0.67209  0.75235  Biso   1.000  C
  C131     1.0000 0.79572  0.75235  0.67209  Biso   1.000  C
  C132     1.0000 0.67209  0.79572  0.75235  Biso   1.000  C
  C133     1.0000 0.32791  0.20428  0.75235  Biso   1.000  C
  C134     1.0000 0.79572  0.24765  0.32791  Biso   1.000  C
  C135     1.0000 0.32791  0.79572  0.24765  Biso   1.000  C
  C136     1.0000 0.20428  0.24765  0.67209  Biso   1.000  C
  C137     1.0000 0.20428  0.75235  0.32791  Biso   1.000  C
  C138     1.0000 0.67209  0.20428  0.24765  Biso   1.000  C
  C139     1.0000 0.67209  0.75235  0.20428  Biso   1.000  C
  C140     1.0000 0.32791  0.24765  0.20428  Biso   1.000  C
  C141     1.0000 0.24765  0.79572  0.67209  Biso   1.000  C
  C142     1.0000 0.24765  0.20428  0.32791  Biso   1.000  C
  C143     1.0000 0.79572  0.32791  0.75235  Biso   1.000  C
  C144     1.0000 0.20428  0.32791  0.24765  Biso   1.000  C
  N49      1.0000 0.24638  0.09272  0.16578  Biso   1.000  N
  N50      1.0000 0.90728  0.24638  0.16578  Biso   1.000  N
  N51      1.0000 0.75362  0.90728  0.16578  Biso   1.000  N
  N52      1.0000 0.09272  0.75362  0.16578  Biso   1.000  N
  N53      1.0000 0.24638  0.83422  0.09272  Biso   1.000  N
  N54      1.0000 0.24638  0.90728  0.83422  Biso   1.000  N
  N55      1.0000 0.24638  0.16578  0.90728  Biso   1.000  N
  N56      1.0000 0.16578  0.09272  0.75362  Biso   1.000  N
  N57      1.0000 0.75362  0.09272  0.83422  Biso   1.000  N
  N58      1.0000 0.83422  0.09272  0.24638  Biso   1.000  N
  N59      1.0000 0.16578  0.24638  0.09272  Biso   1.000  N
  N60      1.0000 0.09272  0.16578  0.24638  Biso   1.000  N
  N61      1.0000 0.90728  0.83422  0.24638  Biso   1.000  N
  N62      1.0000 0.16578  0.75362  0.90728  Biso   1.000  N
  N63      1.0000 0.90728  0.16578  0.75362  Biso   1.000  N
  N64      1.0000 0.83422  0.75362  0.09272  Biso   1.000  N
  N65      1.0000 0.83422  0.24638  0.90728  Biso   1.000  N
  N66      1.0000 0.09272  0.83422  0.75362  Biso   1.000  N
  N67      1.0000 0.09272  0.24638  0.83422  Biso   1.000  N
  N68      1.0000 0.90728  0.75362  0.83422  Biso   1.000  N
  N69      1.0000 0.75362  0.16578  0.09272  Biso   1.000  N
  N70      1.0000 0.75362  0.83422  0.90728  Biso   1.000  N
  N71      1.0000 0.16578  0.90728  0.24638  Biso   1.000  N
  N72      1.0000 0.83422  0.90728  0.75362  Biso   1.000  N
  N73      1.0000 0.74638  0.59272  0.66578  Biso   1.000  N
  N74      1.0000 0.40728  0.74638  0.66578  Biso   1.000  N
  N75      1.0000 0.25362  0.40728  0.66578  Biso   1.000  N
  N76      1.0000 0.59272  0.25362  0.66578  Biso   1.000  N
  N77      1.0000 0.74638  0.33422  0.59272  Biso   1.000  N
  N78      1.0000 0.74638  0.40728  0.33422  Biso   1.000  N
  N79      1.0000 0.74638  0.66578  0.40728  Biso   1.000  N
  N80      1.0000 0.66578  0.59272  0.25362  Biso   1.000  N
  N81      1.0000 0.25362  0.59272  0.33422  Biso   1.000  N
  N82      1.0000 0.33422  0.59272  0.74638  Biso   1.000  N
  N83      1.0000 0.66578  0.74638  0.59272  Biso   1.000  N
  N84      1.0000 0.59272  0.66578  0.74638  Biso   1.000  N
  N85      1.0000 0.40728  0.33422  0.74638  Biso   1.000  N
  N86      1.0000 0.66578  0.25362  0.40728  Biso   1.000  N
  N87      1.0000 0.40728  0.66578  0.25362  Biso   1.000  N
  N88      1.0000 0.33422  0.25362  0.59272  Biso   1.000  N
  N89      1.0000 0.33422  0.74638  0.40728  Biso   1.000  N
  N90      1.0000 0.59272  0.33422  0.25362  Biso   1.000  N
  N91      1.0000 0.59272  0.74638  0.33422  Biso   1.000  N
  N92      1.0000 0.40728  0.25362  0.33422  Biso   1.000  N
  N93      1.0000 0.25362  0.66578  0.59272  Biso   1.000  N
  N94      1.0000 0.25362  0.33422  0.40728  Biso   1.000  N
  N95      1.0000 0.66578  0.40728  0.74638  Biso   1.000  N
  N96      1.0000 0.33422  0.40728  0.25362  Biso   1.000  N
  H97      1.0000 0.22790  0.11140  0.16760  Biso   1.000  H
  H98      1.0000 0.88860  0.22790  0.16760  Biso   1.000  H
  H99      1.0000 0.77210  0.88860  0.16760  Biso   1.000  H
  H100     1.0000 0.11140  0.77210  0.16760  Biso   1.000  H
  H101     1.0000 0.22790  0.83240  0.11140  Biso   1.000  H
  H102     1.0000 0.22790  0.88860  0.83240  Biso   1.000  H
  H103     1.0000 0.22790  0.16760  0.88860  Biso   1.000  H
  H104     1.0000 0.16760  0.11140  0.77210  Biso   1.000  H
  H105     1.0000 0.77210  0.11140  0.83240  Biso   1.000  H
  H106     1.0000 0.83240  0.11140  0.22790  Biso   1.000  H
  H107     1.0000 0.16760  0.22790  0.11140  Biso   1.000  H
  H108     1.0000 0.11140  0.16760  0.22790  Biso   1.000  H
  H109     1.0000 0.88860  0.83240  0.22790  Biso   1.000  H
  H110     1.0000 0.16760  0.77210  0.88860  Biso   1.000  H
  H111     1.0000 0.88860  0.16760  0.77210  Biso   1.000  H
  H112     1.0000 0.83240  0.77210  0.11140  Biso   1.000  H
  H113     1.0000 0.83240  0.22790  0.88860  Biso   1.000  H
  H114     1.0000 0.11140  0.83240  0.77210  Biso   1.000  H
  H115     1.0000 0.11140  0.22790  0.83240  Biso   1.000  H
  H116     1.0000 0.88860  0.77210  0.83240  Biso   1.000  H
  H117     1.0000 0.77210  0.16760  0.11140  Biso   1.000  H
  H118     1.0000 0.77210  0.83240  0.88860  Biso   1.000  H
  H119     1.0000 0.16760  0.88860  0.22790  Biso   1.000  H
  H120     1.0000 0.83240  0.88860  0.77210  Biso   1.000  H
  H121     1.0000 0.72790  0.61140  0.66760  Biso   1.000  H
  H122     1.0000 0.38860  0.72790  0.66760  Biso   1.000  H
  H123     1.0000 0.27210  0.38860  0.66760  Biso   1.000  H
  H124     1.0000 0.61140  0.27210  0.66760  Biso   1.000  H
  H125     1.0000 0.72790  0.33240  0.61140  Biso   1.000  H
  H126     1.0000 0.72790  0.38860  0.33240  Biso   1.000  H
  H127     1.0000 0.72790  0.66760  0.38860  Biso   1.000  H
  H128     1.0000 0.66760  0.61140  0.27210  Biso   1.000  H
  H129     1.0000 0.27210  0.61140  0.33240  Biso   1.000  H
  H130     1.0000 0.33240  0.61140  0.72790  Biso   1.000  H
  H131     1.0000 0.66760  0.72790  0.61140  Biso   1.000  H
  H132     1.0000 0.61140  0.66760  0.72790  Biso   1.000  H
  H133     1.0000 0.38860  0.33240  0.72790  Biso   1.000  H
  H134     1.0000 0.66760  0.27210  0.38860  Biso   1.000  H
  H135     1.0000 0.38860  0.66760  0.27210  Biso   1.000  H
  H136     1.0000 0.33240  0.27210  0.61140  Biso   1.000  H
  H137     1.0000 0.33240  0.72790  0.38860  Biso   1.000  H
  H138     1.0000 0.61140  0.33240  0.27210  Biso   1.000  H
  H139     1.0000 0.61140  0.72790  0.33240  Biso   1.000  H
  H140     1.0000 0.38860  0.27210  0.33240  Biso   1.000  H
  H141     1.0000 0.27210  0.66760  0.61140  Biso   1.000  H
  H142     1.0000 0.27210  0.33240  0.38860  Biso   1.000  H
  H143     1.0000 0.66760  0.38860  0.72790  Biso   1.000  H
  H144     1.0000 0.33240  0.38860  0.27210  Biso   1.000  H
  C145     1.0000 0.24719  0.07113  0.12961  Biso   1.000  C
  C146     1.0000 0.92887  0.24719  0.12961  Biso   1.000  C
  C147     1.0000 0.75281  0.92887  0.12961  Biso   1.000  C
  C148     1.0000 0.07113  0.75281  0.12961  Biso   1.000  C
  C149     1.0000 0.24719  0.87039  0.07113  Biso   1.000  C
  C150     1.0000 0.24719  0.92887  0.87039  Biso   1.000  C
  C151     1.0000 0.24719  0.12961  0.92887  Biso   1.000  C
  C152     1.0000 0.12961  0.07113  0.75281  Biso   1.000  C
  C153     1.0000 0.75281  0.07113  0.87039  Biso   1.000  C
  C154     1.0000 0.87039  0.07113  0.24719  Biso   1.000  C
  C155     1.0000 0.12961  0.24719  0.07113  Biso   1.000  C
  C156     1.0000 0.07113  0.12961  0.24719  Biso   1.000  C
  C157     1.0000 0.92887  0.87039  0.24719  Biso   1.000  C
  C158     1.0000 0.12961  0.75281  0.92887  Biso   1.000  C
  C159     1.0000 0.92887  0.12961  0.75281  Biso   1.000  C
  C160     1.0000 0.87039  0.75281  0.07113  Biso   1.000  C
  C161     1.0000 0.87039  0.24719  0.92887  Biso   1.000  C
  C162     1.0000 0.07113  0.87039  0.75281  Biso   1.000  C
  C163     1.0000 0.07113  0.24719  0.87039  Biso   1.000  C
  C164     1.0000 0.92887  0.75281  0.87039  Biso   1.000  C
  C165     1.0000 0.75281  0.12961  0.07113  Biso   1.000  C
  C166     1.0000 0.75281  0.87039  0.92887  Biso   1.000  C
  C167     1.0000 0.12961  0.92887  0.24719  Biso   1.000  C
  C168     1.0000 0.87039  0.92887  0.75281  Biso   1.000  C
  C169     1.0000 0.74719  0.57113  0.62961  Biso   1.000  C
  C170     1.0000 0.42887  0.74719  0.62961  Biso   1.000  C
  C171     1.0000 0.25281  0.42887  0.62961  Biso   1.000  C
  C172     1.0000 0.57113  0.25281  0.62961  Biso   1.000  C
  C173     1.0000 0.74719  0.37039  0.57113  Biso   1.000  C
  C174     1.0000 0.74719  0.42887  0.37039  Biso   1.000  C
  C175     1.0000 0.74719  0.62961  0.42887  Biso   1.000  C
  C176     1.0000 0.62961  0.57113  0.25281  Biso   1.000  C
  C177     1.0000 0.25281  0.57113  0.37039  Biso   1.000  C
  C178     1.0000 0.37039  0.57113  0.74719  Biso   1.000  C
  C179     1.0000 0.62961  0.74719  0.57113  Biso   1.000  C
  C180     1.0000 0.57113  0.62961  0.74719  Biso   1.000  C
  C181     1.0000 0.42887  0.37039  0.74719  Biso   1.000  C
  C182     1.0000 0.62961  0.25281  0.42887  Biso   1.000  C
  C183     1.0000 0.42887  0.62961  0.25281  Biso   1.000  C
  C184     1.0000 0.37039  0.25281  0.57113  Biso   1.000  C
  C185     1.0000 0.37039  0.74719  0.42887  Biso   1.000  C
  C186     1.0000 0.57113  0.37039  0.25281  Biso   1.000  C
  C187     1.0000 0.57113  0.74719  0.37039  Biso   1.000  C
  C188     1.0000 0.42887  0.25281  0.37039  Biso   1.000  C
  C189     1.0000 0.25281  0.62961  0.57113  Biso   1.000  C
  C190     1.0000 0.25281  0.37039  0.42887  Biso   1.000  C
  C191     1.0000 0.62961  0.42887  0.74719  Biso   1.000  C
  C192     1.0000 0.37039  0.42887  0.25281  Biso   1.000  C
  C193     1.0000 0.21616  0.05606  0.06581  Biso   1.000  C
  C194     1.0000 0.94394  0.21616  0.06581  Biso   1.000  C
  C195     1.0000 0.78384  0.94394  0.06581  Biso   1.000  C
  C196     1.0000 0.05606  0.78384  0.06581  Biso   1.000  C
  C197     1.0000 0.21616  0.93419  0.05606  Biso   1.000  C
  C198     1.0000 0.21616  0.94394  0.93419  Biso   1.000  C
  C199     1.0000 0.21616  0.06581  0.94394  Biso   1.000  C
  C200     1.0000 0.06581  0.05606  0.78384  Biso   1.000  C
  C201     1.0000 0.78384  0.05606  0.93419  Biso   1.000  C
  C202     1.0000 0.93419  0.05606  0.21616  Biso   1.000  C
  C203     1.0000 0.06581  0.21616  0.05606  Biso   1.000  C
  C204     1.0000 0.05606  0.06581  0.21616  Biso   1.000  C
  C205     1.0000 0.94394  0.93419  0.21616  Biso   1.000  C
  C206     1.0000 0.06581  0.78384  0.94394  Biso   1.000  C
  C207     1.0000 0.94394  0.06581  0.78384  Biso   1.000  C
  C208     1.0000 0.93419  0.78384  0.05606  Biso   1.000  C
  C209     1.0000 0.93419  0.21616  0.94394  Biso   1.000  C
  C210     1.0000 0.05606  0.93419  0.78384  Biso   1.000  C
  C211     1.0000 0.05606  0.21616  0.93419  Biso   1.000  C
  C212     1.0000 0.94394  0.78384  0.93419  Biso   1.000  C
  C213     1.0000 0.78384  0.06581  0.05606  Biso   1.000  C
  C214     1.0000 0.78384  0.93419  0.94394  Biso   1.000  C
  C215     1.0000 0.06581  0.94394  0.21616  Biso   1.000  C
  C216     1.0000 0.93419  0.94394  0.78384  Biso   1.000  C
  C217     1.0000 0.71616  0.55606  0.56581  Biso   1.000  C
  C218     1.0000 0.44394  0.71616  0.56581  Biso   1.000  C
  C219     1.0000 0.28384  0.44394  0.56581  Biso   1.000  C
  C220     1.0000 0.55606  0.28384  0.56581  Biso   1.000  C
  C221     1.0000 0.71616  0.43419  0.55606  Biso   1.000  C
  C222     1.0000 0.71616  0.44394  0.43419  Biso   1.000  C
  C223     1.0000 0.71616  0.56581  0.44394  Biso   1.000  C
  C224     1.0000 0.56581  0.55606  0.28384  Biso   1.000  C
  C225     1.0000 0.28384  0.55606  0.43419  Biso   1.000  C
  C226     1.0000 0.43419  0.55606  0.71616  Biso   1.000  C
  C227     1.0000 0.56581  0.71616  0.55606  Biso   1.000  C
  C228     1.0000 0.55606  0.56581  0.71616  Biso   1.000  C
  C229     1.0000 0.44394  0.43419  0.71616  Biso   1.000  C
  C230     1.0000 0.56581  0.28384  0.44394  Biso   1.000  C
  C231     1.0000 0.44394  0.56581  0.28384  Biso   1.000  C
  C232     1.0000 0.43419  0.28384  0.55606  Biso   1.000  C
  C233     1.0000 0.43419  0.71616  0.44394  Biso   1.000  C
  C234     1.0000 0.55606  0.43419  0.28384  Biso   1.000  C
  C235     1.0000 0.55606  0.71616  0.43419  Biso   1.000  C
  C236     1.0000 0.44394  0.28384  0.43419  Biso   1.000  C
  C237     1.0000 0.28384  0.56581  0.55606  Biso   1.000  C
  C238     1.0000 0.28384  0.43419  0.44394  Biso   1.000  C
  C239     1.0000 0.56581  0.44394  0.71616  Biso   1.000  C
  C240     1.0000 0.43419  0.44394  0.28384  Biso   1.000  C
  H145     1.0000 0.19460  0.06060  0.04770  Biso   1.000  H
  H146     1.0000 0.93940  0.19460  0.04770  Biso   1.000  H
  H147     1.0000 0.80540  0.93940  0.04770  Biso   1.000  H
  H148     1.0000 0.06060  0.80540  0.04770  Biso   1.000  H
  H149     1.0000 0.19460  0.95230  0.06060  Biso   1.000  H
  H150     1.0000 0.19460  0.93940  0.95230  Biso   1.000  H
  H151     1.0000 0.19460  0.04770  0.93940  Biso   1.000  H
  H152     1.0000 0.04770  0.06060  0.80540  Biso   1.000  H
  H153     1.0000 0.80540  0.06060  0.95230  Biso   1.000  H
  H154     1.0000 0.95230  0.06060  0.19460  Biso   1.000  H
  H155     1.0000 0.04770  0.19460  0.06060  Biso   1.000  H
  H156     1.0000 0.06060  0.04770  0.19460  Biso   1.000  H
  H157     1.0000 0.93940  0.95230  0.19460  Biso   1.000  H
  H158     1.0000 0.04770  0.80540  0.93940  Biso   1.000  H
  H159     1.0000 0.93940  0.04770  0.80540  Biso   1.000  H
  H160     1.0000 0.95230  0.80540  0.06060  Biso   1.000  H
  H161     1.0000 0.95230  0.19460  0.93940  Biso   1.000  H
  H162     1.0000 0.06060  0.95230  0.80540  Biso   1.000  H
  H163     1.0000 0.06060  0.19460  0.95230  Biso   1.000  H
  H164     1.0000 0.93940  0.80540  0.95230  Biso   1.000  H
  H165     1.0000 0.80540  0.04770  0.06060  Biso   1.000  H
  H166     1.0000 0.80540  0.95230  0.93940  Biso   1.000  H
  H167     1.0000 0.04770  0.93940  0.19460  Biso   1.000  H
  H168     1.0000 0.95230  0.93940  0.80540  Biso   1.000  H
  H169     1.0000 0.69460  0.56060  0.54770  Biso   1.000  H
  H170     1.0000 0.43940  0.69460  0.54770  Biso   1.000  H
  H171     1.0000 0.30540  0.43940  0.54770  Biso   1.000  H
  H172     1.0000 0.56060  0.30540  0.54770  Biso   1.000  H
  H173     1.0000 0.69460  0.45230  0.56060  Biso   1.000  H
  H174     1.0000 0.69460  0.43940  0.45230  Biso   1.000  H
  H175     1.0000 0.69460  0.54770  0.43940  Biso   1.000  H
  H176     1.0000 0.54770  0.56060  0.30540  Biso   1.000  H
  H177     1.0000 0.30540  0.56060  0.45230  Biso   1.000  H
  H178     1.0000 0.45230  0.56060  0.69460  Biso   1.000  H
  H179     1.0000 0.54770  0.69460  0.56060  Biso   1.000  H
  H180     1.0000 0.56060  0.54770  0.69460  Biso   1.000  H
  H181     1.0000 0.43940  0.45230  0.69460  Biso   1.000  H
  H182     1.0000 0.54770  0.30540  0.43940  Biso   1.000  H
  H183     1.0000 0.43940  0.54770  0.30540  Biso   1.000  H
  H184     1.0000 0.45230  0.30540  0.56060  Biso   1.000  H
  H185     1.0000 0.45230  0.69460  0.43940  Biso   1.000  H
  H186     1.0000 0.56060  0.45230  0.30540  Biso   1.000  H
  H187     1.0000 0.56060  0.69460  0.45230  Biso   1.000  H
  H188     1.0000 0.43940  0.30540  0.45230  Biso   1.000  H
  H189     1.0000 0.30540  0.54770  0.56060  Biso   1.000  H
  H190     1.0000 0.30540  0.45230  0.43940  Biso   1.000  H
  H191     1.0000 0.54770  0.43940  0.69460  Biso   1.000  H
  H192     1.0000 0.45230  0.43940  0.30540  Biso   1.000  H
  C241     1.0000 0.26781  0.10301  0.27298  Biso   1.000  C
  C242     1.0000 0.89699  0.26781  0.27298  Biso   1.000  C
  C243     1.0000 0.73219  0.89699  0.27298  Biso   1.000  C
  C244     1.0000 0.10301  0.73219  0.27298  Biso   1.000  C
  C245     1.0000 0.26781  0.72702  0.10301  Biso   1.000  C
  C246     1.0000 0.26781  0.89699  0.72702  Biso   1.000  C
  C247     1.0000 0.26781  0.27298  0.89699  Biso   1.000  C
  C248     1.0000 0.27298  0.10301  0.73219  Biso   1.000  C
  C249     1.0000 0.73219  0.10301  0.72702  Biso   1.000  C
  C250     1.0000 0.72702  0.10301  0.26781  Biso   1.000  C
  C251     1.0000 0.27298  0.26781  0.10301  Biso   1.000  C
  C252     1.0000 0.10301  0.27298  0.26781  Biso   1.000  C
  C253     1.0000 0.89699  0.72702  0.26781  Biso   1.000  C
  C254     1.0000 0.27298  0.73219  0.89699  Biso   1.000  C
  C255     1.0000 0.89699  0.27298  0.73219  Biso   1.000  C
  C256     1.0000 0.72702  0.73219  0.10301  Biso   1.000  C
  C257     1.0000 0.72702  0.26781  0.89699  Biso   1.000  C
  C258     1.0000 0.10301  0.72702  0.73219  Biso   1.000  C
  C259     1.0000 0.10301  0.26781  0.72702  Biso   1.000  C
  C260     1.0000 0.89699  0.73219  0.72702  Biso   1.000  C
  C261     1.0000 0.73219  0.27298  0.10301  Biso   1.000  C
  C262     1.0000 0.73219  0.72702  0.89699  Biso   1.000  C
  C263     1.0000 0.27298  0.89699  0.26781  Biso   1.000  C
  C264     1.0000 0.72702  0.89699  0.73219  Biso   1.000  C
  C265     1.0000 0.76781  0.60301  0.77298  Biso   1.000  C
  C266     1.0000 0.39699  0.76781  0.77298  Biso   1.000  C
  C267     1.0000 0.23219  0.39699  0.77298  Biso   1.000  C
  C268     1.0000 0.60301  0.23219  0.77298  Biso   1.000  C
  C269     1.0000 0.76781  0.22702  0.60301  Biso   1.000  C
  C270     1.0000 0.76781  0.39699  0.22702  Biso   1.000  C
  C271     1.0000 0.76781  0.77298  0.39699  Biso   1.000  C
  C272     1.0000 0.77298  0.60301  0.23219  Biso   1.000  C
  C273     1.0000 0.23219  0.60301  0.22702  Biso   1.000  C
  C274     1.0000 0.22702  0.60301  0.76781  Biso   1.000  C
  C275     1.0000 0.77298  0.76781  0.60301  Biso   1.000  C
  C276     1.0000 0.60301  0.77298  0.76781  Biso   1.000  C
  C277     1.0000 0.39699  0.22702  0.76781  Biso   1.000  C
  C278     1.0000 0.77298  0.23219  0.39699  Biso   1.000  C
  C279     1.0000 0.39699  0.77298  0.23219  Biso   1.000  C
  C280     1.0000 0.22702  0.23219  0.60301  Biso   1.000  C
  C281     1.0000 0.22702  0.76781  0.39699  Biso   1.000  C
  C282     1.0000 0.60301  0.22702  0.23219  Biso   1.000  C
  C283     1.0000 0.60301  0.76781  0.22702  Biso   1.000  C
  C284     1.0000 0.39699  0.23219  0.22702  Biso   1.000  C
  C285     1.0000 0.23219  0.77298  0.60301  Biso   1.000  C
  C286     1.0000 0.23219  0.22702  0.39699  Biso   1.000  C
  C287     1.0000 0.77298  0.39699  0.76781  Biso   1.000  C
  C288     1.0000 0.22702  0.39699  0.23219  Biso   1.000  C
  H193     1.0000 0.27480  0.07590  0.27830  Biso   1.000  H
  H194     1.0000 0.92410  0.27480  0.27830  Biso   1.000  H
  H195     1.0000 0.72520  0.92410  0.27830  Biso   1.000  H
  H196     1.0000 0.07590  0.72520  0.27830  Biso   1.000  H
  H197     1.0000 0.27480  0.72170  0.07590  Biso   1.000  H
  H198     1.0000 0.27480  0.92410  0.72170  Biso   1.000  H
  H199     1.0000 0.27480  0.27830  0.92410  Biso   1.000  H
  H200     1.0000 0.27830  0.07590  0.72520  Biso   1.000  H
  H201     1.0000 0.72520  0.07590  0.72170  Biso   1.000  H
  H202     1.0000 0.72170  0.07590  0.27480  Biso   1.000  H
  H203     1.0000 0.27830  0.27480  0.07590  Biso   1.000  H
  H204     1.0000 0.07590  0.27830  0.27480  Biso   1.000  H
  H205     1.0000 0.92410  0.72170  0.27480  Biso   1.000  H
  H206     1.0000 0.27830  0.72520  0.92410  Biso   1.000  H
  H207     1.0000 0.92410  0.27830  0.72520  Biso   1.000  H
  H208     1.0000 0.72170  0.72520  0.07590  Biso   1.000  H
  H209     1.0000 0.72170  0.27480  0.92410  Biso   1.000  H
  H210     1.0000 0.07590  0.72170  0.72520  Biso   1.000  H
  H211     1.0000 0.07590  0.27480  0.72170  Biso   1.000  H
  H212     1.0000 0.92410  0.72520  0.72170  Biso   1.000  H
  H213     1.0000 0.72520  0.27830  0.07590  Biso   1.000  H
  H214     1.0000 0.72520  0.72170  0.92410  Biso   1.000  H
  H215     1.0000 0.27830  0.92410  0.27480  Biso   1.000  H
  H216     1.0000 0.72170  0.92410  0.72520  Biso   1.000  H
  H217     1.0000 0.77480  0.57590  0.77830  Biso   1.000  H
  H218     1.0000 0.42410  0.77480  0.77830  Biso   1.000  H
  H219     1.0000 0.22520  0.42410  0.77830  Biso   1.000  H
  H220     1.0000 0.57590  0.22520  0.77830  Biso   1.000  H
  H221     1.0000 0.77480  0.22170  0.57590  Biso   1.000  H
  H222     1.0000 0.77480  0.42410  0.22170  Biso   1.000  H
  H223     1.0000 0.77480  0.77830  0.42410  Biso   1.000  H
  H224     1.0000 0.77830  0.57590  0.22520  Biso   1.000  H
  H225     1.0000 0.22520  0.57590  0.22170  Biso   1.000  H
  H226     1.0000 0.22170  0.57590  0.77480  Biso   1.000  H
  H227     1.0000 0.77830  0.77480  0.57590  Biso   1.000  H
  H228     1.0000 0.57590  0.77830  0.77480  Biso   1.000  H
  H229     1.0000 0.42410  0.22170  0.77480  Biso   1.000  H
  H230     1.0000 0.77830  0.22520  0.42410  Biso   1.000  H
  H231     1.0000 0.42410  0.77830  0.22520  Biso   1.000  H
  H232     1.0000 0.22170  0.22520  0.57590  Biso   1.000  H
  H233     1.0000 0.22170  0.77480  0.42410  Biso   1.000  H
  H234     1.0000 0.57590  0.22170  0.22520  Biso   1.000  H
  H235     1.0000 0.57590  0.77480  0.22170  Biso   1.000  H
  H236     1.0000 0.42410  0.22520  0.22170  Biso   1.000  H
  H237     1.0000 0.22520  0.77830  0.57590  Biso   1.000  H
  H238     1.0000 0.22520  0.22170  0.42410  Biso   1.000  H
  H239     1.0000 0.77830  0.42410  0.77480  Biso   1.000  H
  H240     1.0000 0.22170  0.42410  0.22520  Biso   1.000  H
  C289     1.0000 0.26413  0.11748  0.23294  Biso   1.000  C
  C290     1.0000 0.88252  0.26413  0.23294  Biso   1.000  C
  C291     1.0000 0.73587  0.88252  0.23294  Biso   1.000  C
  C292     1.0000 0.11748  0.73587  0.23294  Biso   1.000  C
  C293     1.0000 0.26413  0.76706  0.11748  Biso   1.000  C
  C294     1.0000 0.26413  0.88252  0.76706  Biso   1.000  C
  C295     1.0000 0.26413  0.23294  0.88252  Biso   1.000  C
  C296     1.0000 0.23294  0.11748  0.73587  Biso   1.000  C
  C297     1.0000 0.73587  0.11748  0.76706  Biso   1.000  C
  C298     1.0000 0.76706  0.11748  0.26413  Biso   1.000  C
  C299     1.0000 0.23294  0.26413  0.11748  Biso   1.000  C
  C300     1.0000 0.11748  0.23294  0.26413  Biso   1.000  C
  C301     1.0000 0.88252  0.76706  0.26413  Biso   1.000  C
  C302     1.0000 0.23294  0.73587  0.88252  Biso   1.000  C
  C303     1.0000 0.88252  0.23294  0.73587  Biso   1.000  C
  C304     1.0000 0.76706  0.73587  0.11748  Biso   1.000  C
  C305     1.0000 0.76706  0.26413  0.88252  Biso   1.000  C
  C306     1.0000 0.11748  0.76706  0.73587  Biso   1.000  C
  C307     1.0000 0.11748  0.26413  0.76706  Biso   1.000  C
  C308     1.0000 0.88252  0.73587  0.76706  Biso   1.000  C
  C309     1.0000 0.73587  0.23294  0.11748  Biso   1.000  C
  C310     1.0000 0.73587  0.76706  0.88252  Biso   1.000  C
  C311     1.0000 0.23294  0.88252  0.26413  Biso   1.000  C
  C312     1.0000 0.76706  0.88252  0.73587  Biso   1.000  C
  C313     1.0000 0.76413  0.61748  0.73294  Biso   1.000  C
  C314     1.0000 0.38252  0.76413  0.73294  Biso   1.000  C
  C315     1.0000 0.23587  0.38252  0.73294  Biso   1.000  C
  C316     1.0000 0.61748  0.23587  0.73294  Biso   1.000  C
  C317     1.0000 0.76413  0.26706  0.61748  Biso   1.000  C
  C318     1.0000 0.76413  0.38252  0.26706  Biso   1.000  C
  C319     1.0000 0.76413  0.73294  0.38252  Biso   1.000  C
  C320     1.0000 0.73294  0.61748  0.23587  Biso   1.000  C
  C321     1.0000 0.23587  0.61748  0.26706  Biso   1.000  C
  C322     1.0000 0.26706  0.61748  0.76413  Biso   1.000  C
  C323     1.0000 0.73294  0.76413  0.61748  Biso   1.000  C
  C324     1.0000 0.61748  0.73294  0.76413  Biso   1.000  C
  C325     1.0000 0.38252  0.26706  0.76413  Biso   1.000  C
  C326     1.0000 0.73294  0.23587  0.38252  Biso   1.000  C
  C327     1.0000 0.38252  0.73294  0.23587  Biso   1.000  C
  C328     1.0000 0.26706  0.23587  0.61748  Biso   1.000  C
  C329     1.0000 0.26706  0.76413  0.38252  Biso   1.000  C
  C330     1.0000 0.61748  0.26706  0.23587  Biso   1.000  C
  C331     1.0000 0.61748  0.76413  0.26706  Biso   1.000  C
  C332     1.0000 0.38252  0.23587  0.26706  Biso   1.000  C
  C333     1.0000 0.23587  0.73294  0.61748  Biso   1.000  C
  C334     1.0000 0.23587  0.26706  0.38252  Biso   1.000  C
  C335     1.0000 0.73294  0.38252  0.76413  Biso   1.000  C
  C336     1.0000 0.26706  0.38252  0.23587  Biso   1.000  C
  C337     1.0000 0.25607  0.15902  0.22701  Biso   1.000  C
  C338     1.0000 0.84098  0.25607  0.22701  Biso   1.000  C
  C339     1.0000 0.74393  0.84098  0.22701  Biso   1.000  C
  C340     1.0000 0.15902  0.74393  0.22701  Biso   1.000  C
  C341     1.0000 0.25607  0.77299  0.15902  Biso   1.000  C
  C342     1.0000 0.25607  0.84098  0.77299  Biso   1.000  C
  C343     1.0000 0.25607  0.22701  0.84098  Biso   1.000  C
  C344     1.0000 0.22701  0.15902  0.74393  Biso   1.000  C
  C345     1.0000 0.74393  0.15902  0.77299  Biso   1.000  C
  C346     1.0000 0.77299  0.15902  0.25607  Biso   1.000  C
  C347     1.0000 0.22701  0.25607  0.15902  Biso   1.000  C
  C348     1.0000 0.15902  0.22701  0.25607  Biso   1.000  C
  C349     1.0000 0.84098  0.77299  0.25607  Biso   1.000  C
  C350     1.0000 0.22701  0.74393  0.84098  Biso   1.000  C
  C351     1.0000 0.84098  0.22701  0.74393  Biso   1.000  C
  C352     1.0000 0.77299  0.74393  0.15902  Biso   1.000  C
  C353     1.0000 0.77299  0.25607  0.84098  Biso   1.000  C
  C354     1.0000 0.15902  0.77299  0.74393  Biso   1.000  C
  C355     1.0000 0.15902  0.25607  0.77299  Biso   1.000  C
  C356     1.0000 0.84098  0.74393  0.77299  Biso   1.000  C
  C357     1.0000 0.74393  0.22701  0.15902  Biso   1.000  C
  C358     1.0000 0.74393  0.77299  0.84098  Biso   1.000  C
  C359     1.0000 0.22701  0.84098  0.25607  Biso   1.000  C
  C360     1.0000 0.77299  0.84098  0.74393  Biso   1.000  C
  C361     1.0000 0.75607  0.65902  0.72701  Biso   1.000  C
  C362     1.0000 0.34098  0.75607  0.72701  Biso   1.000  C
  C363     1.0000 0.24393  0.34098  0.72701  Biso   1.000  C
  C364     1.0000 0.65902  0.24393  0.72701  Biso   1.000  C
  C365     1.0000 0.75607  0.27299  0.65902  Biso   1.000  C
  C366     1.0000 0.75607  0.34098  0.27299  Biso   1.000  C
  C367     1.0000 0.75607  0.72701  0.34098  Biso   1.000  C
  C368     1.0000 0.72701  0.65902  0.24393  Biso   1.000  C
  C369     1.0000 0.24393  0.65902  0.27299  Biso   1.000  C
  C370     1.0000 0.27299  0.65902  0.75607  Biso   1.000  C
  C371     1.0000 0.72701  0.75607  0.65902  Biso   1.000  C
  C372     1.0000 0.65902  0.72701  0.75607  Biso   1.000  C
  C373     1.0000 0.34098  0.27299  0.75607  Biso   1.000  C
  C374     1.0000 0.72701  0.24393  0.34098  Biso   1.000  C
  C375     1.0000 0.34098  0.72701  0.24393  Biso   1.000  C
  C376     1.0000 0.27299  0.24393  0.65902  Biso   1.000  C
  C377     1.0000 0.27299  0.75607  0.34098  Biso   1.000  C
  C378     1.0000 0.65902  0.27299  0.24393  Biso   1.000  C
  C379     1.0000 0.65902  0.75607  0.27299  Biso   1.000  C
  C380     1.0000 0.34098  0.24393  0.27299  Biso   1.000  C
  C381     1.0000 0.24393  0.72701  0.65902  Biso   1.000  C
  C382     1.0000 0.24393  0.27299  0.34098  Biso   1.000  C
  C383     1.0000 0.72701  0.34098  0.75607  Biso   1.000  C
  C384     1.0000 0.27299  0.34098  0.24393  Biso   1.000  C
  H241     1.0000 0.25380  0.16850  0.20020  Biso   1.000  H
  H242     1.0000 0.83150  0.25380  0.20020  Biso   1.000  H
  H243     1.0000 0.74620  0.83150  0.20020  Biso   1.000  H
  H244     1.0000 0.16850  0.74620  0.20020  Biso   1.000  H
  H245     1.0000 0.25380  0.79980  0.16850  Biso   1.000  H
  H246     1.0000 0.25380  0.83150  0.79980  Biso   1.000  H
  H247     1.0000 0.25380  0.20020  0.83150  Biso   1.000  H
  H248     1.0000 0.20020  0.16850  0.74620  Biso   1.000  H
  H249     1.0000 0.74620  0.16850  0.79980  Biso   1.000  H
  H250     1.0000 0.79980  0.16850  0.25380  Biso   1.000  H
  H251     1.0000 0.20020  0.25380  0.16850  Biso   1.000  H
  H252     1.0000 0.16850  0.20020  0.25380  Biso   1.000  H
  H253     1.0000 0.83150  0.79980  0.25380  Biso   1.000  H
  H254     1.0000 0.20020  0.74620  0.83150  Biso   1.000  H
  H255     1.0000 0.83150  0.20020  0.74620  Biso   1.000  H
  H256     1.0000 0.79980  0.74620  0.16850  Biso   1.000  H
  H257     1.0000 0.79980  0.25380  0.83150  Biso   1.000  H
  H258     1.0000 0.16850  0.79980  0.74620  Biso   1.000  H
  H259     1.0000 0.16850  0.25380  0.79980  Biso   1.000  H
  H260     1.0000 0.83150  0.74620  0.79980  Biso   1.000  H
  H261     1.0000 0.74620  0.20020  0.16850  Biso   1.000  H
  H262     1.0000 0.74620  0.79980  0.83150  Biso   1.000  H
  H263     1.0000 0.20020  0.83150  0.25380  Biso   1.000  H
  H264     1.0000 0.79980  0.83150  0.74620  Biso   1.000  H
  H265     1.0000 0.75380  0.66850  0.70020  Biso   1.000  H
  H266     1.0000 0.33150  0.75380  0.70020  Biso   1.000  H
  H267     1.0000 0.24620  0.33150  0.70020  Biso   1.000  H
  H268     1.0000 0.66850  0.24620  0.70020  Biso   1.000  H
  H269     1.0000 0.75380  0.29980  0.66850  Biso   1.000  H
  H270     1.0000 0.75380  0.33150  0.29980  Biso   1.000  H
  H271     1.0000 0.75380  0.70020  0.33150  Biso   1.000  H
  H272     1.0000 0.70020  0.66850  0.24620  Biso   1.000  H
  H273     1.0000 0.24620  0.66850  0.29980  Biso   1.000  H
  H274     1.0000 0.29980  0.66850  0.75380  Biso   1.000  H
  H275     1.0000 0.70020  0.75380  0.66850  Biso   1.000  H
  H276     1.0000 0.66850  0.70020  0.75380  Biso   1.000  H
  H277     1.0000 0.33150  0.29980  0.75380  Biso   1.000  H
  H278     1.0000 0.70020  0.24620  0.33150  Biso   1.000  H
  H279     1.0000 0.33150  0.70020  0.24620  Biso   1.000  H
  H280     1.0000 0.29980  0.24620  0.66850  Biso   1.000  H
  H281     1.0000 0.29980  0.75380  0.33150  Biso   1.000  H
  H282     1.0000 0.66850  0.29980  0.24620  Biso   1.000  H
  H283     1.0000 0.66850  0.75380  0.29980  Biso   1.000  H
  H284     1.0000 0.33150  0.24620  0.29980  Biso   1.000  H
  H285     1.0000 0.24620  0.70020  0.66850  Biso   1.000  H
  H286     1.0000 0.24620  0.29980  0.33150  Biso   1.000  H
  H287     1.0000 0.70020  0.33150  0.75380  Biso   1.000  H
  H288     1.0000 0.29980  0.33150  0.24620  Biso   1.000  H
  C385     1.0000 0.27044  0.08840  0.19831  Biso   1.000  C
  C386     1.0000 0.91160  0.27044  0.19831  Biso   1.000  C
  C387     1.0000 0.72956  0.91160  0.19831  Biso   1.000  C
  C388     1.0000 0.08840  0.72956  0.19831  Biso   1.000  C
  C389     1.0000 0.27044  0.80169  0.08840  Biso   1.000  C
  C390     1.0000 0.27044  0.91160  0.80169  Biso   1.000  C
  C391     1.0000 0.27044  0.19831  0.91160  Biso   1.000  C
  C392     1.0000 0.19831  0.08840  0.72956  Biso   1.000  C
  C393     1.0000 0.72956  0.08840  0.80169  Biso   1.000  C
  C394     1.0000 0.80169  0.08840  0.27044  Biso   1.000  C
  C395     1.0000 0.19831  0.27044  0.08840  Biso   1.000  C
  C396     1.0000 0.08840  0.19831  0.27044  Biso   1.000  C
  C397     1.0000 0.91160  0.80169  0.27044  Biso   1.000  C
  C398     1.0000 0.19831  0.72956  0.91160  Biso   1.000  C
  C399     1.0000 0.91160  0.19831  0.72956  Biso   1.000  C
  C400     1.0000 0.80169  0.72956  0.08840  Biso   1.000  C
  C401     1.0000 0.80169  0.27044  0.91160  Biso   1.000  C
  C402     1.0000 0.08840  0.80169  0.72956  Biso   1.000  C
  C403     1.0000 0.08840  0.27044  0.80169  Biso   1.000  C
  C404     1.0000 0.91160  0.72956  0.80169  Biso   1.000  C
  C405     1.0000 0.72956  0.19831  0.08840  Biso   1.000  C
  C406     1.0000 0.72956  0.80169  0.91160  Biso   1.000  C
  C407     1.0000 0.19831  0.91160  0.27044  Biso   1.000  C
  C408     1.0000 0.80169  0.91160  0.72956  Biso   1.000  C
  C409     1.0000 0.77044  0.58840  0.69831  Biso   1.000  C
  C410     1.0000 0.41160  0.77044  0.69831  Biso   1.000  C
  C411     1.0000 0.22956  0.41160  0.69831  Biso   1.000  C
  C412     1.0000 0.58840  0.22956  0.69831  Biso   1.000  C
  C413     1.0000 0.77044  0.30169  0.58840  Biso   1.000  C
  C414     1.0000 0.77044  0.41160  0.30169  Biso   1.000  C
  C415     1.0000 0.77044  0.69831  0.41160  Biso   1.000  C
  C416     1.0000 0.69831  0.58840  0.22956  Biso   1.000  C
  C417     1.0000 0.22956  0.58840  0.30169  Biso   1.000  C
  C418     1.0000 0.30169  0.58840  0.77044  Biso   1.000  C
  C419     1.0000 0.69831  0.77044  0.58840  Biso   1.000  C
  C420     1.0000 0.58840  0.69831  0.77044  Biso   1.000  C
  C421     1.0000 0.41160  0.30169  0.77044  Biso   1.000  C
  C422     1.0000 0.69831  0.22956  0.41160  Biso   1.000  C
  C423     1.0000 0.41160  0.69831  0.22956  Biso   1.000  C
  C424     1.0000 0.30169  0.22956  0.58840  Biso   1.000  C
  C425     1.0000 0.30169  0.77044  0.41160  Biso   1.000  C
  C426     1.0000 0.58840  0.30169  0.22956  Biso   1.000  C
  C427     1.0000 0.58840  0.77044  0.30169  Biso   1.000  C
  C428     1.0000 0.41160  0.22956  0.30169  Biso   1.000  C
  C429     1.0000 0.22956  0.69831  0.58840  Biso   1.000  C
  C430     1.0000 0.22956  0.30169  0.41160  Biso   1.000  C
  C431     1.0000 0.69831  0.41160  0.77044  Biso   1.000  C
  C432     1.0000 0.30169  0.41160  0.22956  Biso   1.000  C
  C433     1.0000 0.26028  0.13167  0.30596  Biso   1.000  C
  C434     1.0000 0.86833  0.26028  0.30596  Biso   1.000  C
  C435     1.0000 0.73972  0.86833  0.30596  Biso   1.000  C
  C436     1.0000 0.13167  0.73972  0.30596  Biso   1.000  C
  C437     1.0000 0.26028  0.69404  0.13167  Biso   1.000  C
  C438     1.0000 0.26028  0.86833  0.69404  Biso   1.000  C
  C439     1.0000 0.26028  0.30596  0.86833  Biso   1.000  C
  C440     1.0000 0.30596  0.13167  0.73972  Biso   1.000  C
  C441     1.0000 0.73972  0.13167  0.69404  Biso   1.000  C
  C442     1.0000 0.69404  0.13167  0.26028  Biso   1.000  C
  C443     1.0000 0.30596  0.26028  0.13167  Biso   1.000  C
  C444     1.0000 0.13167  0.30596  0.26028  Biso   1.000  C
  C445     1.0000 0.86833  0.69404  0.26028  Biso   1.000  C
  C446     1.0000 0.30596  0.73972  0.86833  Biso   1.000  C
  C447     1.0000 0.86833  0.30596  0.73972  Biso   1.000  C
  C448     1.0000 0.69404  0.73972  0.13167  Biso   1.000  C
  C449     1.0000 0.69404  0.26028  0.86833  Biso   1.000  C
  C450     1.0000 0.13167  0.69404  0.73972  Biso   1.000  C
  C451     1.0000 0.13167  0.26028  0.69404  Biso   1.000  C
  C452     1.0000 0.86833  0.73972  0.69404  Biso   1.000  C
  C453     1.0000 0.73972  0.30596  0.13167  Biso   1.000  C
  C454     1.0000 0.73972  0.69404  0.86833  Biso   1.000  C
  C455     1.0000 0.30596  0.86833  0.26028  Biso   1.000  C
  C456     1.0000 0.69404  0.86833  0.73972  Biso   1.000  C
  C457     1.0000 0.76028  0.63167  0.80596  Biso   1.000  C
  C458     1.0000 0.36833  0.76028  0.80596  Biso   1.000  C
  C459     1.0000 0.23972  0.36833  0.80596  Biso   1.000  C
  C460     1.0000 0.63167  0.23972  0.80596  Biso   1.000  C
  C461     1.0000 0.76028  0.19404  0.63167  Biso   1.000  C
  C462     1.0000 0.76028  0.36833  0.19404  Biso   1.000  C
  C463     1.0000 0.76028  0.80596  0.36833  Biso   1.000  C
  C464     1.0000 0.80596  0.63167  0.23972  Biso   1.000  C
  C465     1.0000 0.23972  0.63167  0.19404  Biso   1.000  C
  C466     1.0000 0.19404  0.63167  0.76028  Biso   1.000  C
  C467     1.0000 0.80596  0.76028  0.63167  Biso   1.000  C
  C468     1.0000 0.63167  0.80596  0.76028  Biso   1.000  C
  C469     1.0000 0.36833  0.19404  0.76028  Biso   1.000  C
  C470     1.0000 0.80596  0.23972  0.36833  Biso   1.000  C
  C471     1.0000 0.36833  0.80596  0.23972  Biso   1.000  C
  C472     1.0000 0.19404  0.23972  0.63167  Biso   1.000  C
  C473     1.0000 0.19404  0.76028  0.36833  Biso   1.000  C
  C474     1.0000 0.63167  0.19404  0.23972  Biso   1.000  C
  C475     1.0000 0.63167  0.76028  0.19404  Biso   1.000  C
  C476     1.0000 0.36833  0.23972  0.19404  Biso   1.000  C
  C477     1.0000 0.23972  0.80596  0.63167  Biso   1.000  C
  C478     1.0000 0.23972  0.19404  0.36833  Biso   1.000  C
  C479     1.0000 0.80596  0.36833  0.76028  Biso   1.000  C
  C480     1.0000 0.19404  0.36833  0.23972  Biso   1.000  C
  H289     1.0000 0.26080  0.12320  0.33320  Biso   1.000  H
  H290     1.0000 0.87680  0.26080  0.33320  Biso   1.000  H
  H291     1.0000 0.73920  0.87680  0.33320  Biso   1.000  H
  H292     1.0000 0.12320  0.73920  0.33320  Biso   1.000  H
  H293     1.0000 0.26080  0.66680  0.12320  Biso   1.000  H
  H294     1.0000 0.26080  0.87680  0.66680  Biso   1.000  H
  H295     1.0000 0.26080  0.33320  0.87680  Biso   1.000  H
  H296     1.0000 0.33320  0.12320  0.73920  Biso   1.000  H
  H297     1.0000 0.73920  0.12320  0.66680  Biso   1.000  H
  H298     1.0000 0.66680  0.12320  0.26080  Biso   1.000  H
  H299     1.0000 0.33320  0.26080  0.12320  Biso   1.000  H
  H300     1.0000 0.12320  0.33320  0.26080  Biso   1.000  H
  H301     1.0000 0.87680  0.66680  0.26080  Biso   1.000  H
  H302     1.0000 0.33320  0.73920  0.87680  Biso   1.000  H
  H303     1.0000 0.87680  0.33320  0.73920  Biso   1.000  H
  H304     1.0000 0.66680  0.73920  0.12320  Biso   1.000  H
  H305     1.0000 0.66680  0.26080  0.87680  Biso   1.000  H
  H306     1.0000 0.12320  0.66680  0.73920  Biso   1.000  H
  H307     1.0000 0.12320  0.26080  0.66680  Biso   1.000  H
  H308     1.0000 0.87680  0.73920  0.66680  Biso   1.000  H
  H309     1.0000 0.73920  0.33320  0.12320  Biso   1.000  H
  H310     1.0000 0.73920  0.66680  0.87680  Biso   1.000  H
  H311     1.0000 0.33320  0.87680  0.26080  Biso   1.000  H
  H312     1.0000 0.66680  0.87680  0.73920  Biso   1.000  H
  H313     1.0000 0.76080  0.62320  0.83320  Biso   1.000  H
  H314     1.0000 0.37680  0.76080  0.83320  Biso   1.000  H
  H315     1.0000 0.23920  0.37680  0.83320  Biso   1.000  H
  H316     1.0000 0.62320  0.23920  0.83320  Biso   1.000  H
  H317     1.0000 0.76080  0.16680  0.62320  Biso   1.000  H
  H318     1.0000 0.76080  0.37680  0.16680  Biso   1.000  H
  H319     1.0000 0.76080  0.83320  0.37680  Biso   1.000  H
  H320     1.0000 0.83320  0.62320  0.23920  Biso   1.000  H
  H321     1.0000 0.23920  0.62320  0.16680  Biso   1.000  H
  H322     1.0000 0.16680  0.62320  0.76080  Biso   1.000  H
  H323     1.0000 0.83320  0.76080  0.62320  Biso   1.000  H
  H324     1.0000 0.62320  0.83320  0.76080  Biso   1.000  H
  H325     1.0000 0.37680  0.16680  0.76080  Biso   1.000  H
  H326     1.0000 0.83320  0.23920  0.37680  Biso   1.000  H
  H327     1.0000 0.37680  0.83320  0.23920  Biso   1.000  H
  H328     1.0000 0.16680  0.23920  0.62320  Biso   1.000  H
  H329     1.0000 0.16680  0.76080  0.37680  Biso   1.000  H
  H330     1.0000 0.62320  0.16680  0.23920  Biso   1.000  H
  H331     1.0000 0.62320  0.76080  0.16680  Biso   1.000  H
  H332     1.0000 0.37680  0.23920  0.16680  Biso   1.000  H
  H333     1.0000 0.23920  0.83320  0.62320  Biso   1.000  H
  H334     1.0000 0.23920  0.16680  0.37680  Biso   1.000  H
  H335     1.0000 0.83320  0.37680  0.76080  Biso   1.000  H
  H336     1.0000 0.16680  0.37680  0.23920  Biso   1.000  H
  C481     1.0000 0.27460  0.02331  0.08240  Biso   1.000  C
  C482     1.0000 0.97669  0.27460  0.08240  Biso   1.000  C
  C483     1.0000 0.72540  0.97669  0.08240  Biso   1.000  C
  C484     1.0000 0.02331  0.72540  0.08240  Biso   1.000  C
  C485     1.0000 0.27460  0.91760  0.02331  Biso   1.000  C
  C486     1.0000 0.27460  0.97669  0.91760  Biso   1.000  C
  C487     1.0000 0.27460  0.08240  0.97669  Biso   1.000  C
  C488     1.0000 0.08240  0.02331  0.72540  Biso   1.000  C
  C489     1.0000 0.72540  0.02331  0.91760  Biso   1.000  C
  C490     1.0000 0.91760  0.02331  0.27460  Biso   1.000  C
  C491     1.0000 0.08240  0.27460  0.02331  Biso   1.000  C
  C492     1.0000 0.02331  0.08240  0.27460  Biso   1.000  C
  C493     1.0000 0.97669  0.91760  0.27460  Biso   1.000  C
  C494     1.0000 0.08240  0.72540  0.97669  Biso   1.000  C
  C495     1.0000 0.97669  0.08240  0.72540  Biso   1.000  C
  C496     1.0000 0.91760  0.72540  0.02331  Biso   1.000  C
  C497     1.0000 0.91760  0.27460  0.97669  Biso   1.000  C
  C498     1.0000 0.02331  0.91760  0.72540  Biso   1.000  C
  C499     1.0000 0.02331  0.27460  0.91760  Biso   1.000  C
  C500     1.0000 0.97669  0.72540  0.91760  Biso   1.000  C
  C501     1.0000 0.72540  0.08240  0.02331  Biso   1.000  C
  C502     1.0000 0.72540  0.91760  0.97669  Biso   1.000  C
  C503     1.0000 0.08240  0.97669  0.27460  Biso   1.000  C
  C504     1.0000 0.91760  0.97669  0.72540  Biso   1.000  C
  C505     1.0000 0.77460  0.52331  0.58240  Biso   1.000  C
  C506     1.0000 0.47669  0.77460  0.58240  Biso   1.000  C
  C507     1.0000 0.22540  0.47669  0.58240  Biso   1.000  C
  C508     1.0000 0.52331  0.22540  0.58240  Biso   1.000  C
  C509     1.0000 0.77460  0.41760  0.52331  Biso   1.000  C
  C510     1.0000 0.77460  0.47669  0.41760  Biso   1.000  C
  C511     1.0000 0.77460  0.58240  0.47669  Biso   1.000  C
  C512     1.0000 0.58240  0.52331  0.22540  Biso   1.000  C
  C513     1.0000 0.22540  0.52331  0.41760  Biso   1.000  C
  C514     1.0000 0.41760  0.52331  0.77460  Biso   1.000  C
  C515     1.0000 0.58240  0.77460  0.52331  Biso   1.000  C
  C516     1.0000 0.52331  0.58240  0.77460  Biso   1.000  C
  C517     1.0000 0.47669  0.41760  0.77460  Biso   1.000  C
  C518     1.0000 0.58240  0.22540  0.47669  Biso   1.000  C
  C519     1.0000 0.47669  0.58240  0.22540  Biso   1.000  C
  C520     1.0000 0.41760  0.22540  0.52331  Biso   1.000  C
  C521     1.0000 0.41760  0.77460  0.47669  Biso   1.000  C
  C522     1.0000 0.52331  0.41760  0.22540  Biso   1.000  C
  C523     1.0000 0.52331  0.77460  0.41760  Biso   1.000  C
  C524     1.0000 0.47669  0.22540  0.41760  Biso   1.000  C
  C525     1.0000 0.22540  0.58240  0.52331  Biso   1.000  C
  C526     1.0000 0.22540  0.41760  0.47669  Biso   1.000  C
  C527     1.0000 0.58240  0.47669  0.77460  Biso   1.000  C
  C528     1.0000 0.41760  0.47669  0.22540  Biso   1.000  C
  H337     1.0000 0.29420  0.00350  0.07640  Biso   1.000  H
  H338     1.0000 0.99650  0.29420  0.07640  Biso   1.000  H
  H339     1.0000 0.70580  0.99650  0.07640  Biso   1.000  H
  H340     1.0000 0.00350  0.70580  0.07640  Biso   1.000  H
  H341     1.0000 0.29420  0.92360  0.00350  Biso   1.000  H
  H342     1.0000 0.29420  0.99650  0.92360  Biso   1.000  H
  H343     1.0000 0.29420  0.07640  0.99650  Biso   1.000  H
  H344     1.0000 0.07640  0.00350  0.70580  Biso   1.000  H
  H345     1.0000 0.70580  0.00350  0.92360  Biso   1.000  H
  H346     1.0000 0.92360  0.00350  0.29420  Biso   1.000  H
  H347     1.0000 0.07640  0.29420  0.00350  Biso   1.000  H
  H348     1.0000 0.00350  0.07640  0.29420  Biso   1.000  H
  H349     1.0000 0.99650  0.92360  0.29420  Biso   1.000  H
  H350     1.0000 0.07640  0.70580  0.99650  Biso   1.000  H
  H351     1.0000 0.99650  0.07640  0.70580  Biso   1.000  H
  H352     1.0000 0.92360  0.70580  0.00350  Biso   1.000  H
  H353     1.0000 0.92360  0.29420  0.99650  Biso   1.000  H
  H354     1.0000 0.00350  0.92360  0.70580  Biso   1.000  H
  H355     1.0000 0.00350  0.29420  0.92360  Biso   1.000  H
  H356     1.0000 0.99650  0.70580  0.92360  Biso   1.000  H
  H357     1.0000 0.70580  0.07640  0.00350  Biso   1.000  H
  H358     1.0000 0.70580  0.92360  0.99650  Biso   1.000  H
  H359     1.0000 0.07640  0.99650  0.29420  Biso   1.000  H
  H360     1.0000 0.92360  0.99650  0.70580  Biso   1.000  H
  H361     1.0000 0.79420  0.50350  0.57640  Biso   1.000  H
  H362     1.0000 0.49650  0.79420  0.57640  Biso   1.000  H
  H363     1.0000 0.20580  0.49650  0.57640  Biso   1.000  H
  H364     1.0000 0.50350  0.20580  0.57640  Biso   1.000  H
  H365     1.0000 0.79420  0.42360  0.50350  Biso   1.000  H
  H366     1.0000 0.79420  0.49650  0.42360  Biso   1.000  H
  H367     1.0000 0.79420  0.57640  0.49650  Biso   1.000  H
  H368     1.0000 0.57640  0.50350  0.20580  Biso   1.000  H
  H369     1.0000 0.20580  0.50350  0.42360  Biso   1.000  H
  H370     1.0000 0.42360  0.50350  0.79420  Biso   1.000  H
  H371     1.0000 0.57640  0.79420  0.50350  Biso   1.000  H
  H372     1.0000 0.50350  0.57640  0.79420  Biso   1.000  H
  H373     1.0000 0.49650  0.42360  0.79420  Biso   1.000  H
  H374     1.0000 0.57640  0.20580  0.49650  Biso   1.000  H
  H375     1.0000 0.49650  0.57640  0.20580  Biso   1.000  H
  H376     1.0000 0.42360  0.20580  0.50350  Biso   1.000  H
  H377     1.0000 0.42360  0.79420  0.49650  Biso   1.000  H
  H378     1.0000 0.50350  0.42360  0.20580  Biso   1.000  H
  H379     1.0000 0.50350  0.79420  0.42360  Biso   1.000  H
  H380     1.0000 0.49650  0.20580  0.42360  Biso   1.000  H
  H381     1.0000 0.20580  0.57640  0.50350  Biso   1.000  H
  H382     1.0000 0.20580  0.42360  0.49650  Biso   1.000  H
  H383     1.0000 0.57640  0.49650  0.79420  Biso   1.000  H
  H384     1.0000 0.42360  0.49650  0.20580  Biso   1.000  H
  N97      1.0000 0.24449  0.03006  0.05476  Biso   1.000  N
  N98      1.0000 0.96994  0.24449  0.05476  Biso   1.000  N
  N99      1.0000 0.75551  0.96994  0.05476  Biso   1.000  N
  N100     1.0000 0.03006  0.75551  0.05476  Biso   1.000  N
  N101     1.0000 0.24449  0.94524  0.03006  Biso   1.000  N
  N102     1.0000 0.24449  0.96994  0.94524  Biso   1.000  N
  N103     1.0000 0.24449  0.05476  0.96994  Biso   1.000  N
  N104     1.0000 0.05476  0.03006  0.75551  Biso   1.000  N
  N105     1.0000 0.75551  0.03006  0.94524  Biso   1.000  N
  N106     1.0000 0.94524  0.03006  0.24449  Biso   1.000  N
  N107     1.0000 0.05476  0.24449  0.03006  Biso   1.000  N
  N108     1.0000 0.03006  0.05476  0.24449  Biso   1.000  N
  N109     1.0000 0.96994  0.94524  0.24449  Biso   1.000  N
  N110     1.0000 0.05476  0.75551  0.96994  Biso   1.000  N
  N111     1.0000 0.96994  0.05476  0.75551  Biso   1.000  N
  N112     1.0000 0.94524  0.75551  0.03006  Biso   1.000  N
  N113     1.0000 0.94524  0.24449  0.96994  Biso   1.000  N
  N114     1.0000 0.03006  0.94524  0.75551  Biso   1.000  N
  N115     1.0000 0.03006  0.24449  0.94524  Biso   1.000  N
  N116     1.0000 0.96994  0.75551  0.94524  Biso   1.000  N
  N117     1.0000 0.75551  0.05476  0.03006  Biso   1.000  N
  N118     1.0000 0.75551  0.94524  0.96994  Biso   1.000  N
  N119     1.0000 0.05476  0.96994  0.24449  Biso   1.000  N
  N120     1.0000 0.94524  0.96994  0.75551  Biso   1.000  N
  N121     1.0000 0.74449  0.53006  0.55476  Biso   1.000  N
  N122     1.0000 0.46994  0.74449  0.55476  Biso   1.000  N
  N123     1.0000 0.25551  0.46994  0.55476  Biso   1.000  N
  N124     1.0000 0.53006  0.25551  0.55476  Biso   1.000  N
  N125     1.0000 0.74449  0.44524  0.53006  Biso   1.000  N
  N126     1.0000 0.74449  0.46994  0.44524  Biso   1.000  N
  N127     1.0000 0.74449  0.55476  0.46994  Biso   1.000  N
  N128     1.0000 0.55476  0.53006  0.25551  Biso   1.000  N
  N129     1.0000 0.25551  0.53006  0.44524  Biso   1.000  N
  N130     1.0000 0.44524  0.53006  0.74449  Biso   1.000  N
  N131     1.0000 0.55476  0.74449  0.53006  Biso   1.000  N
  N132     1.0000 0.53006  0.55476  0.74449  Biso   1.000  N
  N133     1.0000 0.46994  0.44524  0.74449  Biso   1.000  N
  N134     1.0000 0.55476  0.25551  0.46994  Biso   1.000  N
  N135     1.0000 0.46994  0.55476  0.25551  Biso   1.000  N
  N136     1.0000 0.44524  0.25551  0.53006  Biso   1.000  N
  N137     1.0000 0.44524  0.74449  0.46994  Biso   1.000  N
  N138     1.0000 0.53006  0.44524  0.25551  Biso   1.000  N
  N139     1.0000 0.53006  0.74449  0.44524  Biso   1.000  N
  N140     1.0000 0.46994  0.25551  0.44524  Biso   1.000  N
  N141     1.0000 0.25551  0.55476  0.53006  Biso   1.000  N
  N142     1.0000 0.25551  0.44524  0.46994  Biso   1.000  N
  N143     1.0000 0.55476  0.46994  0.74449  Biso   1.000  N
  N144     1.0000 0.44524  0.46994  0.25551  Biso   1.000  N
  N145     1.0000 0.16667  0.16667  0.16667  Biso   1.000  N
  N146     1.0000 0.83333  0.16667  0.16667  Biso   1.000  N
  N147     1.0000 0.83333  0.83333  0.16667  Biso   1.000  N
  N148     1.0000 0.16667  0.83333  0.16667  Biso   1.000  N
  N149     1.0000 0.16667  0.83333  0.83333  Biso   1.000  N
  N150     1.0000 0.16667  0.16667  0.83333  Biso   1.000  N
  N151     1.0000 0.83333  0.16667  0.83333  Biso   1.000  N
  N152     1.0000 0.83333  0.83333  0.83333  Biso   1.000  N
  N153     1.0000 0.66667  0.66667  0.66667  Biso   1.000  N
  N154     1.0000 0.33333  0.66667  0.66667  Biso   1.000  N
  N155     1.0000 0.33333  0.33333  0.66667  Biso   1.000  N
  N156     1.0000 0.66667  0.33333  0.66667  Biso   1.000  N
  N157     1.0000 0.66667  0.33333  0.33333  Biso   1.000  N
  N158     1.0000 0.66667  0.66667  0.33333  Biso   1.000  N
  N159     1.0000 0.33333  0.66667  0.33333  Biso   1.000  N
  N160     1.0000 0.33333  0.33333  0.33333  Biso   1.000  N
  O61      1.0000 0.32620  0.00000  0.00000  Biso   1.000  O
  O62      1.0000 0.00000  0.32620  0.00000  Biso   1.000  O
  O63      1.0000 0.67380  0.00000  0.00000  Biso   1.000  O
  O64      1.0000 0.00000  0.67380  0.00000  Biso   1.000  O
  O65      1.0000 0.00000  0.00000  0.67380  Biso   1.000  O
  O66      1.0000 0.00000  0.00000  0.32620  Biso   1.000  O
  O67      1.0000 0.82620  0.50000  0.50000  Biso   1.000  O
  O68      1.0000 0.50000  0.82620  0.50000  Biso   1.000  O
  O69      1.0000 0.17380  0.50000  0.50000  Biso   1.000  O
  O70      1.0000 0.50000  0.17380  0.50000  Biso   1.000  O
  O71      1.0000 0.50000  0.50000  0.17380  Biso   1.000  O
  O72      1.0000 0.50000  0.50000  0.82620  Biso   1.000  O
  O73      1.0000 0.17063  0.13891  0.19341  Biso   1.000  O
  O74      1.0000 0.86109  0.17063  0.19341  Biso   1.000  O
  O75      1.0000 0.82937  0.86109  0.19341  Biso   1.000  O
  O76      1.0000 0.13891  0.82937  0.19341  Biso   1.000  O
  O77      1.0000 0.17063  0.80659  0.13891  Biso   1.000  O
  O78      1.0000 0.17063  0.86109  0.80659  Biso   1.000  O
  O79      1.0000 0.17063  0.19341  0.86109  Biso   1.000  O
  O80      1.0000 0.19341  0.13891  0.82937  Biso   1.000  O
  O81      1.0000 0.82937  0.13891  0.80659  Biso   1.000  O
  O82      1.0000 0.80659  0.13891  0.17063  Biso   1.000  O
  O83      1.0000 0.19341  0.17063  0.13891  Biso   1.000  O
  O84      1.0000 0.13891  0.19341  0.17063  Biso   1.000  O
  O85      1.0000 0.86109  0.80659  0.17063  Biso   1.000  O
  O86      1.0000 0.19341  0.82937  0.86109  Biso   1.000  O
  O87      1.0000 0.86109  0.19341  0.82937  Biso   1.000  O
  O88      1.0000 0.80659  0.82937  0.13891  Biso   1.000  O
  O89      1.0000 0.80659  0.17063  0.86109  Biso   1.000  O
  O90      1.0000 0.13891  0.80659  0.82937  Biso   1.000  O
  O91      1.0000 0.13891  0.17063  0.80659  Biso   1.000  O
  O92      1.0000 0.86109  0.82937  0.80659  Biso   1.000  O
  O93      1.0000 0.82937  0.19341  0.13891  Biso   1.000  O
  O94      1.0000 0.82937  0.80659  0.86109  Biso   1.000  O
  O95      1.0000 0.19341  0.86109  0.17063  Biso   1.000  O
  O96      1.0000 0.80659  0.86109  0.82937  Biso   1.000  O
  O97      1.0000 0.67063  0.63891  0.69341  Biso   1.000  O
  O98      1.0000 0.36109  0.67063  0.69341  Biso   1.000  O
  O99      1.0000 0.32937  0.36109  0.69341  Biso   1.000  O
  O100     1.0000 0.63891  0.32937  0.69341  Biso   1.000  O
  O101     1.0000 0.67063  0.30659  0.63891  Biso   1.000  O
  O102     1.0000 0.67063  0.36109  0.30659  Biso   1.000  O
  O103     1.0000 0.67063  0.69341  0.36109  Biso   1.000  O
  O104     1.0000 0.69341  0.63891  0.32937  Biso   1.000  O
  O105     1.0000 0.32937  0.63891  0.30659  Biso   1.000  O
  O106     1.0000 0.30659  0.63891  0.67063  Biso   1.000  O
  O107     1.0000 0.69341  0.67063  0.63891  Biso   1.000  O
  O108     1.0000 0.63891  0.69341  0.67063  Biso   1.000  O
  O109     1.0000 0.36109  0.30659  0.67063  Biso   1.000  O
  O110     1.0000 0.69341  0.32937  0.36109  Biso   1.000  O
  O111     1.0000 0.36109  0.69341  0.32937  Biso   1.000  O
  O112     1.0000 0.30659  0.32937  0.63891  Biso   1.000  O
  O113     1.0000 0.30659  0.67063  0.36109  Biso   1.000  O
  O114     1.0000 0.63891  0.30659  0.32937  Biso   1.000  O
  O115     1.0000 0.63891  0.67063  0.30659  Biso   1.000  O
  O116     1.0000 0.36109  0.32937  0.30659  Biso   1.000  O
  O117     1.0000 0.32937  0.69341  0.63891  Biso   1.000  O
  O118     1.0000 0.32937  0.30659  0.36109  Biso   1.000  O
  O119     1.0000 0.69341  0.36109  0.67063  Biso   1.000  O
  O120     1.0000 0.30659  0.36109  0.32937  Biso   1.000  O
