data_image0
_cell_length_a       17.653
_cell_length_b       43.763
_cell_length_c       18.317
_cell_angle_alpha    90
_cell_angle_beta     102.967
_cell_angle_gamma    90

_symmetry_space_group_name_H-M    "P 1"
_symmetry_int_tables_number       1

loop_
  _symmetry_equiv_pos_as_xyz
  'x, y, z'

loop_
  _atom_site_label
  _atom_site_occupancy
  _atom_site_fract_x
  _atom_site_fract_y
  _atom_site_fract_z
  _atom_site_thermal_displace_type
  _atom_site_B_iso_or_equiv
  _atom_site_type_symbol
  Cu1      1.0000 0.49542  0.81388  0.33587  Biso   1.000  Cu
  Cu2      1.0000 0.50458  0.31388  0.16413  Biso   1.000  Cu
  Cu3      1.0000 0.50458  0.18612  0.66413  Biso   1.000  Cu
  Cu4      1.0000 0.49542  0.68612  0.83587  Biso   1.000  Cu
  Cu5      1.0000 0.03939  0.81504  0.90869  Biso   1.000  Cu
  Cu6      1.0000 0.96061  0.31504  0.59131  Biso   1.000  Cu
  Cu7      1.0000 0.96061  0.18496  0.09131  Biso   1.000  Cu
  Cu8      1.0000 0.03939  0.68496  0.40869  Biso   1.000  Cu
  Cu9      1.0000 0.44721  0.09441  0.25301  Biso   1.000  Cu
  Cu10     1.0000 0.55279  0.59441  0.24699  Biso   1.000  Cu
  Cu11     1.0000 0.55279  0.90559  0.74699  Biso   1.000  Cu
  Cu12     1.0000 0.44721  0.40559  0.75301  Biso   1.000  Cu
  Cu13     1.0000 0.48102  0.03901  0.30717  Biso   1.000  Cu
  Cu14     1.0000 0.51898  0.53901  0.19283  Biso   1.000  Cu
  Cu15     1.0000 0.51898  0.96099  0.69283  Biso   1.000  Cu
  Cu16     1.0000 0.48102  0.46099  0.80717  Biso   1.000  Cu
  Cu17     1.0000 0.92165  0.81894  0.78688  Biso   1.000  Cu
  Cu18     1.0000 0.07835  0.31894  0.71312  Biso   1.000  Cu
  Cu19     1.0000 0.07835  0.18106  0.21312  Biso   1.000  Cu
  Cu20     1.0000 0.92165  0.68106  0.28688  Biso   1.000  Cu
  O1       1.0000 0.36710  0.09373  0.30940  Biso   1.000  O
  O2       1.0000 0.63290  0.59373  0.19060  Biso   1.000  O
  O3       1.0000 0.63290  0.90627  0.69060  Biso   1.000  O
  O4       1.0000 0.36710  0.40627  0.80940  Biso   1.000  O
  O5       1.0000 0.38410  0.04367  0.34090  Biso   1.000  O
  O6       1.0000 0.61590  0.54367  0.15910  Biso   1.000  O
  O7       1.0000 0.61590  0.95633  0.65910  Biso   1.000  O
  O8       1.0000 0.38410  0.45633  0.84090  Biso   1.000  O
  O9       1.0000 0.37670  0.07753  0.16370  Biso   1.000  O
  O10      1.0000 0.62330  0.57753  0.33630  Biso   1.000  O
  O11      1.0000 0.62330  0.92247  0.83630  Biso   1.000  O
  O12      1.0000 0.37670  0.42247  0.66370  Biso   1.000  O
  O13      1.0000 0.41990  0.03066  0.20250  Biso   1.000  O
  O14      1.0000 0.58010  0.53066  0.29750  Biso   1.000  O
  O15      1.0000 0.58010  0.96934  0.79750  Biso   1.000  O
  O16      1.0000 0.41990  0.46934  0.70250  Biso   1.000  O
  O17      1.0000 0.53430  0.08460  0.20560  Biso   1.000  O
  O18      1.0000 0.46570  0.58460  0.29440  Biso   1.000  O
  O19      1.0000 0.46570  0.91540  0.79440  Biso   1.000  O
  O20      1.0000 0.53430  0.41540  0.70560  Biso   1.000  O
  O21      1.0000 0.57380  0.04078  0.26660  Biso   1.000  O
  O22      1.0000 0.42620  0.54078  0.23340  Biso   1.000  O
  O23      1.0000 0.42620  0.95922  0.73340  Biso   1.000  O
  O24      1.0000 0.57380  0.45922  0.76660  Biso   1.000  O
  O25      1.0000 0.52380  0.10511  0.34470  Biso   1.000  O
  O26      1.0000 0.47620  0.60511  0.15530  Biso   1.000  O
  O27      1.0000 0.47620  0.89489  0.65530  Biso   1.000  O
  O28      1.0000 0.52380  0.39489  0.84470  Biso   1.000  O
  O29      1.0000 0.53800  0.05907  0.40020  Biso   1.000  O
  O30      1.0000 0.46200  0.55907  0.09980  Biso   1.000  O
  O31      1.0000 0.46200  0.94093  0.59980  Biso   1.000  O
  O32      1.0000 0.53800  0.44093  0.90020  Biso   1.000  O
  O33      1.0000 0.94420  0.82124  0.95250  Biso   1.000  O
  O34      1.0000 0.05580  0.32124  0.54750  Biso   1.000  O
  O35      1.0000 0.05580  0.17876  0.04750  Biso   1.000  O
  O36      1.0000 0.94420  0.67876  0.45250  Biso   1.000  O
  O37      1.0000 0.84840  0.82160  0.84830  Biso   1.000  O
  O38      1.0000 0.15160  0.32160  0.65170  Biso   1.000  O
  O39      1.0000 0.15160  0.17840  0.15170  Biso   1.000  O
  O40      1.0000 0.84840  0.67840  0.34830  Biso   1.000  O
  O41      1.0000 0.02460  0.77115  0.91360  Biso   1.000  O
  O42      1.0000 0.97540  0.27115  0.58640  Biso   1.000  O
  O43      1.0000 0.97540  0.22885  0.08640  Biso   1.000  O
  O44      1.0000 0.02460  0.72885  0.41360  Biso   1.000  O
  O45      1.0000 0.92950  0.77286  0.80910  Biso   1.000  O
  O46      1.0000 0.07050  0.27286  0.69090  Biso   1.000  O
  O47      1.0000 0.07050  0.22714  0.19090  Biso   1.000  O
  O48      1.0000 0.92950  0.72714  0.30910  Biso   1.000  O
  O49      1.0000 0.10050  0.80909  0.82800  Biso   1.000  O
  O50      1.0000 0.89950  0.30909  0.67200  Biso   1.000  O
  O51      1.0000 0.89950  0.19091  0.17200  Biso   1.000  O
  O52      1.0000 0.10050  0.69091  0.32800  Biso   1.000  O
  O53      1.0000 0.99730  0.81581  0.73060  Biso   1.000  O
  O54      1.0000 0.00270  0.31581  0.76940  Biso   1.000  O
  O55      1.0000 0.00270  0.18419  0.26940  Biso   1.000  O
  O56      1.0000 0.99730  0.68419  0.23060  Biso   1.000  O
  O57      1.0000 0.04820  0.85883  0.89970  Biso   1.000  O
  O58      1.0000 0.95180  0.35883  0.60030  Biso   1.000  O
  O59      1.0000 0.95180  0.14117  0.10030  Biso   1.000  O
  O60      1.0000 0.04820  0.64117  0.39970  Biso   1.000  O
  O61      1.0000 0.94350  0.86398  0.80610  Biso   1.000  O
  O62      1.0000 0.05650  0.36398  0.69390  Biso   1.000  O
  O63      1.0000 0.05650  0.13602  0.19390  Biso   1.000  O
  O64      1.0000 0.94350  0.63602  0.30610  Biso   1.000  O
  N1       1.0000 0.55770  0.84636  0.39830  Biso   1.000  N
  N2       1.0000 0.44230  0.34636  0.10170  Biso   1.000  N
  N3       1.0000 0.44230  0.15364  0.60170  Biso   1.000  N
  N4       1.0000 0.55770  0.65364  0.89830  Biso   1.000  N
  N5       1.0000 0.56640  0.78181  0.39310  Biso   1.000  N
  N6       1.0000 0.43360  0.28181  0.10690  Biso   1.000  N
  N7       1.0000 0.43360  0.21819  0.60690  Biso   1.000  N
  N8       1.0000 0.56640  0.71819  0.89310  Biso   1.000  N
  N9       1.0000 0.43620  0.78147  0.26880  Biso   1.000  N
  N10      1.0000 0.56380  0.28147  0.23120  Biso   1.000  N
  N11      1.0000 0.56380  0.21853  0.73120  Biso   1.000  N
  N12      1.0000 0.43620  0.71853  0.76880  Biso   1.000  N
  N13      1.0000 0.42280  0.84574  0.28060  Biso   1.000  N
  N14      1.0000 0.57720  0.34574  0.21940  Biso   1.000  N
  N15      1.0000 0.57720  0.15426  0.71940  Biso   1.000  N
  N16      1.0000 0.42280  0.65426  0.78060  Biso   1.000  N
  N17      1.0000 0.48930  0.99055  0.32880  Biso   1.000  N
  N18      1.0000 0.51070  0.49055  0.17120  Biso   1.000  N
  N19      1.0000 0.51070  0.00945  0.67120  Biso   1.000  N
  N20      1.0000 0.48930  0.50945  0.82880  Biso   1.000  N
  N21      1.0000 0.83220  0.81704  0.68490  Biso   1.000  N
  N22      1.0000 0.16780  0.31704  0.81510  Biso   1.000  N
  N23      1.0000 0.16780  0.18296  0.31510  Biso   1.000  N
  N24      1.0000 0.83220  0.68296  0.18490  Biso   1.000  N
  N25      1.0000 0.55720  0.64104  0.28480  Biso   1.000  N
  N26      1.0000 0.44280  0.14104  0.21520  Biso   1.000  N
  N27      1.0000 0.44280  0.35896  0.71520  Biso   1.000  N
  N28      1.0000 0.55720  0.85896  0.78480  Biso   1.000  N
  N29      1.0000 0.13430  0.81492  0.00470  Biso   1.000  N
  N30      1.0000 0.86570  0.31492  0.49530  Biso   1.000  N
  N31      1.0000 0.86570  0.18508  0.99530  Biso   1.000  N
  N32      1.0000 0.13430  0.68508  0.50470  Biso   1.000  N
  C1       1.0000 0.65140  0.81449  0.48710  Biso   1.000  C
  C2       1.0000 0.34860  0.31449  0.01290  Biso   1.000  C
  C3       1.0000 0.34860  0.18551  0.51290  Biso   1.000  C
  C4       1.0000 0.65140  0.68551  0.98710  Biso   1.000  C
  C5       1.0000 0.62620  0.78614  0.45460  Biso   1.000  C
  C6       1.0000 0.37380  0.28614  0.04540  Biso   1.000  C
  C7       1.0000 0.37380  0.21386  0.54540  Biso   1.000  C
  C8       1.0000 0.62620  0.71386  0.95460  Biso   1.000  C
  C9       1.0000 0.66320  0.75760  0.47890  Biso   1.000  C
  C10      1.0000 0.33680  0.25760  0.02110  Biso   1.000  C
  C11      1.0000 0.33680  0.24240  0.52110  Biso   1.000  C
  C12      1.0000 0.66320  0.74240  0.97890  Biso   1.000  C
  C13      1.0000 0.62790  0.73598  0.43060  Biso   1.000  C
  C14      1.0000 0.37210  0.23598  0.06940  Biso   1.000  C
  C15      1.0000 0.37210  0.26402  0.56940  Biso   1.000  C
  C16      1.0000 0.62790  0.76402  0.93060  Biso   1.000  C
  C17      1.0000 0.56640  0.75105  0.37720  Biso   1.000  C
  C18      1.0000 0.43360  0.25105  0.12280  Biso   1.000  C
  C19      1.0000 0.43360  0.24895  0.62280  Biso   1.000  C
  C20      1.0000 0.56640  0.74895  0.87720  Biso   1.000  C
  C21      1.0000 0.51720  0.73673  0.31760  Biso   1.000  C
  C22      1.0000 0.48280  0.23673  0.18240  Biso   1.000  C
  C23      1.0000 0.48280  0.26327  0.68240  Biso   1.000  C
  C24      1.0000 0.51720  0.76327  0.81760  Biso   1.000  C
  C25      1.0000 0.45610  0.75069  0.26690  Biso   1.000  C
  C26      1.0000 0.54390  0.25069  0.23310  Biso   1.000  C
  C27      1.0000 0.54390  0.24931  0.73310  Biso   1.000  C
  C28      1.0000 0.45610  0.74931  0.76690  Biso   1.000  C
  C29      1.0000 0.40510  0.73582  0.20560  Biso   1.000  C
  C30      1.0000 0.59490  0.23582  0.29440  Biso   1.000  C
  C31      1.0000 0.59490  0.26418  0.79440  Biso   1.000  C
  C32      1.0000 0.40510  0.76418  0.70560  Biso   1.000  C
  C33      1.0000 0.35290  0.75696  0.17070  Biso   1.000  C
  C34      1.0000 0.64710  0.25696  0.32930  Biso   1.000  C
  C35      1.0000 0.64710  0.24304  0.82930  Biso   1.000  C
  C36      1.0000 0.35290  0.74304  0.67070  Biso   1.000  C
  C37      1.0000 0.37140  0.78541  0.21090  Biso   1.000  C
  C38      1.0000 0.62860  0.28541  0.28910  Biso   1.000  C
  C39      1.0000 0.62860  0.21459  0.78910  Biso   1.000  C
  C40      1.0000 0.37140  0.71459  0.71090  Biso   1.000  C
  C41      1.0000 0.33250  0.81277  0.19250  Biso   1.000  C
  C42      1.0000 0.66750  0.31277  0.30750  Biso   1.000  C
  C43      1.0000 0.66750  0.18723  0.80750  Biso   1.000  C
  C44      1.0000 0.33250  0.68723  0.69250  Biso   1.000  C
  C45      1.0000 0.35540  0.84102  0.22780  Biso   1.000  C
  C46      1.0000 0.64460  0.34102  0.27220  Biso   1.000  C
  C47      1.0000 0.64460  0.15898  0.77220  Biso   1.000  C
  C48      1.0000 0.35540  0.65898  0.72780  Biso   1.000  C
  C49      1.0000 0.31370  0.86938  0.21030  Biso   1.000  C
  C50      1.0000 0.68630  0.36938  0.28970  Biso   1.000  C
  C51      1.0000 0.68630  0.13062  0.78970  Biso   1.000  C
  C52      1.0000 0.31370  0.63062  0.71030  Biso   1.000  C
  C53      1.0000 0.35890  0.89141  0.24950  Biso   1.000  C
  C54      1.0000 0.64110  0.39141  0.25050  Biso   1.000  C
  C55      1.0000 0.64110  0.10859  0.75050  Biso   1.000  C
  C56      1.0000 0.35890  0.60859  0.74950  Biso   1.000  C
  C57      1.0000 0.42670  0.87685  0.29320  Biso   1.000  C
  C58      1.0000 0.57330  0.37685  0.20680  Biso   1.000  C
  C59      1.0000 0.57330  0.12315  0.70680  Biso   1.000  C
  C60      1.0000 0.42670  0.62315  0.79320  Biso   1.000  C
  C61      1.0000 0.48660  0.89197  0.34160  Biso   1.000  C
  C62      1.0000 0.51340  0.39197  0.15840  Biso   1.000  C
  C63      1.0000 0.51340  0.10803  0.65840  Biso   1.000  C
  C64      1.0000 0.48660  0.60803  0.84160  Biso   1.000  C
  C65      1.0000 0.54800  0.87792  0.39140  Biso   1.000  C
  C66      1.0000 0.45200  0.37792  0.10860  Biso   1.000  C
  C67      1.0000 0.45200  0.12208  0.60860  Biso   1.000  C
  C68      1.0000 0.54800  0.62208  0.89140  Biso   1.000  C
  C69      1.0000 0.60740  0.89327  0.44560  Biso   1.000  C
  C70      1.0000 0.39260  0.39327  0.05440  Biso   1.000  C
  C71      1.0000 0.39260  0.10673  0.55440  Biso   1.000  C
  C72      1.0000 0.60740  0.60673  0.94560  Biso   1.000  C
  C73      1.0000 0.65140  0.87181  0.48730  Biso   1.000  C
  C74      1.0000 0.34860  0.37181  0.01270  Biso   1.000  C
  C75      1.0000 0.34860  0.12819  0.51270  Biso   1.000  C
  C76      1.0000 0.65140  0.62819  0.98730  Biso   1.000  C
  C77      1.0000 0.62160  0.84267  0.45850  Biso   1.000  C
  C78      1.0000 0.37840  0.34267  0.04150  Biso   1.000  C
  C79      1.0000 0.37840  0.15733  0.54150  Biso   1.000  C
  C80      1.0000 0.62160  0.65733  0.95850  Biso   1.000  C
  C81      1.0000 0.71660  0.81466  0.55500  Biso   1.000  C
  C82      1.0000 0.28340  0.31466  0.94500  Biso   1.000  C
  C83      1.0000 0.28340  0.18534  0.44500  Biso   1.000  C
  C84      1.0000 0.71660  0.68534  0.05500  Biso   1.000  C
  C85      1.0000 0.79070  0.82100  0.55360  Biso   1.000  C
  C86      1.0000 0.20930  0.32100  0.94640  Biso   1.000  C
  C87      1.0000 0.20930  0.17900  0.44640  Biso   1.000  C
  C88      1.0000 0.79070  0.67900  0.05360  Biso   1.000  C
  C89      1.0000 0.84950  0.82200  0.61960  Biso   1.000  C
  C90      1.0000 0.15050  0.32200  0.88040  Biso   1.000  C
  C91      1.0000 0.15050  0.17800  0.38040  Biso   1.000  C
  C92      1.0000 0.84950  0.67800  0.11960  Biso   1.000  C
  C93      1.0000 0.75970  0.81140  0.68780  Biso   1.000  C
  C94      1.0000 0.24030  0.31140  0.81220  Biso   1.000  C
  C95      1.0000 0.24030  0.18860  0.31220  Biso   1.000  C
  C96      1.0000 0.75970  0.68860  0.18780  Biso   1.000  C
  C97      1.0000 0.70100  0.80960  0.62390  Biso   1.000  C
  C98      1.0000 0.29900  0.30960  0.87610  Biso   1.000  C
  C99      1.0000 0.29900  0.19040  0.37610  Biso   1.000  C
  C100     1.0000 0.70100  0.69040  0.12390  Biso   1.000  C
  C101     1.0000 0.53100  0.70289  0.30610  Biso   1.000  C
  C102     1.0000 0.46900  0.20289  0.19390  Biso   1.000  C
  C103     1.0000 0.46900  0.29711  0.69390  Biso   1.000  C
  C104     1.0000 0.53100  0.79711  0.80610  Biso   1.000  C
  C105     1.0000 0.50490  0.68092  0.34600  Biso   1.000  C
  C106     1.0000 0.49510  0.18092  0.15400  Biso   1.000  C
  C107     1.0000 0.49510  0.31908  0.65400  Biso   1.000  C
  C108     1.0000 0.50490  0.81908  0.84600  Biso   1.000  C
  C109     1.0000 0.52010  0.65061  0.33350  Biso   1.000  C
  C110     1.0000 0.47990  0.15061  0.16650  Biso   1.000  C
  C111     1.0000 0.47990  0.34939  0.66650  Biso   1.000  C
  C112     1.0000 0.52010  0.84939  0.83350  Biso   1.000  C
  C113     1.0000 0.58510  0.66218  0.24840  Biso   1.000  C
  C114     1.0000 0.41490  0.16218  0.25160  Biso   1.000  C
  C115     1.0000 0.41490  0.33782  0.75160  Biso   1.000  C
  C116     1.0000 0.58510  0.83782  0.74840  Biso   1.000  C
  C117     1.0000 0.57500  0.69358  0.25840  Biso   1.000  C
  C118     1.0000 0.42500  0.19358  0.24160  Biso   1.000  C
  C119     1.0000 0.42500  0.30642  0.74160  Biso   1.000  C
  C120     1.0000 0.57500  0.80642  0.75840  Biso   1.000  C
  C121     1.0000 0.26300  0.81288  0.12630  Biso   1.000  C
  C122     1.0000 0.73700  0.31288  0.37370  Biso   1.000  C
  C123     1.0000 0.73700  0.18712  0.87370  Biso   1.000  C
  C124     1.0000 0.26300  0.68712  0.62630  Biso   1.000  C
  C125     1.0000 0.19690  0.79580  0.12690  Biso   1.000  C
  C126     1.0000 0.80310  0.29580  0.37310  Biso   1.000  C
  C127     1.0000 0.80310  0.20420  0.87310  Biso   1.000  C
  C128     1.0000 0.19690  0.70420  0.62690  Biso   1.000  C
  C129     1.0000 0.13490  0.79754  0.06470  Biso   1.000  C
  C130     1.0000 0.86510  0.29754  0.43530  Biso   1.000  C
  C131     1.0000 0.86510  0.20246  0.93530  Biso   1.000  C
  C132     1.0000 0.13490  0.70246  0.56470  Biso   1.000  C
  C133     1.0000 0.19790  0.83173  0.00590  Biso   1.000  C
  C134     1.0000 0.80210  0.33173  0.49410  Biso   1.000  C
  C135     1.0000 0.80210  0.16827  0.99410  Biso   1.000  C
  C136     1.0000 0.19790  0.66827  0.50590  Biso   1.000  C
  C137     1.0000 0.26160  0.83143  0.06460  Biso   1.000  C
  C138     1.0000 0.73840  0.33143  0.43540  Biso   1.000  C
  C139     1.0000 0.73840  0.16857  0.93540  Biso   1.000  C
  C140     1.0000 0.26160  0.66857  0.56460  Biso   1.000  C
  C141     1.0000 0.48730  0.92671  0.33900  Biso   1.000  C
  C142     1.0000 0.51270  0.42671  0.16100  Biso   1.000  C
  C143     1.0000 0.51270  0.07329  0.66100  Biso   1.000  C
  C144     1.0000 0.48730  0.57329  0.83900  Biso   1.000  C
  C145     1.0000 0.50240  0.94100  0.27610  Biso   1.000  C
  C146     1.0000 0.49760  0.44100  0.22390  Biso   1.000  C
  C147     1.0000 0.49760  0.05900  0.72390  Biso   1.000  C
  C148     1.0000 0.50240  0.55900  0.77610  Biso   1.000  C
  C149     1.0000 0.50340  0.97286  0.27500  Biso   1.000  C
  C150     1.0000 0.49660  0.47286  0.22500  Biso   1.000  C
  C151     1.0000 0.49660  0.02714  0.72500  Biso   1.000  C
  C152     1.0000 0.50340  0.52714  0.77500  Biso   1.000  C
  C153     1.0000 0.47450  0.97617  0.38870  Biso   1.000  C
  C154     1.0000 0.52550  0.47617  0.11130  Biso   1.000  C
  C155     1.0000 0.52550  0.02383  0.61130  Biso   1.000  C
  C156     1.0000 0.47450  0.52383  0.88870  Biso   1.000  C
  C157     1.0000 0.47420  0.94473  0.39530  Biso   1.000  C
  C158     1.0000 0.52580  0.44473  0.10470  Biso   1.000  C
  C159     1.0000 0.52580  0.05527  0.60470  Biso   1.000  C
  C160     1.0000 0.47420  0.55527  0.89530  Biso   1.000  C
  C161     1.0000 0.07100  0.81113  0.75590  Biso   1.000  C
  C162     1.0000 0.92900  0.31113  0.74410  Biso   1.000  C
  C163     1.0000 0.92900  0.18887  0.24410  Biso   1.000  C
  C164     1.0000 0.07100  0.68887  0.25590  Biso   1.000  C
  C165     1.0000 0.12110  0.80859  0.70230  Biso   1.000  C
  C166     1.0000 0.87890  0.30859  0.79770  Biso   1.000  C
  C167     1.0000 0.87890  0.19141  0.29770  Biso   1.000  C
  C168     1.0000 0.12110  0.69141  0.20230  Biso   1.000  C
  C169     1.0000 0.09690  0.79050  0.63910  Biso   1.000  C
  C170     1.0000 0.90310  0.29050  0.86090  Biso   1.000  C
  C171     1.0000 0.90310  0.20950  0.36090  Biso   1.000  C
  C172     1.0000 0.09690  0.70950  0.13910  Biso   1.000  C
  C173     1.0000 0.13840  0.78740  0.58470  Biso   1.000  C
  C174     1.0000 0.86160  0.28740  0.91530  Biso   1.000  C
  C175     1.0000 0.86160  0.21260  0.41530  Biso   1.000  C
  C176     1.0000 0.13840  0.71260  0.08470  Biso   1.000  C
  C177     1.0000 0.20830  0.80340  0.59080  Biso   1.000  C
  C178     1.0000 0.79170  0.30340  0.90920  Biso   1.000  C
  C179     1.0000 0.79170  0.19660  0.40920  Biso   1.000  C
  C180     1.0000 0.20830  0.69660  0.09080  Biso   1.000  C
  C181     1.0000 0.23540  0.82279  0.65450  Biso   1.000  C
  C182     1.0000 0.76460  0.32279  0.84550  Biso   1.000  C
  C183     1.0000 0.76460  0.17721  0.34550  Biso   1.000  C
  C184     1.0000 0.23540  0.67721  0.15450  Biso   1.000  C
  C185     1.0000 0.30300  0.84030  0.66130  Biso   1.000  C
  C186     1.0000 0.69700  0.34030  0.83870  Biso   1.000  C
  C187     1.0000 0.69700  0.15970  0.33870  Biso   1.000  C
  C188     1.0000 0.30300  0.65970  0.16130  Biso   1.000  C
  C189     1.0000 0.32920  0.85870  0.72010  Biso   1.000  C
  C190     1.0000 0.67080  0.35870  0.77990  Biso   1.000  C
  C191     1.0000 0.67080  0.14130  0.27990  Biso   1.000  C
  C192     1.0000 0.32920  0.64130  0.22010  Biso   1.000  C
  C193     1.0000 0.28750  0.86120  0.77530  Biso   1.000  C
  C194     1.0000 0.71250  0.36120  0.72470  Biso   1.000  C
  C195     1.0000 0.71250  0.13880  0.22470  Biso   1.000  C
  C196     1.0000 0.28750  0.63880  0.27530  Biso   1.000  C
  C197     1.0000 0.22060  0.84586  0.77150  Biso   1.000  C
  C198     1.0000 0.77940  0.34586  0.72850  Biso   1.000  C
  C199     1.0000 0.77940  0.15414  0.22850  Biso   1.000  C
  C200     1.0000 0.22060  0.65414  0.27150  Biso   1.000  C
  C201     1.0000 0.19150  0.82508  0.71230  Biso   1.000  C
  C202     1.0000 0.80850  0.32508  0.78770  Biso   1.000  C
  C203     1.0000 0.80850  0.17492  0.28770  Biso   1.000  C
  C204     1.0000 0.19150  0.67492  0.21230  Biso   1.000  C
  C205     1.0000 0.97100  0.75890  0.86370  Biso   1.000  C
  C206     1.0000 0.02900  0.25890  0.63630  Biso   1.000  C
  C207     1.0000 0.02900  0.24110  0.13630  Biso   1.000  C
  C208     1.0000 0.97100  0.74110  0.36370  Biso   1.000  C
  C209     1.0000 0.95700  0.72523  0.87330  Biso   1.000  C
  C210     1.0000 0.04300  0.22523  0.62670  Biso   1.000  C
  C211     1.0000 0.04300  0.27477  0.12670  Biso   1.000  C
  C212     1.0000 0.95700  0.77477  0.37330  Biso   1.000  C
  C213     1.0000 0.02450  0.70730  0.89540  Biso   1.000  C
  C214     1.0000 0.97550  0.20730  0.60460  Biso   1.000  C
  C215     1.0000 0.97550  0.29270  0.10460  Biso   1.000  C
  C216     1.0000 0.02450  0.79270  0.39540  Biso   1.000  C
  C217     1.0000 0.01870  0.67450  0.90370  Biso   1.000  C
  C218     1.0000 0.98130  0.17450  0.59630  Biso   1.000  C
  C219     1.0000 0.98130  0.32550  0.09630  Biso   1.000  C
  C220     1.0000 0.01870  0.82550  0.40370  Biso   1.000  C
  C221     1.0000 0.94470  0.66160  0.88840  Biso   1.000  C
  C222     1.0000 0.05530  0.16160  0.61160  Biso   1.000  C
  C223     1.0000 0.05530  0.33840  0.11160  Biso   1.000  C
  C224     1.0000 0.94470  0.83840  0.38840  Biso   1.000  C
  C225     1.0000 0.87530  0.67900  0.86650  Biso   1.000  C
  C226     1.0000 0.12470  0.17900  0.63350  Biso   1.000  C
  C227     1.0000 0.12470  0.32100  0.13350  Biso   1.000  C
  C228     1.0000 0.87530  0.82100  0.36650  Biso   1.000  C
  C229     1.0000 0.80160  0.66540  0.85240  Biso   1.000  C
  C230     1.0000 0.19840  0.16540  0.64760  Biso   1.000  C
  C231     1.0000 0.19840  0.33460  0.14760  Biso   1.000  C
  C232     1.0000 0.80160  0.83460  0.35240  Biso   1.000  C
  C233     1.0000 0.73670  0.68210  0.83250  Biso   1.000  C
  C234     1.0000 0.26330  0.18210  0.66750  Biso   1.000  C
  C235     1.0000 0.26330  0.31790  0.16750  Biso   1.000  C
  C236     1.0000 0.73670  0.81790  0.33250  Biso   1.000  C
  C237     1.0000 0.74300  0.71400  0.83140  Biso   1.000  C
  C238     1.0000 0.25700  0.21400  0.66860  Biso   1.000  C
  C239     1.0000 0.25700  0.28600  0.16860  Biso   1.000  C
  C240     1.0000 0.74300  0.78600  0.33140  Biso   1.000  C
  C241     1.0000 0.81300  0.72850  0.84460  Biso   1.000  C
  C242     1.0000 0.18700  0.22850  0.65540  Biso   1.000  C
  C243     1.0000 0.18700  0.27150  0.15540  Biso   1.000  C
  C244     1.0000 0.81300  0.77150  0.34460  Biso   1.000  C
  C245     1.0000 0.88060  0.71240  0.85990  Biso   1.000  C
  C246     1.0000 0.11940  0.21240  0.64010  Biso   1.000  C
  C247     1.0000 0.11940  0.28760  0.14010  Biso   1.000  C
  C248     1.0000 0.88060  0.78760  0.35990  Biso   1.000  C
  C249     1.0000 0.87220  0.82199  0.91840  Biso   1.000  C
  C250     1.0000 0.12780  0.32199  0.58160  Biso   1.000  C
  C251     1.0000 0.12780  0.17801  0.08160  Biso   1.000  C
  C252     1.0000 0.87220  0.67801  0.41840  Biso   1.000  C
  C253     1.0000 0.81340  0.82431  0.96730  Biso   1.000  C
  C254     1.0000 0.18660  0.32431  0.53270  Biso   1.000  C
  C255     1.0000 0.18660  0.17569  0.03270  Biso   1.000  C
  C256     1.0000 0.81340  0.67569  0.46730  Biso   1.000  C
  C257     1.0000 0.75650  0.84612  0.94900  Biso   1.000  C
  C258     1.0000 0.24350  0.34612  0.55100  Biso   1.000  C
  C259     1.0000 0.24350  0.15388  0.05100  Biso   1.000  C
  C260     1.0000 0.75650  0.65388  0.44900  Biso   1.000  C
  C261     1.0000 0.70580  0.85110  0.99750  Biso   1.000  C
  C262     1.0000 0.29420  0.35110  0.50250  Biso   1.000  C
  C263     1.0000 0.29420  0.14890  0.00250  Biso   1.000  C
  C264     1.0000 0.70580  0.64890  0.49750  Biso   1.000  C
  C265     1.0000 0.71190  0.83380  0.06230  Biso   1.000  C
  C266     1.0000 0.28810  0.33380  0.43770  Biso   1.000  C
  C267     1.0000 0.28810  0.16620  0.93770  Biso   1.000  C
  C268     1.0000 0.71190  0.66620  0.56230  Biso   1.000  C
  C269     1.0000 0.76730  0.81048  0.07780  Biso   1.000  C
  C270     1.0000 0.23270  0.31048  0.42220  Biso   1.000  C
  C271     1.0000 0.23270  0.18952  0.92220  Biso   1.000  C
  C272     1.0000 0.76730  0.68952  0.57780  Biso   1.000  C
  C273     1.0000 0.77500  0.79210  0.14250  Biso   1.000  C
  C274     1.0000 0.22500  0.29210  0.35750  Biso   1.000  C
  C275     1.0000 0.22500  0.20790  0.85750  Biso   1.000  C
  C276     1.0000 0.77500  0.70790  0.64250  Biso   1.000  C
  C277     1.0000 0.82630  0.76910  0.15720  Biso   1.000  C
  C278     1.0000 0.17370  0.26910  0.34280  Biso   1.000  C
  C279     1.0000 0.17370  0.23090  0.84280  Biso   1.000  C
  C280     1.0000 0.82630  0.73090  0.65720  Biso   1.000  C
  C281     1.0000 0.87550  0.76320  0.11000  Biso   1.000  C
  C282     1.0000 0.12450  0.26320  0.39000  Biso   1.000  C
  C283     1.0000 0.12450  0.23680  0.89000  Biso   1.000  C
  C284     1.0000 0.87550  0.73680  0.61000  Biso   1.000  C
  C285     1.0000 0.87420  0.77996  0.04820  Biso   1.000  C
  C286     1.0000 0.12580  0.27996  0.45180  Biso   1.000  C
  C287     1.0000 0.12580  0.22004  0.95180  Biso   1.000  C
  C288     1.0000 0.87420  0.72004  0.54820  Biso   1.000  C
  C289     1.0000 0.82010  0.80521  0.02990  Biso   1.000  C
  C290     1.0000 0.17990  0.30521  0.47010  Biso   1.000  C
  C291     1.0000 0.17990  0.19479  0.97010  Biso   1.000  C
  C292     1.0000 0.82010  0.69479  0.52990  Biso   1.000  C
  C293     1.0000 0.99710  0.87501  0.85750  Biso   1.000  C
  C294     1.0000 0.00290  0.37501  0.64250  Biso   1.000  C
  C295     1.0000 0.00290  0.12499  0.14250  Biso   1.000  C
  C296     1.0000 0.99710  0.62499  0.35750  Biso   1.000  C
  C297     1.0000 0.00280  0.90880  0.86530  Biso   1.000  C
  C298     1.0000 0.99720  0.40880  0.63470  Biso   1.000  C
  C299     1.0000 0.99720  0.09120  0.13470  Biso   1.000  C
  C300     1.0000 0.00280  0.59120  0.36530  Biso   1.000  C
  C301     1.0000 0.97810  0.92660  0.80330  Biso   1.000  C
  C302     1.0000 0.02190  0.42660  0.69670  Biso   1.000  C
  C303     1.0000 0.02190  0.07340  0.19670  Biso   1.000  C
  C304     1.0000 0.97810  0.57340  0.30330  Biso   1.000  C
  C305     1.0000 0.98310  0.95850  0.80650  Biso   1.000  C
  C306     1.0000 0.01690  0.45850  0.69350  Biso   1.000  C
  C307     1.0000 0.01690  0.04150  0.19350  Biso   1.000  C
  C308     1.0000 0.98310  0.54150  0.30650  Biso   1.000  C
  C309     1.0000 0.01480  0.97190  0.87000  Biso   1.000  C
  C310     1.0000 0.98520  0.47190  0.63000  Biso   1.000  C
  C311     1.0000 0.98520  0.02810  0.13000  Biso   1.000  C
  C312     1.0000 0.01480  0.52810  0.37000  Biso   1.000  C
  C313     1.0000 0.04100  0.95530  0.93990  Biso   1.000  C
  C314     1.0000 0.95900  0.45530  0.56010  Biso   1.000  C
  C315     1.0000 0.95900  0.04470  0.06010  Biso   1.000  C
  C316     1.0000 0.04100  0.54470  0.43990  Biso   1.000  C
  C317     1.0000 0.07240  0.97140  0.00620  Biso   1.000  C
  C318     1.0000 0.92760  0.47140  0.49380  Biso   1.000  C
  C319     1.0000 0.92760  0.02860  0.99380  Biso   1.000  C
  C320     1.0000 0.07240  0.52860  0.50620  Biso   1.000  C
  C321     1.0000 0.09820  0.95550  0.07010  Biso   1.000  C
  C322     1.0000 0.90180  0.45550  0.42990  Biso   1.000  C
  C323     1.0000 0.90180  0.04450  0.92990  Biso   1.000  C
  C324     1.0000 0.09820  0.54450  0.57010  Biso   1.000  C
  C325     1.0000 0.08890  0.92400  0.07170  Biso   1.000  C
  C326     1.0000 0.91110  0.42400  0.42830  Biso   1.000  C
  C327     1.0000 0.91110  0.07600  0.92830  Biso   1.000  C
  C328     1.0000 0.08890  0.57600  0.57170  Biso   1.000  C
  C329     1.0000 0.05990  0.90740  0.00650  Biso   1.000  C
  C330     1.0000 0.94010  0.40740  0.49350  Biso   1.000  C
  C331     1.0000 0.94010  0.09260  0.99350  Biso   1.000  C
  C332     1.0000 0.05990  0.59260  0.50650  Biso   1.000  C
  C333     1.0000 0.03550  0.92360  0.93840  Biso   1.000  C
  C334     1.0000 0.96450  0.42360  0.56160  Biso   1.000  C
  C335     1.0000 0.96450  0.07640  0.06160  Biso   1.000  C
  C336     1.0000 0.03550  0.57640  0.43840  Biso   1.000  C
  C337     1.0000 0.58080  0.06209  0.22050  Biso   1.000  C
  C338     1.0000 0.41920  0.56209  0.27950  Biso   1.000  C
  C339     1.0000 0.41920  0.93791  0.77950  Biso   1.000  C
  C340     1.0000 0.58080  0.43791  0.72050  Biso   1.000  C
  C341     1.0000 0.64760  0.06096  0.18360  Biso   1.000  C
  C342     1.0000 0.35240  0.56096  0.31640  Biso   1.000  C
  C343     1.0000 0.35240  0.93904  0.81640  Biso   1.000  C
  C344     1.0000 0.64760  0.43904  0.68360  Biso   1.000  C
  C345     1.0000 0.72000  0.05230  0.22510  Biso   1.000  C
  C346     1.0000 0.28000  0.55230  0.27490  Biso   1.000  C
  C347     1.0000 0.28000  0.94770  0.77490  Biso   1.000  C
  C348     1.0000 0.72000  0.44770  0.72510  Biso   1.000  C
  C349     1.0000 0.78670  0.05280  0.19900  Biso   1.000  C
  C350     1.0000 0.21330  0.55280  0.30100  Biso   1.000  C
  C351     1.0000 0.21330  0.94720  0.80100  Biso   1.000  C
  C352     1.0000 0.78670  0.44720  0.69900  Biso   1.000  C
  C353     1.0000 0.78560  0.06320  0.13260  Biso   1.000  C
  C354     1.0000 0.21440  0.56320  0.36740  Biso   1.000  C
  C355     1.0000 0.21440  0.93680  0.86740  Biso   1.000  C
  C356     1.0000 0.78560  0.43680  0.63260  Biso   1.000  C
  C357     1.0000 0.71430  0.07230  0.07970  Biso   1.000  C
  C358     1.0000 0.28570  0.57230  0.42030  Biso   1.000  C
  C359     1.0000 0.28570  0.92770  0.92030  Biso   1.000  C
  C360     1.0000 0.71430  0.42770  0.57970  Biso   1.000  C
  C361     1.0000 0.70600  0.08150  0.00450  Biso   1.000  C
  C362     1.0000 0.29400  0.58150  0.49550  Biso   1.000  C
  C363     1.0000 0.29400  0.91850  0.99550  Biso   1.000  C
  C364     1.0000 0.70600  0.41850  0.50450  Biso   1.000  C
  C365     1.0000 0.63390  0.08900  0.95790  Biso   1.000  C
  C366     1.0000 0.36610  0.58900  0.54210  Biso   1.000  C
  C367     1.0000 0.36610  0.91100  0.04210  Biso   1.000  C
  C368     1.0000 0.63390  0.41100  0.45790  Biso   1.000  C
  C369     1.0000 0.56410  0.08740  0.98350  Biso   1.000  C
  C370     1.0000 0.43590  0.58740  0.51650  Biso   1.000  C
  C371     1.0000 0.43590  0.91260  0.01650  Biso   1.000  C
  C372     1.0000 0.56410  0.41260  0.48350  Biso   1.000  C
  C373     1.0000 0.57330  0.07880  0.05840  Biso   1.000  C
  C374     1.0000 0.42670  0.57880  0.44160  Biso   1.000  C
  C375     1.0000 0.42670  0.92120  0.94160  Biso   1.000  C
  C376     1.0000 0.57330  0.42120  0.55840  Biso   1.000  C
  C377     1.0000 0.64480  0.07150  0.10840  Biso   1.000  C
  C378     1.0000 0.35520  0.57150  0.39160  Biso   1.000  C
  C379     1.0000 0.35520  0.92850  0.89160  Biso   1.000  C
  C380     1.0000 0.64480  0.42850  0.60840  Biso   1.000  C
  C381     1.0000 0.38300  0.04893  0.15400  Biso   1.000  C
  C382     1.0000 0.61700  0.54893  0.34600  Biso   1.000  C
  C383     1.0000 0.61700  0.95107  0.84600  Biso   1.000  C
  C384     1.0000 0.38300  0.45107  0.65400  Biso   1.000  C
  C385     1.0000 0.35000  0.03605  0.07660  Biso   1.000  C
  C386     1.0000 0.65000  0.53605  0.42340  Biso   1.000  C
  C387     1.0000 0.65000  0.96395  0.92340  Biso   1.000  C
  C388     1.0000 0.35000  0.46395  0.57660  Biso   1.000  C
  C389     1.0000 0.39660  0.01512  0.04930  Biso   1.000  C
  C390     1.0000 0.60340  0.51512  0.45070  Biso   1.000  C
  C391     1.0000 0.60340  0.98488  0.95070  Biso   1.000  C
  C392     1.0000 0.39660  0.48488  0.54930  Biso   1.000  C
  C393     1.0000 0.37010  0.00270  0.97760  Biso   1.000  C
  C394     1.0000 0.62990  0.50270  0.52240  Biso   1.000  C
  C395     1.0000 0.62990  0.99730  0.02240  Biso   1.000  C
  C396     1.0000 0.37010  0.49730  0.47760  Biso   1.000  C
  C397     1.0000 0.30050  0.01050  0.93470  Biso   1.000  C
  C398     1.0000 0.69950  0.51050  0.56530  Biso   1.000  C
  C399     1.0000 0.69950  0.98950  0.06530  Biso   1.000  C
  C400     1.0000 0.30050  0.48950  0.43470  Biso   1.000  C
  C401     1.0000 0.25090  0.03120  0.96030  Biso   1.000  C
  C402     1.0000 0.74910  0.53120  0.53970  Biso   1.000  C
  C403     1.0000 0.74910  0.96880  0.03970  Biso   1.000  C
  C404     1.0000 0.25090  0.46880  0.46030  Biso   1.000  C
  C405     1.0000 0.17560  0.03890  0.91720  Biso   1.000  C
  C406     1.0000 0.82440  0.53890  0.58280  Biso   1.000  C
  C407     1.0000 0.82440  0.96110  0.08280  Biso   1.000  C
  C408     1.0000 0.17560  0.46110  0.41720  Biso   1.000  C
  C409     1.0000 0.12950  0.05940  0.94350  Biso   1.000  C
  C410     1.0000 0.87050  0.55940  0.55650  Biso   1.000  C
  C411     1.0000 0.87050  0.94060  0.05650  Biso   1.000  C
  C412     1.0000 0.12950  0.44060  0.44350  Biso   1.000  C
  C413     1.0000 0.15510  0.07370  0.01270  Biso   1.000  C
  C414     1.0000 0.84490  0.57370  0.48730  Biso   1.000  C
  C415     1.0000 0.84490  0.92630  0.98730  Biso   1.000  C
  C416     1.0000 0.15510  0.42630  0.51270  Biso   1.000  C
  C417     1.0000 0.22700  0.06630  0.05930  Biso   1.000  C
  C418     1.0000 0.77300  0.56630  0.44070  Biso   1.000  C
  C419     1.0000 0.77300  0.93370  0.94070  Biso   1.000  C
  C420     1.0000 0.22700  0.43370  0.55930  Biso   1.000  C
  C421     1.0000 0.27620  0.04520  0.03290  Biso   1.000  C
  C422     1.0000 0.72380  0.54520  0.46710  Biso   1.000  C
  C423     1.0000 0.72380  0.95480  0.96710  Biso   1.000  C
  C424     1.0000 0.27620  0.45480  0.53290  Biso   1.000  C
  C425     1.0000 0.34740  0.06953  0.33990  Biso   1.000  C
  C426     1.0000 0.65260  0.56953  0.16010  Biso   1.000  C
  C427     1.0000 0.65260  0.93047  0.66010  Biso   1.000  C
  C428     1.0000 0.34740  0.43047  0.83990  Biso   1.000  C
  C429     1.0000 0.27930  0.07043  0.37460  Biso   1.000  C
  C430     1.0000 0.72070  0.57043  0.12540  Biso   1.000  C
  C431     1.0000 0.72070  0.92957  0.62540  Biso   1.000  C
  C432     1.0000 0.27930  0.42957  0.87460  Biso   1.000  C
  C433     1.0000 0.22040  0.09166  0.34510  Biso   1.000  C
  C434     1.0000 0.77960  0.59166  0.15490  Biso   1.000  C
  C435     1.0000 0.77960  0.90834  0.65490  Biso   1.000  C
  C436     1.0000 0.22040  0.40834  0.84510  Biso   1.000  C
  C437     1.0000 0.15540  0.09470  0.37480  Biso   1.000  C
  C438     1.0000 0.84460  0.59470  0.12520  Biso   1.000  C
  C439     1.0000 0.84460  0.90530  0.62520  Biso   1.000  C
  C440     1.0000 0.15540  0.40530  0.87480  Biso   1.000  C
  C441     1.0000 0.14320  0.07710  0.43230  Biso   1.000  C
  C442     1.0000 0.85680  0.57710  0.06770  Biso   1.000  C
  C443     1.0000 0.85680  0.92290  0.56770  Biso   1.000  C
  C444     1.0000 0.14320  0.42290  0.93230  Biso   1.000  C
  C445     1.0000 0.20290  0.05490  0.46630  Biso   1.000  C
  C446     1.0000 0.79710  0.55490  0.03370  Biso   1.000  C
  C447     1.0000 0.79710  0.94510  0.53370  Biso   1.000  C
  C448     1.0000 0.20290  0.44510  0.96630  Biso   1.000  C
  C449     1.0000 0.19030  0.03770  0.52780  Biso   1.000  C
  C450     1.0000 0.80970  0.53770  0.97220  Biso   1.000  C
  C451     1.0000 0.80970  0.96230  0.47220  Biso   1.000  C
  C452     1.0000 0.19030  0.46230  0.02780  Biso   1.000  C
  C453     1.0000 0.24930  0.01630  0.56040  Biso   1.000  C
  C454     1.0000 0.75070  0.51630  0.93960  Biso   1.000  C
  C455     1.0000 0.75070  0.98370  0.43960  Biso   1.000  C
  C456     1.0000 0.24930  0.48370  0.06040  Biso   1.000  C
  C457     1.0000 0.31740  0.01340  0.53440  Biso   1.000  C
  C458     1.0000 0.68260  0.51340  0.96560  Biso   1.000  C
  C459     1.0000 0.68260  0.98660  0.46560  Biso   1.000  C
  C460     1.0000 0.31740  0.48660  0.03440  Biso   1.000  C
  C461     1.0000 0.32840  0.03007  0.47480  Biso   1.000  C
  C462     1.0000 0.67160  0.53007  0.02520  Biso   1.000  C
  C463     1.0000 0.67160  0.96993  0.52520  Biso   1.000  C
  C464     1.0000 0.32840  0.46993  0.97480  Biso   1.000  C
  C465     1.0000 0.27030  0.05185  0.43660  Biso   1.000  C
  C466     1.0000 0.72970  0.55185  0.06340  Biso   1.000  C
  C467     1.0000 0.72970  0.94815  0.56340  Biso   1.000  C
  C468     1.0000 0.27030  0.44815  0.93660  Biso   1.000  C
  C469     1.0000 0.55210  0.08739  0.39860  Biso   1.000  C
  C470     1.0000 0.44790  0.58739  0.10140  Biso   1.000  C
  C471     1.0000 0.44790  0.91261  0.60140  Biso   1.000  C
  C472     1.0000 0.55210  0.41261  0.89860  Biso   1.000  C
  C473     1.0000 0.60840  0.10130  0.46520  Biso   1.000  C
  C474     1.0000 0.39160  0.60130  0.03480  Biso   1.000  C
  C475     1.0000 0.39160  0.89870  0.53480  Biso   1.000  C
  C476     1.0000 0.60840  0.39870  0.96520  Biso   1.000  C
  C477     1.0000 0.66870  0.08250  0.50110  Biso   1.000  C
  C478     1.0000 0.33130  0.58250  0.99890  Biso   1.000  C
  C479     1.0000 0.33130  0.91750  0.49890  Biso   1.000  C
  C480     1.0000 0.66870  0.41750  0.00110  Biso   1.000  C
  C481     1.0000 0.72500  0.09490  0.56370  Biso   1.000  C
  C482     1.0000 0.27500  0.59490  0.93630  Biso   1.000  C
  C483     1.0000 0.27500  0.90510  0.43630  Biso   1.000  C
  C484     1.0000 0.72500  0.40510  0.06370  Biso   1.000  C
  C485     1.0000 0.72310  0.12430  0.58430  Biso   1.000  C
  C486     1.0000 0.27690  0.62430  0.91570  Biso   1.000  C
  C487     1.0000 0.27690  0.87570  0.41570  Biso   1.000  C
  C488     1.0000 0.72310  0.37570  0.08430  Biso   1.000  C
  C489     1.0000 0.66220  0.14420  0.54950  Biso   1.000  C
  C490     1.0000 0.33780  0.64420  0.95050  Biso   1.000  C
  C491     1.0000 0.33780  0.85580  0.45050  Biso   1.000  C
  C492     1.0000 0.66220  0.35580  0.04950  Biso   1.000  C
  C493     1.0000 0.66210  0.17380  0.57360  Biso   1.000  C
  C494     1.0000 0.33790  0.67380  0.92640  Biso   1.000  C
  C495     1.0000 0.33790  0.82620  0.42640  Biso   1.000  C
  C496     1.0000 0.66210  0.32620  0.07360  Biso   1.000  C
  C497     1.0000 0.60550  0.19320  0.53690  Biso   1.000  C
  C498     1.0000 0.39450  0.69320  0.96310  Biso   1.000  C
  C499     1.0000 0.39450  0.80680  0.46310  Biso   1.000  C
  C500     1.0000 0.60550  0.30680  0.03690  Biso   1.000  C
  C501     1.0000 0.54430  0.18290  0.47920  Biso   1.000  C
  C502     1.0000 0.45570  0.68290  0.02080  Biso   1.000  C
  C503     1.0000 0.45570  0.81710  0.52080  Biso   1.000  C
  C504     1.0000 0.54430  0.31710  0.97920  Biso   1.000  C
  C505     1.0000 0.54310  0.15280  0.45590  Biso   1.000  C
  C506     1.0000 0.45690  0.65280  0.04410  Biso   1.000  C
  C507     1.0000 0.45690  0.84720  0.54410  Biso   1.000  C
  C508     1.0000 0.54310  0.34720  0.95590  Biso   1.000  C
  C509     1.0000 0.60210  0.13230  0.48760  Biso   1.000  C
  C510     1.0000 0.39790  0.63230  0.01240  Biso   1.000  C
  C511     1.0000 0.39790  0.86770  0.51240  Biso   1.000  C
  C512     1.0000 0.60210  0.36770  0.98760  Biso   1.000  C
  H1       1.0000 0.70481  0.75449  0.52118  Biso   1.000  H
  H2       1.0000 0.29519  0.25449  0.97882  Biso   1.000  H
  H3       1.0000 0.29519  0.24551  0.47882  Biso   1.000  H
  H4       1.0000 0.70481  0.74551  0.02118  Biso   1.000  H
  H5       1.0000 0.64099  0.71490  0.43147  Biso   1.000  H
  H6       1.0000 0.35901  0.21490  0.06853  Biso   1.000  H
  H7       1.0000 0.35901  0.28510  0.56853  Biso   1.000  H
  H8       1.0000 0.64099  0.78510  0.93147  Biso   1.000  H
  H9       1.0000 0.40730  0.71497  0.19168  Biso   1.000  H
  H10      1.0000 0.59270  0.21497  0.30832  Biso   1.000  H
  H11      1.0000 0.59270  0.28503  0.80832  Biso   1.000  H
  H12      1.0000 0.40730  0.78503  0.69168  Biso   1.000  H
  H13      1.0000 0.31194  0.75365  0.12795  Biso   1.000  H
  H14      1.0000 0.68806  0.25365  0.37205  Biso   1.000  H
  H15      1.0000 0.68806  0.24635  0.87205  Biso   1.000  H
  H16      1.0000 0.31194  0.74635  0.62795  Biso   1.000  H
  H17      1.0000 0.26423  0.87205  0.17751  Biso   1.000  H
  H18      1.0000 0.73577  0.37205  0.32249  Biso   1.000  H
  H19      1.0000 0.73577  0.12795  0.82249  Biso   1.000  H
  H20      1.0000 0.26423  0.62795  0.67751  Biso   1.000  H
  H21      1.0000 0.34769  0.91266  0.24828  Biso   1.000  H
  H22      1.0000 0.65231  0.41266  0.25172  Biso   1.000  H
  H23      1.0000 0.65231  0.08734  0.75172  Biso   1.000  H
  H24      1.0000 0.34769  0.58734  0.74828  Biso   1.000  H
  H25      1.0000 0.61427  0.91475  0.45096  Biso   1.000  H
  H26      1.0000 0.38573  0.41475  0.04904  Biso   1.000  H
  H27      1.0000 0.38573  0.08525  0.54904  Biso   1.000  H
  H28      1.0000 0.61427  0.58525  0.95096  Biso   1.000  H
  H29      1.0000 0.69431  0.87527  0.52823  Biso   1.000  H
  H30      1.0000 0.30569  0.37527  0.97177  Biso   1.000  H
  H31      1.0000 0.30569  0.12473  0.47177  Biso   1.000  H
  H32      1.0000 0.69431  0.62473  0.02823  Biso   1.000  H
  H33      1.0000 0.80367  0.82495  0.50688  Biso   1.000  H
  H34      1.0000 0.19633  0.32495  0.99312  Biso   1.000  H
  H35      1.0000 0.19633  0.17505  0.49312  Biso   1.000  H
  H36      1.0000 0.80367  0.67505  0.00688  Biso   1.000  H
  H37      1.0000 0.90165  0.82632  0.61716  Biso   1.000  H
  H38      1.0000 0.09835  0.32632  0.88284  Biso   1.000  H
  H39      1.0000 0.09835  0.17368  0.38284  Biso   1.000  H
  H40      1.0000 0.90165  0.67368  0.11716  Biso   1.000  H
  H41      1.0000 0.74735  0.80839  0.73520  Biso   1.000  H
  H42      1.0000 0.25265  0.30839  0.76480  Biso   1.000  H
  H43      1.0000 0.25265  0.19161  0.26480  Biso   1.000  H
  H44      1.0000 0.74735  0.69161  0.23520  Biso   1.000  H
  H45      1.0000 0.64956  0.80486  0.62770  Biso   1.000  H
  H46      1.0000 0.35044  0.30486  0.87230  Biso   1.000  H
  H47      1.0000 0.35044  0.19514  0.37230  Biso   1.000  H
  H48      1.0000 0.64956  0.69514  0.12770  Biso   1.000  H
  H49      1.0000 0.47633  0.68624  0.38239  Biso   1.000  H
  H50      1.0000 0.52367  0.18624  0.11761  Biso   1.000  H
  H51      1.0000 0.52367  0.31376  0.61761  Biso   1.000  H
  H52      1.0000 0.47633  0.81376  0.88239  Biso   1.000  H
  H53      1.0000 0.50180  0.63569  0.36306  Biso   1.000  H
  H54      1.0000 0.49820  0.13569  0.13694  Biso   1.000  H
  H55      1.0000 0.49820  0.36431  0.63694  Biso   1.000  H
  H56      1.0000 0.50180  0.86431  0.86306  Biso   1.000  H
  H57      1.0000 0.61404  0.65601  0.21305  Biso   1.000  H
  H58      1.0000 0.38596  0.15601  0.28695  Biso   1.000  H
  H59      1.0000 0.38596  0.34399  0.78695  Biso   1.000  H
  H60      1.0000 0.61404  0.84399  0.71305  Biso   1.000  H
  H61      1.0000 0.59869  0.70812  0.23202  Biso   1.000  H
  H62      1.0000 0.40131  0.20812  0.26798  Biso   1.000  H
  H63      1.0000 0.40131  0.29188  0.76798  Biso   1.000  H
  H64      1.0000 0.59869  0.79188  0.73202  Biso   1.000  H
  H65      1.0000 0.19404  0.78327  0.16857  Biso   1.000  H
  H66      1.0000 0.80596  0.28327  0.33143  Biso   1.000  H
  H67      1.0000 0.80596  0.21673  0.83143  Biso   1.000  H
  H68      1.0000 0.19404  0.71673  0.66857  Biso   1.000  H
  H69      1.0000 0.09010  0.78556  0.06509  Biso   1.000  H
  H70      1.0000 0.90990  0.28556  0.43491  Biso   1.000  H
  H71      1.0000 0.90990  0.21444  0.93491  Biso   1.000  H
  H72      1.0000 0.09010  0.71444  0.56509  Biso   1.000  H
  H73      1.0000 0.19894  0.84444  0.96407  Biso   1.000  H
  H74      1.0000 0.80106  0.34444  0.53593  Biso   1.000  H
  H75      1.0000 0.80106  0.15556  0.03593  Biso   1.000  H
  H76      1.0000 0.19894  0.65556  0.46407  Biso   1.000  H
  H77      1.0000 0.30506  0.84401  0.06304  Biso   1.000  H
  H78      1.0000 0.69494  0.34401  0.43696  Biso   1.000  H
  H79      1.0000 0.69494  0.15599  0.93696  Biso   1.000  H
  H80      1.0000 0.30506  0.65599  0.56304  Biso   1.000  H
  H81      1.0000 0.51181  0.92945  0.23506  Biso   1.000  H
  H82      1.0000 0.48819  0.42945  0.26494  Biso   1.000  H
  H83      1.0000 0.48819  0.07055  0.76494  Biso   1.000  H
  H84      1.0000 0.51181  0.57055  0.73506  Biso   1.000  H
  H85      1.0000 0.51496  0.98255  0.23241  Biso   1.000  H
  H86      1.0000 0.48504  0.48255  0.26759  Biso   1.000  H
  H87      1.0000 0.48504  0.01745  0.76759  Biso   1.000  H
  H88      1.0000 0.51496  0.51745  0.73241  Biso   1.000  H
  H89      1.0000 0.46364  0.98815  0.42835  Biso   1.000  H
  H90      1.0000 0.53636  0.48815  0.07165  Biso   1.000  H
  H91      1.0000 0.53636  0.01185  0.57165  Biso   1.000  H
  H92      1.0000 0.46364  0.51185  0.92835  Biso   1.000  H
  H93      1.0000 0.46471  0.93565  0.43948  Biso   1.000  H
  H94      1.0000 0.53529  0.43565  0.06052  Biso   1.000  H
  H95      1.0000 0.53529  0.06435  0.56052  Biso   1.000  H
  H96      1.0000 0.46471  0.56435  0.93948  Biso   1.000  H
  H97      1.0000 0.04918  0.77975  0.63332  Biso   1.000  H
  H98      1.0000 0.95082  0.27975  0.86668  Biso   1.000  H
  H99      1.0000 0.95082  0.22025  0.36668  Biso   1.000  H
  H100     1.0000 0.04918  0.72025  0.13332  Biso   1.000  H
  H101     1.0000 0.11988  0.77439  0.54298  Biso   1.000  H
  H102     1.0000 0.88012  0.27439  0.95702  Biso   1.000  H
  H103     1.0000 0.88012  0.22561  0.45702  Biso   1.000  H
  H104     1.0000 0.11988  0.72561  0.04298  Biso   1.000  H
  H105     1.0000 0.23739  0.80144  0.55323  Biso   1.000  H
  H106     1.0000 0.76261  0.30144  0.94677  Biso   1.000  H
  H107     1.0000 0.76261  0.19856  0.44677  Biso   1.000  H
  H108     1.0000 0.23739  0.69856  0.05323  Biso   1.000  H
  H109     1.0000 0.33126  0.83909  0.62301  Biso   1.000  H
  H110     1.0000 0.66874  0.33909  0.87699  Biso   1.000  H
  H111     1.0000 0.66874  0.16091  0.37699  Biso   1.000  H
  H112     1.0000 0.33126  0.66091  0.12301  Biso   1.000  H
  H113     1.0000 0.37585  0.87001  0.72370  Biso   1.000  H
  H114     1.0000 0.62415  0.37001  0.77630  Biso   1.000  H
  H115     1.0000 0.62415  0.12999  0.27630  Biso   1.000  H
  H116     1.0000 0.37585  0.62999  0.22370  Biso   1.000  H
  H117     1.0000 0.30657  0.87403  0.81714  Biso   1.000  H
  H118     1.0000 0.69343  0.37403  0.68286  Biso   1.000  H
  H119     1.0000 0.69343  0.12597  0.18286  Biso   1.000  H
  H120     1.0000 0.30657  0.62597  0.31714  Biso   1.000  H
  H121     1.0000 0.19225  0.84902  0.80918  Biso   1.000  H
  H122     1.0000 0.80775  0.34902  0.69082  Biso   1.000  H
  H123     1.0000 0.80775  0.15098  0.19082  Biso   1.000  H
  H124     1.0000 0.19225  0.65098  0.30918  Biso   1.000  H
  H125     1.0000 0.07415  0.71673  0.90493  Biso   1.000  H
  H126     1.0000 0.92585  0.21673  0.59507  Biso   1.000  H
  H127     1.0000 0.92585  0.28327  0.09507  Biso   1.000  H
  H128     1.0000 0.07415  0.78327  0.40493  Biso   1.000  H
  H129     1.0000 0.06380  0.66222  0.91917  Biso   1.000  H
  H130     1.0000 0.93620  0.16222  0.58083  Biso   1.000  H
  H131     1.0000 0.93620  0.33778  0.08083  Biso   1.000  H
  H132     1.0000 0.06380  0.83778  0.41917  Biso   1.000  H
  H133     1.0000 0.94033  0.64009  0.89275  Biso   1.000  H
  H134     1.0000 0.05967  0.14009  0.60725  Biso   1.000  H
  H135     1.0000 0.05967  0.35991  0.10725  Biso   1.000  H
  H136     1.0000 0.94033  0.85991  0.39275  Biso   1.000  H
  H137     1.0000 0.79756  0.64382  0.85697  Biso   1.000  H
  H138     1.0000 0.20244  0.14382  0.64303  Biso   1.000  H
  H139     1.0000 0.20244  0.35618  0.14303  Biso   1.000  H
  H140     1.0000 0.79756  0.85618  0.35697  Biso   1.000  H
  H141     1.0000 0.68723  0.67246  0.81942  Biso   1.000  H
  H142     1.0000 0.31277  0.17246  0.68058  Biso   1.000  H
  H143     1.0000 0.31277  0.32754  0.18058  Biso   1.000  H
  H144     1.0000 0.68723  0.82754  0.31942  Biso   1.000  H
  H145     1.0000 0.69689  0.72598  0.82111  Biso   1.000  H
  H146     1.0000 0.30311  0.22598  0.67889  Biso   1.000  H
  H147     1.0000 0.30311  0.27402  0.17889  Biso   1.000  H
  H148     1.0000 0.69689  0.77402  0.32111  Biso   1.000  H
  H149     1.0000 0.81463  0.75021  0.84305  Biso   1.000  H
  H150     1.0000 0.18537  0.25021  0.65695  Biso   1.000  H
  H151     1.0000 0.18537  0.24979  0.15695  Biso   1.000  H
  H152     1.0000 0.81463  0.74979  0.34305  Biso   1.000  H
  H153     1.0000 0.75130  0.85771  0.90434  Biso   1.000  H
  H154     1.0000 0.24870  0.35771  0.59566  Biso   1.000  H
  H155     1.0000 0.24870  0.14229  0.09566  Biso   1.000  H
  H156     1.0000 0.75130  0.64229  0.40434  Biso   1.000  H
  H157     1.0000 0.66702  0.86654  0.98581  Biso   1.000  H
  H158     1.0000 0.33298  0.36654  0.51419  Biso   1.000  H
  H159     1.0000 0.33298  0.13346  0.01419  Biso   1.000  H
  H160     1.0000 0.66702  0.63346  0.48581  Biso   1.000  H
  H161     1.0000 0.67873  0.83770  0.09556  Biso   1.000  H
  H162     1.0000 0.32127  0.33770  0.40444  Biso   1.000  H
  H163     1.0000 0.32127  0.16230  0.90444  Biso   1.000  H
  H164     1.0000 0.67873  0.66230  0.59556  Biso   1.000  H
  H165     1.0000 0.74291  0.79623  0.17656  Biso   1.000  H
  H166     1.0000 0.25709  0.29623  0.32344  Biso   1.000  H
  H167     1.0000 0.25709  0.20377  0.82344  Biso   1.000  H
  H168     1.0000 0.74291  0.70377  0.67656  Biso   1.000  H
  H169     1.0000 0.82882  0.75686  0.20044  Biso   1.000  H
  H170     1.0000 0.17118  0.25686  0.29956  Biso   1.000  H
  H171     1.0000 0.17118  0.24314  0.79956  Biso   1.000  H
  H172     1.0000 0.82882  0.74314  0.70044  Biso   1.000  H
  H173     1.0000 0.91129  0.74671  0.12149  Biso   1.000  H
  H174     1.0000 0.08871  0.24671  0.37851  Biso   1.000  H
  H175     1.0000 0.08871  0.25329  0.87851  Biso   1.000  H
  H176     1.0000 0.91129  0.75329  0.62149  Biso   1.000  H
  H177     1.0000 0.90862  0.77529  0.01672  Biso   1.000  H
  H178     1.0000 0.09138  0.27529  0.48328  Biso   1.000  H
  H179     1.0000 0.09138  0.22471  0.98328  Biso   1.000  H
  H180     1.0000 0.90862  0.72471  0.51672  Biso   1.000  H
  H181     1.0000 0.95691  0.91702  0.75661  Biso   1.000  H
  H182     1.0000 0.04309  0.41702  0.74339  Biso   1.000  H
  H183     1.0000 0.04309  0.08298  0.24339  Biso   1.000  H
  H184     1.0000 0.95691  0.58298  0.25661  Biso   1.000  H
  H185     1.0000 0.96356  0.97038  0.76289  Biso   1.000  H
  H186     1.0000 0.03644  0.47038  0.73711  Biso   1.000  H
  H187     1.0000 0.03644  0.02962  0.23711  Biso   1.000  H
  H188     1.0000 0.96356  0.52962  0.26289  Biso   1.000  H
  H189     1.0000 0.02097  0.99351  0.87038  Biso   1.000  H
  H190     1.0000 0.97903  0.49351  0.62962  Biso   1.000  H
  H191     1.0000 0.97903  0.00649  0.12962  Biso   1.000  H
  H192     1.0000 0.02097  0.50649  0.37038  Biso   1.000  H
  H193     1.0000 0.07540  0.99309  0.00603  Biso   1.000  H
  H194     1.0000 0.92460  0.49309  0.49397  Biso   1.000  H
  H195     1.0000 0.92460  0.00691  0.99397  Biso   1.000  H
  H196     1.0000 0.07540  0.50691  0.50603  Biso   1.000  H
  H197     1.0000 0.12291  0.96594  0.11450  Biso   1.000  H
  H198     1.0000 0.87709  0.46594  0.38550  Biso   1.000  H
  H199     1.0000 0.87709  0.03406  0.88550  Biso   1.000  H
  H200     1.0000 0.12291  0.53406  0.61450  Biso   1.000  H
  H201     1.0000 0.10267  0.91357  0.11829  Biso   1.000  H
  H202     1.0000 0.89733  0.41357  0.38171  Biso   1.000  H
  H203     1.0000 0.89733  0.08643  0.88171  Biso   1.000  H
  H204     1.0000 0.10267  0.58643  0.61829  Biso   1.000  H
  H205     1.0000 0.05664  0.88571  0.00778  Biso   1.000  H
  H206     1.0000 0.94336  0.38571  0.49222  Biso   1.000  H
  H207     1.0000 0.94336  0.11429  0.99222  Biso   1.000  H
  H208     1.0000 0.05664  0.61429  0.50778  Biso   1.000  H
  H209     1.0000 0.72356  0.04560  0.27508  Biso   1.000  H
  H210     1.0000 0.27644  0.54560  0.22492  Biso   1.000  H
  H211     1.0000 0.27644  0.95440  0.72492  Biso   1.000  H
  H212     1.0000 0.72356  0.45440  0.77508  Biso   1.000  H
  H213     1.0000 0.83399  0.04556  0.22967  Biso   1.000  H
  H214     1.0000 0.16601  0.54556  0.27033  Biso   1.000  H
  H215     1.0000 0.16601  0.95444  0.77033  Biso   1.000  H
  H216     1.0000 0.83399  0.45444  0.72967  Biso   1.000  H
  H217     1.0000 0.83355  0.06491  0.11751  Biso   1.000  H
  H218     1.0000 0.16645  0.56491  0.38249  Biso   1.000  H
  H219     1.0000 0.16645  0.93509  0.88249  Biso   1.000  H
  H220     1.0000 0.83355  0.43509  0.61751  Biso   1.000  H
  H221     1.0000 0.75119  0.08271  0.98457  Biso   1.000  H
  H222     1.0000 0.24881  0.58271  0.51543  Biso   1.000  H
  H223     1.0000 0.24881  0.91729  0.01543  Biso   1.000  H
  H224     1.0000 0.75119  0.41729  0.48457  Biso   1.000  H
  H225     1.0000 0.63180  0.09532  0.90788  Biso   1.000  H
  H226     1.0000 0.36820  0.59532  0.59212  Biso   1.000  H
  H227     1.0000 0.36820  0.90468  0.09212  Biso   1.000  H
  H228     1.0000 0.63180  0.40468  0.40788  Biso   1.000  H
  H229     1.0000 0.51472  0.09178  0.95216  Biso   1.000  H
  H230     1.0000 0.48528  0.59178  0.54784  Biso   1.000  H
  H231     1.0000 0.48528  0.90822  0.04784  Biso   1.000  H
  H232     1.0000 0.51472  0.40822  0.45216  Biso   1.000  H
  H233     1.0000 0.52769  0.07773  0.07766  Biso   1.000  H
  H234     1.0000 0.47231  0.57773  0.42234  Biso   1.000  H
  H235     1.0000 0.47231  0.92227  0.92234  Biso   1.000  H
  H236     1.0000 0.52769  0.42227  0.57766  Biso   1.000  H
  H237     1.0000 0.44575  0.00936  0.07912  Biso   1.000  H
  H238     1.0000 0.55425  0.50936  0.42088  Biso   1.000  H
  H239     1.0000 0.55425  0.99064  0.92088  Biso   1.000  H
  H240     1.0000 0.44575  0.49064  0.57912  Biso   1.000  H
  H241     1.0000 0.40175  0.98841  0.95899  Biso   1.000  H
  H242     1.0000 0.59825  0.48841  0.54101  Biso   1.000  H
  H243     1.0000 0.59825  0.01159  0.04101  Biso   1.000  H
  H244     1.0000 0.40175  0.51159  0.45899  Biso   1.000  H
  H245     1.0000 0.28449  0.00193  0.88604  Biso   1.000  H
  H246     1.0000 0.71551  0.50193  0.61396  Biso   1.000  H
  H247     1.0000 0.71551  0.99807  0.11396  Biso   1.000  H
  H248     1.0000 0.28449  0.49807  0.38604  Biso   1.000  H
  H249     1.0000 0.15712  0.02975  0.86952  Biso   1.000  H
  H250     1.0000 0.84288  0.52975  0.63048  Biso   1.000  H
  H251     1.0000 0.84288  0.97025  0.13048  Biso   1.000  H
  H252     1.0000 0.15712  0.47025  0.36952  Biso   1.000  H
  H253     1.0000 0.07930  0.06402  0.91416  Biso   1.000  H
  H254     1.0000 0.92070  0.56402  0.58584  Biso   1.000  H
  H255     1.0000 0.92070  0.93598  0.08584  Biso   1.000  H
  H256     1.0000 0.07930  0.43598  0.41416  Biso   1.000  H
  H257     1.0000 0.12314  0.08858  0.02851  Biso   1.000  H
  H258     1.0000 0.87686  0.58858  0.47149  Biso   1.000  H
  H259     1.0000 0.87686  0.91142  0.97149  Biso   1.000  H
  H260     1.0000 0.12314  0.41142  0.52851  Biso   1.000  H
  H261     1.0000 0.24284  0.07529  0.10753  Biso   1.000  H
  H262     1.0000 0.75716  0.57529  0.39247  Biso   1.000  H
  H263     1.0000 0.75716  0.92471  0.89247  Biso   1.000  H
  H264     1.0000 0.24284  0.42471  0.60753  Biso   1.000  H
  H265     1.0000 0.22546  0.10414  0.30407  Biso   1.000  H
  H266     1.0000 0.77454  0.60414  0.19593  Biso   1.000  H
  H267     1.0000 0.77454  0.89586  0.69593  Biso   1.000  H
  H268     1.0000 0.22546  0.39586  0.80407  Biso   1.000  H
  H269     1.0000 0.11766  0.10963  0.35409  Biso   1.000  H
  H270     1.0000 0.88234  0.60963  0.14591  Biso   1.000  H
  H271     1.0000 0.88234  0.89037  0.64591  Biso   1.000  H
  H272     1.0000 0.11766  0.39037  0.85409  Biso   1.000  H
  H273     1.0000 0.09689  0.07923  0.45009  Biso   1.000  H
  H274     1.0000 0.90311  0.57923  0.04991  Biso   1.000  H
  H275     1.0000 0.90311  0.92077  0.54991  Biso   1.000  H
  H276     1.0000 0.09689  0.42077  0.95009  Biso   1.000  H
  H277     1.0000 0.14475  0.04032  0.54656  Biso   1.000  H
  H278     1.0000 0.85525  0.54032  0.95344  Biso   1.000  H
  H279     1.0000 0.85525  0.95968  0.45344  Biso   1.000  H
  H280     1.0000 0.14475  0.45968  0.04656  Biso   1.000  H
  H281     1.0000 0.24191  0.00373  0.60058  Biso   1.000  H
  H282     1.0000 0.75809  0.50373  0.89942  Biso   1.000  H
  H283     1.0000 0.75809  0.99627  0.39942  Biso   1.000  H
  H284     1.0000 0.24191  0.49627  0.10058  Biso   1.000  H
  H285     1.0000 0.35666  0.99968  0.55867  Biso   1.000  H
  H286     1.0000 0.64334  0.49968  0.94133  Biso   1.000  H
  H287     1.0000 0.64334  0.00032  0.44133  Biso   1.000  H
  H288     1.0000 0.35666  0.50032  0.05867  Biso   1.000  H
  H289     1.0000 0.37498  0.02743  0.45779  Biso   1.000  H
  H290     1.0000 0.62502  0.52743  0.04221  Biso   1.000  H
  H291     1.0000 0.62502  0.97257  0.54221  Biso   1.000  H
  H292     1.0000 0.37498  0.47257  0.95779  Biso   1.000  H
  H293     1.0000 0.67287  0.06209  0.48489  Biso   1.000  H
  H294     1.0000 0.32713  0.56209  0.01511  Biso   1.000  H
  H295     1.0000 0.32713  0.93791  0.51511  Biso   1.000  H
  H296     1.0000 0.67287  0.43791  0.98489  Biso   1.000  H
  H297     1.0000 0.76445  0.08194  0.59113  Biso   1.000  H
  H298     1.0000 0.23555  0.58194  0.90887  Biso   1.000  H
  H299     1.0000 0.23555  0.91806  0.40887  Biso   1.000  H
  H300     1.0000 0.76445  0.41806  0.09113  Biso   1.000  H
  H301     1.0000 0.76357  0.13196  0.62318  Biso   1.000  H
  H302     1.0000 0.23643  0.63196  0.87682  Biso   1.000  H
  H303     1.0000 0.23643  0.86804  0.37682  Biso   1.000  H
  H304     1.0000 0.76357  0.36804  0.12318  Biso   1.000  H
  H305     1.0000 0.70070  0.18074  0.61506  Biso   1.000  H
  H306     1.0000 0.29930  0.68074  0.88494  Biso   1.000  H
  H307     1.0000 0.29930  0.81926  0.38494  Biso   1.000  H
  H308     1.0000 0.70070  0.31926  0.11506  Biso   1.000  H
  H309     1.0000 0.60766  0.21416  0.55084  Biso   1.000  H
  H310     1.0000 0.39234  0.71416  0.94916  Biso   1.000  H
  H311     1.0000 0.39234  0.78584  0.44916  Biso   1.000  H
  H312     1.0000 0.60766  0.28584  0.05084  Biso   1.000  H
  H313     1.0000 0.50399  0.19656  0.45640  Biso   1.000  H
  H314     1.0000 0.49601  0.69656  0.04360  Biso   1.000  H
  H315     1.0000 0.49601  0.80344  0.54360  Biso   1.000  H
  H316     1.0000 0.50399  0.30344  0.95640  Biso   1.000  H
  H317     1.0000 0.50119  0.14590  0.41734  Biso   1.000  H
  H318     1.0000 0.49881  0.64590  0.08266  Biso   1.000  H
  H319     1.0000 0.49881  0.85410  0.58266  Biso   1.000  H
  H320     1.0000 0.50119  0.35410  0.91734  Biso   1.000  H
