data_image0
_cell_length_a       18.484
_cell_length_b       18.484
_cell_length_c       45.277
_cell_angle_alpha    90
_cell_angle_beta     90
_cell_angle_gamma    120

_symmetry_space_group_name_H-M    "P 1"
_symmetry_int_tables_number       1

loop_
  _symmetry_equiv_pos_as_xyz
  'x, y, z'

loop_
  _atom_site_label
  _atom_site_occupancy
  _atom_site_fract_x
  _atom_site_fract_y
  _atom_site_fract_z
  _atom_site_thermal_displace_type
  _atom_site_B_iso_or_equiv
  _atom_site_type_symbol
  Cu1      1.0000 0.52445  0.04890  0.97635  Biso   1.000  Cu
  Cu2      1.0000 0.95110  0.47555  0.97635  Biso   1.000  Cu
  Cu3      1.0000 0.52445  0.47555  0.97635  Biso   1.000  Cu
  Cu4      1.0000 0.04890  0.52445  0.02365  Biso   1.000  Cu
  Cu5      1.0000 0.47555  0.52445  0.02365  Biso   1.000  Cu
  Cu6      1.0000 0.47555  0.95110  0.02365  Biso   1.000  Cu
  Cu7      1.0000 0.19112  0.38223  0.30969  Biso   1.000  Cu
  Cu8      1.0000 0.61777  0.80888  0.30969  Biso   1.000  Cu
  Cu9      1.0000 0.19112  0.80888  0.30969  Biso   1.000  Cu
  Cu10     1.0000 0.71557  0.85778  0.35698  Biso   1.000  Cu
  Cu11     1.0000 0.14222  0.85778  0.35698  Biso   1.000  Cu
  Cu12     1.0000 0.14222  0.28443  0.35698  Biso   1.000  Cu
  Cu13     1.0000 0.85778  0.71557  0.64302  Biso   1.000  Cu
  Cu14     1.0000 0.28443  0.14222  0.64302  Biso   1.000  Cu
  Cu15     1.0000 0.85778  0.14222  0.64302  Biso   1.000  Cu
  Cu16     1.0000 0.38223  0.19112  0.69031  Biso   1.000  Cu
  Cu17     1.0000 0.80888  0.19112  0.69031  Biso   1.000  Cu
  Cu18     1.0000 0.80888  0.61777  0.69031  Biso   1.000  Cu
  N1       1.0000 0.39110  0.19560  0.11410  Biso   1.000  N
  N2       1.0000 0.80440  0.19550  0.11410  Biso   1.000  N
  N3       1.0000 0.80450  0.60890  0.11410  Biso   1.000  N
  N4       1.0000 0.19560  0.39110  0.88590  Biso   1.000  N
  N5       1.0000 0.60890  0.80450  0.88590  Biso   1.000  N
  N6       1.0000 0.19550  0.80440  0.88590  Biso   1.000  N
  N7       1.0000 0.05777  0.52893  0.44743  Biso   1.000  N
  N8       1.0000 0.47107  0.52883  0.44743  Biso   1.000  N
  N9       1.0000 0.47117  0.94223  0.44743  Biso   1.000  N
  N10      1.0000 0.86227  0.72443  0.21923  Biso   1.000  N
  N11      1.0000 0.27557  0.13783  0.21923  Biso   1.000  N
  N12      1.0000 0.86217  0.13773  0.21923  Biso   1.000  N
  N13      1.0000 0.72443  0.86227  0.78077  Biso   1.000  N
  N14      1.0000 0.13773  0.86217  0.78077  Biso   1.000  N
  N15      1.0000 0.13783  0.27557  0.78077  Biso   1.000  N
  N16      1.0000 0.52893  0.05777  0.55257  Biso   1.000  N
  N17      1.0000 0.94223  0.47117  0.55257  Biso   1.000  N
  N18      1.0000 0.52883  0.47107  0.55257  Biso   1.000  N
  H1       1.0000 0.41730  0.17530  0.12360  Biso   1.000  H
  H2       1.0000 0.82470  0.24200  0.12360  Biso   1.000  H
  H3       1.0000 0.75800  0.58270  0.12360  Biso   1.000  H
  H4       1.0000 0.17530  0.41730  0.87640  Biso   1.000  H
  H5       1.0000 0.58270  0.75800  0.87640  Biso   1.000  H
  H6       1.0000 0.24200  0.82470  0.87640  Biso   1.000  H
  H7       1.0000 0.08397  0.50863  0.45693  Biso   1.000  H
  H8       1.0000 0.49137  0.57533  0.45693  Biso   1.000  H
  H9       1.0000 0.42467  0.91603  0.45693  Biso   1.000  H
  H10      1.0000 0.84197  0.75063  0.20973  Biso   1.000  H
  H11      1.0000 0.24937  0.09133  0.20973  Biso   1.000  H
  H12      1.0000 0.90867  0.15803  0.20973  Biso   1.000  H
  H13      1.0000 0.75063  0.84197  0.79027  Biso   1.000  H
  H14      1.0000 0.15803  0.90867  0.79027  Biso   1.000  H
  H15      1.0000 0.09133  0.24937  0.79027  Biso   1.000  H
  H16      1.0000 0.50863  0.08397  0.54307  Biso   1.000  H
  H17      1.0000 0.91603  0.42467  0.54307  Biso   1.000  H
  H18      1.0000 0.57533  0.49137  0.54307  Biso   1.000  H
  H19      1.0000 0.58270  0.82470  0.87640  Biso   1.000  H
  H20      1.0000 0.17530  0.75800  0.87640  Biso   1.000  H
  H21      1.0000 0.24200  0.41730  0.87640  Biso   1.000  H
  H22      1.0000 0.82470  0.58270  0.12360  Biso   1.000  H
  H23      1.0000 0.41730  0.24200  0.12360  Biso   1.000  H
  H24      1.0000 0.75800  0.17530  0.12360  Biso   1.000  H
  H25      1.0000 0.24937  0.15803  0.20973  Biso   1.000  H
  H26      1.0000 0.84197  0.09133  0.20973  Biso   1.000  H
  H27      1.0000 0.90867  0.75063  0.20973  Biso   1.000  H
  H28      1.0000 0.49137  0.91603  0.45693  Biso   1.000  H
  H29      1.0000 0.08397  0.57533  0.45693  Biso   1.000  H
  H30      1.0000 0.42467  0.50863  0.45693  Biso   1.000  H
  H31      1.0000 0.91603  0.49137  0.54307  Biso   1.000  H
  H32      1.0000 0.50863  0.42467  0.54307  Biso   1.000  H
  H33      1.0000 0.57533  0.08397  0.54307  Biso   1.000  H
  H34      1.0000 0.15803  0.24937  0.79027  Biso   1.000  H
  H35      1.0000 0.75063  0.90867  0.79027  Biso   1.000  H
  H36      1.0000 0.09133  0.84197  0.79027  Biso   1.000  H
  O1       1.0000 0.48070  0.11120  0.99773  Biso   1.000  O
  O2       1.0000 0.88880  0.36950  0.99773  Biso   1.000  O
  O3       1.0000 0.63050  0.51930  0.99773  Biso   1.000  O
  O4       1.0000 0.11120  0.48070  0.00227  Biso   1.000  O
  O5       1.0000 0.51930  0.63050  0.00227  Biso   1.000  O
  O6       1.0000 0.36950  0.88880  0.00227  Biso   1.000  O
  O7       1.0000 0.14737  0.44453  0.33106  Biso   1.000  O
  O8       1.0000 0.55547  0.70283  0.33106  Biso   1.000  O
  O9       1.0000 0.29717  0.85263  0.33106  Biso   1.000  O
  O10      1.0000 0.77787  0.81403  0.33560  Biso   1.000  O
  O11      1.0000 0.18597  0.96383  0.33560  Biso   1.000  O
  O12      1.0000 0.03617  0.22213  0.33560  Biso   1.000  O
  O13      1.0000 0.81403  0.77787  0.66440  Biso   1.000  O
  O14      1.0000 0.22213  0.03617  0.66440  Biso   1.000  O
  O15      1.0000 0.96383  0.18597  0.66440  Biso   1.000  O
  O16      1.0000 0.44453  0.14737  0.66894  Biso   1.000  O
  O17      1.0000 0.85263  0.29717  0.66894  Biso   1.000  O
  O18      1.0000 0.70283  0.55547  0.66894  Biso   1.000  O
  O19      1.0000 0.51930  0.88880  0.00227  Biso   1.000  O
  O20      1.0000 0.11120  0.63050  0.00227  Biso   1.000  O
  O21      1.0000 0.36950  0.48070  0.00227  Biso   1.000  O
  O22      1.0000 0.88880  0.51930  0.99773  Biso   1.000  O
  O23      1.0000 0.48070  0.36950  0.99773  Biso   1.000  O
  O24      1.0000 0.63050  0.11120  0.99773  Biso   1.000  O
  O25      1.0000 0.18597  0.22213  0.33560  Biso   1.000  O
  O26      1.0000 0.77787  0.96383  0.33560  Biso   1.000  O
  O27      1.0000 0.03617  0.81403  0.33560  Biso   1.000  O
  O28      1.0000 0.55547  0.85263  0.33106  Biso   1.000  O
  O29      1.0000 0.14737  0.70283  0.33106  Biso   1.000  O
  O30      1.0000 0.29717  0.44453  0.33106  Biso   1.000  O
  O31      1.0000 0.85263  0.55547  0.66894  Biso   1.000  O
  O32      1.0000 0.44453  0.29717  0.66894  Biso   1.000  O
  O33      1.0000 0.70283  0.14737  0.66894  Biso   1.000  O
  O34      1.0000 0.22213  0.18597  0.66440  Biso   1.000  O
  O35      1.0000 0.81403  0.03617  0.66440  Biso   1.000  O
  O36      1.0000 0.96383  0.77787  0.66440  Biso   1.000  O
  C1       1.0000 0.45380  0.09320  0.02407  Biso   1.000  C
  C2       1.0000 0.90680  0.36060  0.02407  Biso   1.000  C
  C3       1.0000 0.63940  0.54620  0.02407  Biso   1.000  C
  C4       1.0000 0.09320  0.45380  0.97593  Biso   1.000  C
  C5       1.0000 0.54620  0.63940  0.97593  Biso   1.000  C
  C6       1.0000 0.36060  0.90680  0.97593  Biso   1.000  C
  C7       1.0000 0.12047  0.42653  0.35740  Biso   1.000  C
  C8       1.0000 0.57347  0.69393  0.35740  Biso   1.000  C
  C9       1.0000 0.30607  0.87953  0.35740  Biso   1.000  C
  C10      1.0000 0.75987  0.78713  0.30926  Biso   1.000  C
  C11      1.0000 0.21287  0.97273  0.30926  Biso   1.000  C
  C12      1.0000 0.02727  0.24013  0.30926  Biso   1.000  C
  C13      1.0000 0.78713  0.75987  0.69074  Biso   1.000  C
  C14      1.0000 0.24013  0.02727  0.69074  Biso   1.000  C
  C15      1.0000 0.97273  0.21287  0.69074  Biso   1.000  C
  C16      1.0000 0.42653  0.12047  0.64260  Biso   1.000  C
  C17      1.0000 0.87953  0.30607  0.64260  Biso   1.000  C
  C18      1.0000 0.69393  0.57347  0.64260  Biso   1.000  C
  C19      1.0000 0.54620  0.90680  0.97593  Biso   1.000  C
  C20      1.0000 0.09320  0.63940  0.97593  Biso   1.000  C
  C21      1.0000 0.36060  0.45380  0.97593  Biso   1.000  C
  C22      1.0000 0.90680  0.54620  0.02407  Biso   1.000  C
  C23      1.0000 0.45380  0.36060  0.02407  Biso   1.000  C
  C24      1.0000 0.63940  0.09320  0.02407  Biso   1.000  C
  C25      1.0000 0.21287  0.24013  0.30926  Biso   1.000  C
  C26      1.0000 0.75987  0.97273  0.30926  Biso   1.000  C
  C27      1.0000 0.02727  0.78713  0.30926  Biso   1.000  C
  C28      1.0000 0.57347  0.87953  0.35740  Biso   1.000  C
  C29      1.0000 0.12047  0.69393  0.35740  Biso   1.000  C
  C30      1.0000 0.30607  0.42653  0.35740  Biso   1.000  C
  C31      1.0000 0.87953  0.57347  0.64260  Biso   1.000  C
  C32      1.0000 0.42653  0.30607  0.64260  Biso   1.000  C
  C33      1.0000 0.69393  0.12047  0.64260  Biso   1.000  C
  C34      1.0000 0.24013  0.21287  0.69074  Biso   1.000  C
  C35      1.0000 0.78713  0.02727  0.69074  Biso   1.000  C
  C36      1.0000 0.97273  0.75987  0.69074  Biso   1.000  C
  O37      1.0000 0.44090  0.02900  0.03805  Biso   1.000  O
  O38      1.0000 0.97100  0.41190  0.03805  Biso   1.000  O
  O39      1.0000 0.58810  0.55910  0.03805  Biso   1.000  O
  O40      1.0000 0.02900  0.44090  0.96195  Biso   1.000  O
  O41      1.0000 0.55910  0.58810  0.96195  Biso   1.000  O
  O42      1.0000 0.41190  0.97100  0.96195  Biso   1.000  O
  O43      1.0000 0.10757  0.36233  0.37138  Biso   1.000  O
  O44      1.0000 0.63767  0.74523  0.37138  Biso   1.000  O
  O45      1.0000 0.25477  0.89243  0.37138  Biso   1.000  O
  O46      1.0000 0.69567  0.77423  0.29528  Biso   1.000  O
  O47      1.0000 0.22577  0.92143  0.29528  Biso   1.000  O
  O48      1.0000 0.07857  0.30433  0.29528  Biso   1.000  O
  O49      1.0000 0.77423  0.69567  0.70472  Biso   1.000  O
  O50      1.0000 0.30433  0.07857  0.70472  Biso   1.000  O
  O51      1.0000 0.92143  0.22577  0.70472  Biso   1.000  O
  O52      1.0000 0.36233  0.10757  0.62862  Biso   1.000  O
  O53      1.0000 0.89243  0.25477  0.62862  Biso   1.000  O
  O54      1.0000 0.74523  0.63767  0.62862  Biso   1.000  O
  O55      1.0000 0.55910  0.97100  0.96195  Biso   1.000  O
  O56      1.0000 0.02900  0.58810  0.96195  Biso   1.000  O
  O57      1.0000 0.41190  0.44090  0.96195  Biso   1.000  O
  O58      1.0000 0.97100  0.55910  0.03805  Biso   1.000  O
  O59      1.0000 0.44090  0.41190  0.03805  Biso   1.000  O
  O60      1.0000 0.58810  0.02900  0.03805  Biso   1.000  O
  O61      1.0000 0.22577  0.30433  0.29528  Biso   1.000  O
  O62      1.0000 0.69567  0.92143  0.29528  Biso   1.000  O
  O63      1.0000 0.07857  0.77423  0.29528  Biso   1.000  O
  O64      1.0000 0.63767  0.89243  0.37138  Biso   1.000  O
  O65      1.0000 0.10757  0.74523  0.37138  Biso   1.000  O
  O66      1.0000 0.25477  0.36233  0.37138  Biso   1.000  O
  O67      1.0000 0.89243  0.63767  0.62862  Biso   1.000  O
  O68      1.0000 0.36233  0.25477  0.62862  Biso   1.000  O
  O69      1.0000 0.74523  0.10757  0.62862  Biso   1.000  O
  O70      1.0000 0.30433  0.22577  0.70472  Biso   1.000  O
  O71      1.0000 0.77423  0.07857  0.70472  Biso   1.000  O
  O72      1.0000 0.92143  0.69567  0.70472  Biso   1.000  O
  O73      1.0000 0.55810  0.11620  0.93605  Biso   1.000  O
  O74      1.0000 0.88380  0.44190  0.93605  Biso   1.000  O
  O75      1.0000 0.55810  0.44190  0.93605  Biso   1.000  O
  O76      1.0000 0.11620  0.55810  0.06395  Biso   1.000  O
  O77      1.0000 0.44190  0.55810  0.06395  Biso   1.000  O
  O78      1.0000 0.44190  0.88380  0.06395  Biso   1.000  O
  O79      1.0000 0.22477  0.44953  0.26938  Biso   1.000  O
  O80      1.0000 0.55047  0.77523  0.26938  Biso   1.000  O
  O81      1.0000 0.22477  0.77523  0.26938  Biso   1.000  O
  O82      1.0000 0.78287  0.89143  0.39728  Biso   1.000  O
  O83      1.0000 0.10857  0.89143  0.39728  Biso   1.000  O
  O84      1.0000 0.10857  0.21713  0.39728  Biso   1.000  O
  O85      1.0000 0.89143  0.78287  0.60272  Biso   1.000  O
  O86      1.0000 0.21713  0.10857  0.60272  Biso   1.000  O
  O87      1.0000 0.89143  0.10857  0.60272  Biso   1.000  O
  O88      1.0000 0.44953  0.22477  0.73062  Biso   1.000  O
  O89      1.0000 0.77523  0.22477  0.73062  Biso   1.000  O
  O90      1.0000 0.77523  0.55047  0.73062  Biso   1.000  O
  C37      1.0000 0.43170  0.14950  0.03842  Biso   1.000  C
  C38      1.0000 0.85050  0.28220  0.03842  Biso   1.000  C
  C39      1.0000 0.71780  0.56830  0.03842  Biso   1.000  C
  C40      1.0000 0.14950  0.43170  0.96158  Biso   1.000  C
  C41      1.0000 0.56830  0.71780  0.96158  Biso   1.000  C
  C42      1.0000 0.28220  0.85050  0.96158  Biso   1.000  C
  C43      1.0000 0.09837  0.48283  0.37175  Biso   1.000  C
  C44      1.0000 0.51717  0.61553  0.37175  Biso   1.000  C
  C45      1.0000 0.38447  0.90163  0.37175  Biso   1.000  C
  C46      1.0000 0.81617  0.76503  0.29491  Biso   1.000  C
  C47      1.0000 0.23497  0.05113  0.29491  Biso   1.000  C
  C48      1.0000 0.94887  0.18383  0.29491  Biso   1.000  C
  C49      1.0000 0.76503  0.81617  0.70509  Biso   1.000  C
  C50      1.0000 0.18383  0.94887  0.70509  Biso   1.000  C
  C51      1.0000 0.05113  0.23497  0.70509  Biso   1.000  C
  C52      1.0000 0.48283  0.09837  0.62825  Biso   1.000  C
  C53      1.0000 0.90163  0.38447  0.62825  Biso   1.000  C
  C54      1.0000 0.61553  0.51717  0.62825  Biso   1.000  C
  C55      1.0000 0.56830  0.85050  0.96158  Biso   1.000  C
  C56      1.0000 0.14950  0.71780  0.96158  Biso   1.000  C
  C57      1.0000 0.28220  0.43170  0.96158  Biso   1.000  C
  C58      1.0000 0.85050  0.56830  0.03842  Biso   1.000  C
  C59      1.0000 0.43170  0.28220  0.03842  Biso   1.000  C
  C60      1.0000 0.71780  0.14950  0.03842  Biso   1.000  C
  C61      1.0000 0.23497  0.18383  0.29491  Biso   1.000  C
  C62      1.0000 0.81617  0.05113  0.29491  Biso   1.000  C
  C63      1.0000 0.94887  0.76503  0.29491  Biso   1.000  C
  C64      1.0000 0.51717  0.90163  0.37175  Biso   1.000  C
  C65      1.0000 0.09837  0.61553  0.37175  Biso   1.000  C
  C66      1.0000 0.38447  0.48283  0.37175  Biso   1.000  C
  C67      1.0000 0.90163  0.51717  0.62825  Biso   1.000  C
  C68      1.0000 0.48283  0.38447  0.62825  Biso   1.000  C
  C69      1.0000 0.61553  0.09837  0.62825  Biso   1.000  C
  C70      1.0000 0.18383  0.23497  0.70509  Biso   1.000  C
  C71      1.0000 0.76503  0.94887  0.70509  Biso   1.000  C
  C72      1.0000 0.05113  0.81617  0.70509  Biso   1.000  C
  C73      1.0000 0.44530  0.22260  0.02496  Biso   1.000  C
  C74      1.0000 0.77740  0.22270  0.02496  Biso   1.000  C
  C75      1.0000 0.77730  0.55470  0.02496  Biso   1.000  C
  C76      1.0000 0.22260  0.44530  0.97504  Biso   1.000  C
  C77      1.0000 0.55470  0.77730  0.97504  Biso   1.000  C
  C78      1.0000 0.22270  0.77740  0.97504  Biso   1.000  C
  C79      1.0000 0.11197  0.55593  0.35829  Biso   1.000  C
  C80      1.0000 0.44407  0.55603  0.35829  Biso   1.000  C
  C81      1.0000 0.44397  0.88803  0.35829  Biso   1.000  C
  C82      1.0000 0.88927  0.77863  0.30837  Biso   1.000  C
  C83      1.0000 0.22137  0.11063  0.30837  Biso   1.000  C
  C84      1.0000 0.88937  0.11073  0.30837  Biso   1.000  C
  C85      1.0000 0.77863  0.88927  0.69163  Biso   1.000  C
  C86      1.0000 0.11073  0.88937  0.69163  Biso   1.000  C
  C87      1.0000 0.11063  0.22137  0.69163  Biso   1.000  C
  C88      1.0000 0.55593  0.11197  0.64171  Biso   1.000  C
  C89      1.0000 0.88803  0.44397  0.64171  Biso   1.000  C
  C90      1.0000 0.55603  0.44407  0.64171  Biso   1.000  C
  H37      1.0000 0.46480  0.23240  0.00560  Biso   1.000  H
  H38      1.0000 0.76760  0.23240  0.00560  Biso   1.000  H
  H39      1.0000 0.76760  0.53520  0.00560  Biso   1.000  H
  H40      1.0000 0.23240  0.46480  0.99440  Biso   1.000  H
  H41      1.0000 0.53520  0.76760  0.99440  Biso   1.000  H
  H42      1.0000 0.23240  0.76760  0.99440  Biso   1.000  H
  H43      1.0000 0.13147  0.56573  0.33893  Biso   1.000  H
  H44      1.0000 0.43427  0.56573  0.33893  Biso   1.000  H
  H45      1.0000 0.43427  0.86853  0.33893  Biso   1.000  H
  H46      1.0000 0.89907  0.79813  0.32773  Biso   1.000  H
  H47      1.0000 0.20187  0.10093  0.32773  Biso   1.000  H
  H48      1.0000 0.89907  0.10093  0.32773  Biso   1.000  H
  H49      1.0000 0.79813  0.89907  0.67227  Biso   1.000  H
  H50      1.0000 0.10093  0.89907  0.67227  Biso   1.000  H
  H51      1.0000 0.10093  0.20187  0.67227  Biso   1.000  H
  H52      1.0000 0.56573  0.13147  0.66107  Biso   1.000  H
  H53      1.0000 0.86853  0.43427  0.66107  Biso   1.000  H
  H54      1.0000 0.56573  0.43427  0.66107  Biso   1.000  H
  C91      1.0000 0.40450  0.13730  0.06792  Biso   1.000  C
  C92      1.0000 0.86270  0.26720  0.06792  Biso   1.000  C
  C93      1.0000 0.73280  0.59550  0.06792  Biso   1.000  C
  C94      1.0000 0.13730  0.40450  0.93208  Biso   1.000  C
  C95      1.0000 0.59550  0.73280  0.93208  Biso   1.000  C
  C96      1.0000 0.26720  0.86270  0.93208  Biso   1.000  C
  C97      1.0000 0.07117  0.47063  0.40125  Biso   1.000  C
  C98      1.0000 0.52937  0.60053  0.40125  Biso   1.000  C
  C99      1.0000 0.39947  0.92883  0.40125  Biso   1.000  C
  C100     1.0000 0.80397  0.73783  0.26541  Biso   1.000  C
  C101     1.0000 0.26217  0.06613  0.26541  Biso   1.000  C
  C102     1.0000 0.93387  0.19603  0.26541  Biso   1.000  C
  C103     1.0000 0.73783  0.80397  0.73459  Biso   1.000  C
  C104     1.0000 0.19603  0.93387  0.73459  Biso   1.000  C
  C105     1.0000 0.06613  0.26217  0.73459  Biso   1.000  C
  C106     1.0000 0.47063  0.07117  0.59875  Biso   1.000  C
  C107     1.0000 0.92883  0.39947  0.59875  Biso   1.000  C
  C108     1.0000 0.60053  0.52937  0.59875  Biso   1.000  C
  C109     1.0000 0.59550  0.86270  0.93208  Biso   1.000  C
  C110     1.0000 0.13730  0.73280  0.93208  Biso   1.000  C
  C111     1.0000 0.26720  0.40450  0.93208  Biso   1.000  C
  C112     1.0000 0.86270  0.59550  0.06792  Biso   1.000  C
  C113     1.0000 0.40450  0.26720  0.06792  Biso   1.000  C
  C114     1.0000 0.73280  0.13730  0.06792  Biso   1.000  C
  C115     1.0000 0.26217  0.19603  0.26541  Biso   1.000  C
  C116     1.0000 0.80397  0.06613  0.26541  Biso   1.000  C
  C117     1.0000 0.93387  0.73783  0.26541  Biso   1.000  C
  C118     1.0000 0.52937  0.92883  0.40125  Biso   1.000  C
  C119     1.0000 0.07117  0.60053  0.40125  Biso   1.000  C
  C120     1.0000 0.39947  0.47063  0.40125  Biso   1.000  C
  C121     1.0000 0.92883  0.52937  0.59875  Biso   1.000  C
  C122     1.0000 0.47063  0.39947  0.59875  Biso   1.000  C
  C123     1.0000 0.60053  0.07117  0.59875  Biso   1.000  C
  C124     1.0000 0.19603  0.26217  0.73459  Biso   1.000  C
  C125     1.0000 0.73783  0.93387  0.73459  Biso   1.000  C
  C126     1.0000 0.06613  0.80397  0.73459  Biso   1.000  C
  H55      1.0000 0.39820  0.10320  0.08000  Biso   1.000  H
  H56      1.0000 0.89680  0.29500  0.08000  Biso   1.000  H
  H57      1.0000 0.70500  0.60180  0.08000  Biso   1.000  H
  H58      1.0000 0.10320  0.39820  0.92000  Biso   1.000  H
  H59      1.0000 0.60180  0.70500  0.92000  Biso   1.000  H
  H60      1.0000 0.29500  0.89680  0.92000  Biso   1.000  H
  H61      1.0000 0.06487  0.43653  0.41333  Biso   1.000  H
  H62      1.0000 0.56347  0.62833  0.41333  Biso   1.000  H
  H63      1.0000 0.37167  0.93513  0.41333  Biso   1.000  H
  H64      1.0000 0.76987  0.73153  0.25333  Biso   1.000  H
  H65      1.0000 0.26847  0.03833  0.25333  Biso   1.000  H
  H66      1.0000 0.96167  0.23013  0.25333  Biso   1.000  H
  H67      1.0000 0.73153  0.76987  0.74667  Biso   1.000  H
  H68      1.0000 0.23013  0.96167  0.74667  Biso   1.000  H
  H69      1.0000 0.03833  0.26847  0.74667  Biso   1.000  H
  H70      1.0000 0.43653  0.06487  0.58667  Biso   1.000  H
  H71      1.0000 0.93513  0.37167  0.58667  Biso   1.000  H
  H72      1.0000 0.62833  0.56347  0.58667  Biso   1.000  H
  H73      1.0000 0.60180  0.89680  0.92000  Biso   1.000  H
  H74      1.0000 0.10320  0.70500  0.92000  Biso   1.000  H
  H75      1.0000 0.29500  0.39820  0.92000  Biso   1.000  H
  H76      1.0000 0.89680  0.60180  0.08000  Biso   1.000  H
  H77      1.0000 0.39820  0.29500  0.08000  Biso   1.000  H
  H78      1.0000 0.70500  0.10320  0.08000  Biso   1.000  H
  H79      1.0000 0.26847  0.23013  0.25333  Biso   1.000  H
  H80      1.0000 0.76987  0.03833  0.25333  Biso   1.000  H
  H81      1.0000 0.96167  0.73153  0.25333  Biso   1.000  H
  H82      1.0000 0.56347  0.93513  0.41333  Biso   1.000  H
  H83      1.0000 0.06487  0.62833  0.41333  Biso   1.000  H
  H84      1.0000 0.37167  0.43653  0.41333  Biso   1.000  H
  H85      1.0000 0.93513  0.56347  0.58667  Biso   1.000  H
  H86      1.0000 0.43653  0.37167  0.58667  Biso   1.000  H
  H87      1.0000 0.62833  0.06487  0.58667  Biso   1.000  H
  H88      1.0000 0.23013  0.26847  0.74667  Biso   1.000  H
  H89      1.0000 0.73153  0.96167  0.74667  Biso   1.000  H
  H90      1.0000 0.03833  0.76987  0.74667  Biso   1.000  H
  C127     1.0000 0.39140  0.19570  0.08243  Biso   1.000  C
  C128     1.0000 0.80430  0.19570  0.08243  Biso   1.000  C
  C129     1.0000 0.80430  0.60860  0.08243  Biso   1.000  C
  C130     1.0000 0.19570  0.39140  0.91757  Biso   1.000  C
  C131     1.0000 0.60860  0.80430  0.91757  Biso   1.000  C
  C132     1.0000 0.19570  0.80430  0.91757  Biso   1.000  C
  C133     1.0000 0.05807  0.52903  0.41576  Biso   1.000  C
  C134     1.0000 0.47097  0.52903  0.41576  Biso   1.000  C
  C135     1.0000 0.47097  0.94193  0.41576  Biso   1.000  C
  C136     1.0000 0.86237  0.72473  0.25090  Biso   1.000  C
  C137     1.0000 0.27527  0.13763  0.25090  Biso   1.000  C
  C138     1.0000 0.86237  0.13763  0.25090  Biso   1.000  C
  C139     1.0000 0.72473  0.86237  0.74910  Biso   1.000  C
  C140     1.0000 0.13763  0.86237  0.74910  Biso   1.000  C
  C141     1.0000 0.13763  0.27527  0.74910  Biso   1.000  C
  C142     1.0000 0.52903  0.05807  0.58424  Biso   1.000  C
  C143     1.0000 0.94193  0.47097  0.58424  Biso   1.000  C
  C144     1.0000 0.52903  0.47097  0.58424  Biso   1.000  C
  C145     1.0000 0.37580  0.24010  0.13220  Biso   1.000  C
  C146     1.0000 0.75990  0.13570  0.13220  Biso   1.000  C
  C147     1.0000 0.86430  0.62420  0.13220  Biso   1.000  C
  C148     1.0000 0.24010  0.37580  0.86780  Biso   1.000  C
  C149     1.0000 0.62420  0.86430  0.86780  Biso   1.000  C
  C150     1.0000 0.13570  0.75990  0.86780  Biso   1.000  C
  C151     1.0000 0.04247  0.57343  0.46553  Biso   1.000  C
  C152     1.0000 0.42657  0.46903  0.46553  Biso   1.000  C
  C153     1.0000 0.53097  0.95753  0.46553  Biso   1.000  C
  C154     1.0000 0.90677  0.70913  0.20113  Biso   1.000  C
  C155     1.0000 0.29087  0.19763  0.20113  Biso   1.000  C
  C156     1.0000 0.80237  0.09323  0.20113  Biso   1.000  C
  C157     1.0000 0.70913  0.90677  0.79887  Biso   1.000  C
  C158     1.0000 0.09323  0.80237  0.79887  Biso   1.000  C
  C159     1.0000 0.19763  0.29087  0.79887  Biso   1.000  C
  C160     1.0000 0.57343  0.04247  0.53447  Biso   1.000  C
  C161     1.0000 0.95753  0.53097  0.53447  Biso   1.000  C
  C162     1.0000 0.46903  0.42657  0.53447  Biso   1.000  C
  C163     1.0000 0.62420  0.75990  0.86780  Biso   1.000  C
  C164     1.0000 0.24010  0.86430  0.86780  Biso   1.000  C
  C165     1.0000 0.13570  0.37580  0.86780  Biso   1.000  C
  C166     1.0000 0.75990  0.62420  0.13220  Biso   1.000  C
  C167     1.0000 0.37580  0.13570  0.13220  Biso   1.000  C
  C168     1.0000 0.86430  0.24010  0.13220  Biso   1.000  C
  C169     1.0000 0.29087  0.09323  0.20113  Biso   1.000  C
  C170     1.0000 0.90677  0.19763  0.20113  Biso   1.000  C
  C171     1.0000 0.80237  0.70913  0.20113  Biso   1.000  C
  C172     1.0000 0.42657  0.95753  0.46553  Biso   1.000  C
  C173     1.0000 0.04247  0.46903  0.46553  Biso   1.000  C
  C174     1.0000 0.53097  0.57343  0.46553  Biso   1.000  C
  C175     1.0000 0.95753  0.42657  0.53447  Biso   1.000  C
  C176     1.0000 0.57343  0.53097  0.53447  Biso   1.000  C
  C177     1.0000 0.46903  0.04247  0.53447  Biso   1.000  C
  C178     1.0000 0.09323  0.29087  0.79887  Biso   1.000  C
  C179     1.0000 0.70913  0.80237  0.79887  Biso   1.000  C
  C180     1.0000 0.19763  0.90677  0.79887  Biso   1.000  C
  O91      1.0000 0.37020  0.30260  0.12600  Biso   1.000  O
  O92      1.0000 0.69740  0.06760  0.12600  Biso   1.000  O
  O93      1.0000 0.93240  0.62980  0.12600  Biso   1.000  O
  O94      1.0000 0.30260  0.37020  0.87400  Biso   1.000  O
  O95      1.0000 0.62980  0.93240  0.87400  Biso   1.000  O
  O96      1.0000 0.06760  0.69740  0.87400  Biso   1.000  O
  O97      1.0000 0.03687  0.63593  0.45933  Biso   1.000  O
  O98      1.0000 0.36407  0.40093  0.45933  Biso   1.000  O
  O99      1.0000 0.59907  0.96313  0.45933  Biso   1.000  O
  O100     1.0000 0.96927  0.70353  0.20733  Biso   1.000  O
  O101     1.0000 0.29647  0.26573  0.20733  Biso   1.000  O
  O102     1.0000 0.73427  0.03073  0.20733  Biso   1.000  O
  O103     1.0000 0.70353  0.96927  0.79267  Biso   1.000  O
  O104     1.0000 0.03073  0.73427  0.79267  Biso   1.000  O
  O105     1.0000 0.26573  0.29647  0.79267  Biso   1.000  O
  O106     1.0000 0.63593  0.03687  0.54067  Biso   1.000  O
  O107     1.0000 0.96313  0.59907  0.54067  Biso   1.000  O
  O108     1.0000 0.40093  0.36407  0.54067  Biso   1.000  O
  O109     1.0000 0.62980  0.69740  0.87400  Biso   1.000  O
  O110     1.0000 0.30260  0.93240  0.87400  Biso   1.000  O
  O111     1.0000 0.06760  0.37020  0.87400  Biso   1.000  O
  O112     1.0000 0.69740  0.62980  0.12600  Biso   1.000  O
  O113     1.0000 0.37020  0.06760  0.12600  Biso   1.000  O
  O114     1.0000 0.93240  0.30260  0.12600  Biso   1.000  O
  O115     1.0000 0.29647  0.03073  0.20733  Biso   1.000  O
  O116     1.0000 0.96927  0.26573  0.20733  Biso   1.000  O
  O117     1.0000 0.73427  0.70353  0.20733  Biso   1.000  O
  O118     1.0000 0.36407  0.96313  0.45933  Biso   1.000  O
  O119     1.0000 0.03687  0.40093  0.45933  Biso   1.000  O
  O120     1.0000 0.59907  0.63593  0.45933  Biso   1.000  O
  O121     1.0000 0.96313  0.36407  0.54067  Biso   1.000  O
  O122     1.0000 0.63593  0.59907  0.54067  Biso   1.000  O
  O123     1.0000 0.40093  0.03687  0.54067  Biso   1.000  O
  O124     1.0000 0.03073  0.29647  0.79267  Biso   1.000  O
  O125     1.0000 0.70353  0.73427  0.79267  Biso   1.000  O
  O126     1.0000 0.26573  0.96927  0.79267  Biso   1.000  O
  C181     1.0000 0.35400  0.21100  0.16340  Biso   1.000  C
  C182     1.0000 0.78900  0.14300  0.16340  Biso   1.000  C
  C183     1.0000 0.85700  0.64600  0.16340  Biso   1.000  C
  C184     1.0000 0.21100  0.35400  0.83660  Biso   1.000  C
  C185     1.0000 0.64600  0.85700  0.83660  Biso   1.000  C
  C186     1.0000 0.14300  0.78900  0.83660  Biso   1.000  C
  C187     1.0000 0.02067  0.54433  0.49673  Biso   1.000  C
  C188     1.0000 0.45567  0.47633  0.49673  Biso   1.000  C
  C189     1.0000 0.52367  0.97933  0.49673  Biso   1.000  C
  C190     1.0000 0.87767  0.68733  0.16993  Biso   1.000  C
  C191     1.0000 0.31267  0.19033  0.16993  Biso   1.000  C
  C192     1.0000 0.80967  0.12233  0.16993  Biso   1.000  C
  C193     1.0000 0.68733  0.87767  0.83007  Biso   1.000  C
  C194     1.0000 0.12233  0.80967  0.83007  Biso   1.000  C
  C195     1.0000 0.19033  0.31267  0.83007  Biso   1.000  C
  C196     1.0000 0.54433  0.02067  0.50327  Biso   1.000  C
  C197     1.0000 0.97933  0.52367  0.50327  Biso   1.000  C
  C198     1.0000 0.47633  0.45567  0.50327  Biso   1.000  C
  C199     1.0000 0.64600  0.78900  0.83660  Biso   1.000  C
  C200     1.0000 0.21100  0.85700  0.83660  Biso   1.000  C
  C201     1.0000 0.14300  0.35400  0.83660  Biso   1.000  C
  C202     1.0000 0.78900  0.64600  0.16340  Biso   1.000  C
  C203     1.0000 0.35400  0.14300  0.16340  Biso   1.000  C
  C204     1.0000 0.85700  0.21100  0.16340  Biso   1.000  C
  C205     1.0000 0.31267  0.12233  0.16993  Biso   1.000  C
  C206     1.0000 0.87767  0.19033  0.16993  Biso   1.000  C
  C207     1.0000 0.80967  0.68733  0.16993  Biso   1.000  C
  C208     1.0000 0.45567  0.97933  0.49673  Biso   1.000  C
  C209     1.0000 0.02067  0.47633  0.49673  Biso   1.000  C
  C210     1.0000 0.52367  0.54433  0.49673  Biso   1.000  C
  C211     1.0000 0.97933  0.45567  0.50327  Biso   1.000  C
  C212     1.0000 0.54433  0.52367  0.50327  Biso   1.000  C
  C213     1.0000 0.47633  0.02067  0.50327  Biso   1.000  C
  C214     1.0000 0.12233  0.31267  0.83007  Biso   1.000  C
  C215     1.0000 0.68733  0.80967  0.83007  Biso   1.000  C
  C216     1.0000 0.19033  0.87767  0.83007  Biso   1.000  C
  C217     1.0000 0.30780  0.23660  0.17990  Biso   1.000  C
  C218     1.0000 0.76340  0.07120  0.17990  Biso   1.000  C
  C219     1.0000 0.92880  0.69220  0.17990  Biso   1.000  C
  C220     1.0000 0.23660  0.30780  0.82010  Biso   1.000  C
  C221     1.0000 0.69220  0.92880  0.82010  Biso   1.000  C
  C222     1.0000 0.07120  0.76340  0.82010  Biso   1.000  C
  C223     1.0000 0.97447  0.56993  0.51323  Biso   1.000  C
  C224     1.0000 0.43007  0.40453  0.51323  Biso   1.000  C
  C225     1.0000 0.59547  0.02553  0.51323  Biso   1.000  C
  C226     1.0000 0.90327  0.64113  0.15343  Biso   1.000  C
  C227     1.0000 0.35887  0.26213  0.15343  Biso   1.000  C
  C228     1.0000 0.73787  0.09673  0.15343  Biso   1.000  C
  C229     1.0000 0.64113  0.90327  0.84657  Biso   1.000  C
  C230     1.0000 0.09673  0.73787  0.84657  Biso   1.000  C
  C231     1.0000 0.26213  0.35887  0.84657  Biso   1.000  C
  C232     1.0000 0.56993  0.97447  0.48677  Biso   1.000  C
  C233     1.0000 0.02553  0.59547  0.48677  Biso   1.000  C
  C234     1.0000 0.40453  0.43007  0.48677  Biso   1.000  C
  C235     1.0000 0.69220  0.76340  0.82010  Biso   1.000  C
  C236     1.0000 0.23660  0.92880  0.82010  Biso   1.000  C
  C237     1.0000 0.07120  0.30780  0.82010  Biso   1.000  C
  C238     1.0000 0.76340  0.69220  0.17990  Biso   1.000  C
  C239     1.0000 0.30780  0.07120  0.17990  Biso   1.000  C
  C240     1.0000 0.92880  0.23660  0.17990  Biso   1.000  C
  C241     1.0000 0.35887  0.09673  0.15343  Biso   1.000  C
  C242     1.0000 0.90327  0.26213  0.15343  Biso   1.000  C
  C243     1.0000 0.73787  0.64113  0.15343  Biso   1.000  C
  C244     1.0000 0.43007  0.02553  0.51323  Biso   1.000  C
  C245     1.0000 0.97447  0.40453  0.51323  Biso   1.000  C
  C246     1.0000 0.59547  0.56993  0.51323  Biso   1.000  C
  C247     1.0000 0.02553  0.43007  0.48677  Biso   1.000  C
  C248     1.0000 0.56993  0.59547  0.48677  Biso   1.000  C
  C249     1.0000 0.40453  0.97447  0.48677  Biso   1.000  C
  C250     1.0000 0.09673  0.35887  0.84657  Biso   1.000  C
  C251     1.0000 0.64113  0.73787  0.84657  Biso   1.000  C
  C252     1.0000 0.26213  0.90327  0.84657  Biso   1.000  C
  H91      1.0000 0.27930  0.26120  0.17010  Biso   1.000  H
  H92      1.0000 0.73880  0.01810  0.17010  Biso   1.000  H
  H93      1.0000 0.98190  0.72070  0.17010  Biso   1.000  H
  H94      1.0000 0.26120  0.27930  0.82990  Biso   1.000  H
  H95      1.0000 0.72070  0.98190  0.82990  Biso   1.000  H
  H96      1.0000 0.01810  0.73880  0.82990  Biso   1.000  H
  H97      1.0000 0.94597  0.59453  0.50343  Biso   1.000  H
  H98      1.0000 0.40547  0.35143  0.50343  Biso   1.000  H
  H99      1.0000 0.64857  0.05403  0.50343  Biso   1.000  H
  H100     1.0000 0.92787  0.61263  0.16323  Biso   1.000  H
  H101     1.0000 0.38737  0.31523  0.16323  Biso   1.000  H
  H102     1.0000 0.68477  0.07213  0.16323  Biso   1.000  H
  H103     1.0000 0.61263  0.92787  0.83677  Biso   1.000  H
  H104     1.0000 0.07213  0.68477  0.83677  Biso   1.000  H
  H105     1.0000 0.31523  0.38737  0.83677  Biso   1.000  H
  H106     1.0000 0.59453  0.94597  0.49657  Biso   1.000  H
  H107     1.0000 0.05403  0.64857  0.49657  Biso   1.000  H
  H108     1.0000 0.35143  0.40547  0.49657  Biso   1.000  H
  H109     1.0000 0.72070  0.73880  0.82990  Biso   1.000  H
  H110     1.0000 0.26120  0.98190  0.82990  Biso   1.000  H
  H111     1.0000 0.01810  0.27930  0.82990  Biso   1.000  H
  H112     1.0000 0.73880  0.72070  0.17010  Biso   1.000  H
  H113     1.0000 0.27930  0.01810  0.17010  Biso   1.000  H
  H114     1.0000 0.98190  0.26120  0.17010  Biso   1.000  H
  H115     1.0000 0.38737  0.07213  0.16323  Biso   1.000  H
  H116     1.0000 0.92787  0.31523  0.16323  Biso   1.000  H
  H117     1.0000 0.68477  0.61263  0.16323  Biso   1.000  H
  H118     1.0000 0.40547  0.05403  0.50343  Biso   1.000  H
  H119     1.0000 0.94597  0.35143  0.50343  Biso   1.000  H
  H120     1.0000 0.64857  0.59453  0.50343  Biso   1.000  H
  H121     1.0000 0.05403  0.40547  0.49657  Biso   1.000  H
  H122     1.0000 0.59453  0.64857  0.49657  Biso   1.000  H
  H123     1.0000 0.35143  0.94597  0.49657  Biso   1.000  H
  H124     1.0000 0.07213  0.38737  0.83677  Biso   1.000  H
  H125     1.0000 0.61263  0.68477  0.83677  Biso   1.000  H
  H126     1.0000 0.31523  0.92787  0.83677  Biso   1.000  H
  C253     1.0000 0.28800  0.20910  0.20870  Biso   1.000  C
  C254     1.0000 0.79090  0.07890  0.20870  Biso   1.000  C
  C255     1.0000 0.92110  0.71200  0.20870  Biso   1.000  C
  C256     1.0000 0.20910  0.28800  0.79130  Biso   1.000  C
  C257     1.0000 0.71200  0.92110  0.79130  Biso   1.000  C
  C258     1.0000 0.07890  0.79090  0.79130  Biso   1.000  C
  C259     1.0000 0.95467  0.54243  0.54203  Biso   1.000  C
  C260     1.0000 0.45757  0.41223  0.54203  Biso   1.000  C
  C261     1.0000 0.58777  0.04533  0.54203  Biso   1.000  C
  C262     1.0000 0.87577  0.62133  0.12463  Biso   1.000  C
  C263     1.0000 0.37867  0.25443  0.12463  Biso   1.000  C
  C264     1.0000 0.74557  0.12423  0.12463  Biso   1.000  C
  C265     1.0000 0.62133  0.87577  0.87537  Biso   1.000  C
  C266     1.0000 0.12423  0.74557  0.87537  Biso   1.000  C
  C267     1.0000 0.25443  0.37867  0.87537  Biso   1.000  C
  C268     1.0000 0.54243  0.95467  0.45797  Biso   1.000  C
  C269     1.0000 0.04533  0.58777  0.45797  Biso   1.000  C
  C270     1.0000 0.41223  0.45757  0.45797  Biso   1.000  C
  C271     1.0000 0.71200  0.79090  0.79130  Biso   1.000  C
  C272     1.0000 0.20910  0.92110  0.79130  Biso   1.000  C
  C273     1.0000 0.07890  0.28800  0.79130  Biso   1.000  C
  C274     1.0000 0.79090  0.71200  0.20870  Biso   1.000  C
  C275     1.0000 0.28800  0.07890  0.20870  Biso   1.000  C
  C276     1.0000 0.92110  0.20910  0.20870  Biso   1.000  C
  C277     1.0000 0.37867  0.12423  0.12463  Biso   1.000  C
  C278     1.0000 0.87577  0.25443  0.12463  Biso   1.000  C
  C279     1.0000 0.74557  0.62133  0.12463  Biso   1.000  C
  C280     1.0000 0.45757  0.04533  0.54203  Biso   1.000  C
  C281     1.0000 0.95467  0.41223  0.54203  Biso   1.000  C
  C282     1.0000 0.58777  0.54243  0.54203  Biso   1.000  C
  C283     1.0000 0.04533  0.45757  0.45797  Biso   1.000  C
  C284     1.0000 0.54243  0.58777  0.45797  Biso   1.000  C
  C285     1.0000 0.41223  0.95467  0.45797  Biso   1.000  C
  C286     1.0000 0.12423  0.37867  0.87537  Biso   1.000  C
  C287     1.0000 0.62133  0.74557  0.87537  Biso   1.000  C
  C288     1.0000 0.25443  0.87577  0.87537  Biso   1.000  C
  H127     1.0000 0.25720  0.22770  0.21050  Biso   1.000  H
  H128     1.0000 0.77230  0.02950  0.21050  Biso   1.000  H
  H129     1.0000 0.97050  0.74280  0.21050  Biso   1.000  H
  H130     1.0000 0.22770  0.25720  0.78950  Biso   1.000  H
  H131     1.0000 0.74280  0.97050  0.78950  Biso   1.000  H
  H132     1.0000 0.02950  0.77230  0.78950  Biso   1.000  H
  H133     1.0000 0.92387  0.56103  0.54383  Biso   1.000  H
  H134     1.0000 0.43897  0.36283  0.54383  Biso   1.000  H
  H135     1.0000 0.63717  0.07613  0.54383  Biso   1.000  H
  H136     1.0000 0.89437  0.59053  0.12283  Biso   1.000  H
  H137     1.0000 0.40947  0.30383  0.12283  Biso   1.000  H
  H138     1.0000 0.69617  0.10563  0.12283  Biso   1.000  H
  H139     1.0000 0.59053  0.89437  0.87717  Biso   1.000  H
  H140     1.0000 0.10563  0.69617  0.87717  Biso   1.000  H
  H141     1.0000 0.30383  0.40947  0.87717  Biso   1.000  H
  H142     1.0000 0.56103  0.92387  0.45617  Biso   1.000  H
  H143     1.0000 0.07613  0.63717  0.45617  Biso   1.000  H
  H144     1.0000 0.36283  0.43897  0.45617  Biso   1.000  H
  H145     1.0000 0.74280  0.77230  0.78950  Biso   1.000  H
  H146     1.0000 0.22770  0.97050  0.78950  Biso   1.000  H
  H147     1.0000 0.02950  0.25720  0.78950  Biso   1.000  H
  H148     1.0000 0.77230  0.74280  0.21050  Biso   1.000  H
  H149     1.0000 0.25720  0.02950  0.21050  Biso   1.000  H
  H150     1.0000 0.97050  0.22770  0.21050  Biso   1.000  H
  H151     1.0000 0.40947  0.10563  0.12283  Biso   1.000  H
  H152     1.0000 0.89437  0.30383  0.12283  Biso   1.000  H
  H153     1.0000 0.69617  0.59053  0.12283  Biso   1.000  H
  H154     1.0000 0.43897  0.07613  0.54383  Biso   1.000  H
  H155     1.0000 0.92387  0.36283  0.54383  Biso   1.000  H
  H156     1.0000 0.63717  0.56103  0.54383  Biso   1.000  H
  H157     1.0000 0.07613  0.43897  0.45617  Biso   1.000  H
  H158     1.0000 0.56103  0.63717  0.45617  Biso   1.000  H
  H159     1.0000 0.36283  0.92387  0.45617  Biso   1.000  H
  H160     1.0000 0.10563  0.40947  0.87717  Biso   1.000  H
  H161     1.0000 0.59053  0.69617  0.87717  Biso   1.000  H
  H162     1.0000 0.30383  0.89437  0.87717  Biso   1.000  H
  C289     1.0000 0.31360  0.15680  0.22140  Biso   1.000  C
  C290     1.0000 0.84320  0.15680  0.22140  Biso   1.000  C
  C291     1.0000 0.84320  0.68640  0.22140  Biso   1.000  C
  C292     1.0000 0.15680  0.31360  0.77860  Biso   1.000  C
  C293     1.0000 0.68640  0.84320  0.77860  Biso   1.000  C
  C294     1.0000 0.15680  0.84320  0.77860  Biso   1.000  C
  C295     1.0000 0.98027  0.49013  0.55473  Biso   1.000  C
  C296     1.0000 0.50987  0.49013  0.55473  Biso   1.000  C
  C297     1.0000 0.50987  0.01973  0.55473  Biso   1.000  C
  C298     1.0000 0.82347  0.64693  0.11193  Biso   1.000  C
  C299     1.0000 0.35307  0.17653  0.11193  Biso   1.000  C
  C300     1.0000 0.82347  0.17653  0.11193  Biso   1.000  C
  C301     1.0000 0.64693  0.82347  0.88807  Biso   1.000  C
  C302     1.0000 0.17653  0.82347  0.88807  Biso   1.000  C
  C303     1.0000 0.17653  0.35307  0.88807  Biso   1.000  C
  C304     1.0000 0.49013  0.98027  0.44527  Biso   1.000  C
  C305     1.0000 0.01973  0.50987  0.44527  Biso   1.000  C
  C306     1.0000 0.49013  0.50987  0.44527  Biso   1.000  C
  N19      1.0000 0.35900  0.13170  0.20480  Biso   1.000  N
  N20      1.0000 0.86830  0.22730  0.20480  Biso   1.000  N
  N21      1.0000 0.77270  0.64100  0.20480  Biso   1.000  N
  N22      1.0000 0.13170  0.35900  0.79520  Biso   1.000  N
  N23      1.0000 0.64100  0.77270  0.79520  Biso   1.000  N
  N24      1.0000 0.22730  0.86830  0.79520  Biso   1.000  N
  N25      1.0000 0.02567  0.46503  0.53813  Biso   1.000  N
  N26      1.0000 0.53497  0.56063  0.53813  Biso   1.000  N
  N27      1.0000 0.43937  0.97433  0.53813  Biso   1.000  N
  N28      1.0000 0.79837  0.69233  0.12853  Biso   1.000  N
  N29      1.0000 0.30767  0.10603  0.12853  Biso   1.000  N
  N30      1.0000 0.89397  0.20163  0.12853  Biso   1.000  N
  N31      1.0000 0.69233  0.79837  0.87147  Biso   1.000  N
  N32      1.0000 0.20163  0.89397  0.87147  Biso   1.000  N
  N33      1.0000 0.10603  0.30767  0.87147  Biso   1.000  N
  N34      1.0000 0.46503  0.02567  0.46187  Biso   1.000  N
  N35      1.0000 0.97433  0.43937  0.46187  Biso   1.000  N
  N36      1.0000 0.56063  0.53497  0.46187  Biso   1.000  N
  N37      1.0000 0.64100  0.86830  0.79520  Biso   1.000  N
  N38      1.0000 0.13170  0.77270  0.79520  Biso   1.000  N
  N39      1.0000 0.22730  0.35900  0.79520  Biso   1.000  N
  N40      1.0000 0.86830  0.64100  0.20480  Biso   1.000  N
  N41      1.0000 0.35900  0.22730  0.20480  Biso   1.000  N
  N42      1.0000 0.77270  0.13170  0.20480  Biso   1.000  N
  N43      1.0000 0.30767  0.20163  0.12853  Biso   1.000  N
  N44      1.0000 0.79837  0.10603  0.12853  Biso   1.000  N
  N45      1.0000 0.89397  0.69233  0.12853  Biso   1.000  N
  N46      1.0000 0.53497  0.97433  0.53813  Biso   1.000  N
  N47      1.0000 0.02567  0.56063  0.53813  Biso   1.000  N
  N48      1.0000 0.43937  0.46503  0.53813  Biso   1.000  N
  N49      1.0000 0.97433  0.53497  0.46187  Biso   1.000  N
  N50      1.0000 0.46503  0.43937  0.46187  Biso   1.000  N
  N51      1.0000 0.56063  0.02567  0.46187  Biso   1.000  N
  N52      1.0000 0.20163  0.30767  0.87147  Biso   1.000  N
  N53      1.0000 0.69233  0.89397  0.87147  Biso   1.000  N
  N54      1.0000 0.10603  0.79837  0.87147  Biso   1.000  N
  C307     1.0000 0.37900  0.15920  0.17580  Biso   1.000  C
  C308     1.0000 0.84080  0.21980  0.17580  Biso   1.000  C
  C309     1.0000 0.78020  0.62100  0.17580  Biso   1.000  C
  C310     1.0000 0.15920  0.37900  0.82420  Biso   1.000  C
  C311     1.0000 0.62100  0.78020  0.82420  Biso   1.000  C
  C312     1.0000 0.21980  0.84080  0.82420  Biso   1.000  C
  C313     1.0000 0.04567  0.49253  0.50913  Biso   1.000  C
  C314     1.0000 0.50747  0.55313  0.50913  Biso   1.000  C
  C315     1.0000 0.44687  0.95433  0.50913  Biso   1.000  C
  C316     1.0000 0.82587  0.71233  0.15753  Biso   1.000  C
  C317     1.0000 0.28767  0.11353  0.15753  Biso   1.000  C
  C318     1.0000 0.88647  0.17413  0.15753  Biso   1.000  C
  C319     1.0000 0.71233  0.82587  0.84247  Biso   1.000  C
  C320     1.0000 0.17413  0.88647  0.84247  Biso   1.000  C
  C321     1.0000 0.11353  0.28767  0.84247  Biso   1.000  C
  C322     1.0000 0.49253  0.04567  0.49087  Biso   1.000  C
  C323     1.0000 0.95433  0.44687  0.49087  Biso   1.000  C
  C324     1.0000 0.55313  0.50747  0.49087  Biso   1.000  C
  C325     1.0000 0.62100  0.84080  0.82420  Biso   1.000  C
  C326     1.0000 0.15920  0.78020  0.82420  Biso   1.000  C
  C327     1.0000 0.21980  0.37900  0.82420  Biso   1.000  C
  C328     1.0000 0.84080  0.62100  0.17580  Biso   1.000  C
  C329     1.0000 0.37900  0.21980  0.17580  Biso   1.000  C
  C330     1.0000 0.78020  0.15920  0.17580  Biso   1.000  C
  C331     1.0000 0.28767  0.17413  0.15753  Biso   1.000  C
  C332     1.0000 0.82587  0.11353  0.15753  Biso   1.000  C
  C333     1.0000 0.88647  0.71233  0.15753  Biso   1.000  C
  C334     1.0000 0.50747  0.95433  0.50913  Biso   1.000  C
  C335     1.0000 0.04567  0.55313  0.50913  Biso   1.000  C
  C336     1.0000 0.44687  0.49253  0.50913  Biso   1.000  C
  C337     1.0000 0.95433  0.50747  0.49087  Biso   1.000  C
  C338     1.0000 0.49253  0.44687  0.49087  Biso   1.000  C
  C339     1.0000 0.55313  0.04567  0.49087  Biso   1.000  C
  C340     1.0000 0.17413  0.28767  0.84247  Biso   1.000  C
  C341     1.0000 0.71233  0.88647  0.84247  Biso   1.000  C
  C342     1.0000 0.11353  0.82587  0.84247  Biso   1.000  C
  H163     1.0000 0.42080  0.15250  0.16560  Biso   1.000  H
  H164     1.0000 0.84750  0.26830  0.16560  Biso   1.000  H
  H165     1.0000 0.73170  0.57920  0.16560  Biso   1.000  H
  H166     1.0000 0.15250  0.42080  0.83440  Biso   1.000  H
  H167     1.0000 0.57920  0.73170  0.83440  Biso   1.000  H
  H168     1.0000 0.26830  0.84750  0.83440  Biso   1.000  H
  H169     1.0000 0.08747  0.48583  0.49893  Biso   1.000  H
  H170     1.0000 0.51417  0.60163  0.49893  Biso   1.000  H
  H171     1.0000 0.39837  0.91253  0.49893  Biso   1.000  H
  H172     1.0000 0.81917  0.75413  0.16773  Biso   1.000  H
  H173     1.0000 0.24587  0.06503  0.16773  Biso   1.000  H
  H174     1.0000 0.93497  0.18083  0.16773  Biso   1.000  H
  H175     1.0000 0.75413  0.81917  0.83227  Biso   1.000  H
  H176     1.0000 0.18083  0.93497  0.83227  Biso   1.000  H
  H177     1.0000 0.06503  0.24587  0.83227  Biso   1.000  H
  H178     1.0000 0.48583  0.08747  0.50107  Biso   1.000  H
  H179     1.0000 0.91253  0.39837  0.50107  Biso   1.000  H
  H180     1.0000 0.60163  0.51417  0.50107  Biso   1.000  H
  H181     1.0000 0.57920  0.84750  0.83440  Biso   1.000  H
  H182     1.0000 0.15250  0.73170  0.83440  Biso   1.000  H
  H183     1.0000 0.26830  0.42080  0.83440  Biso   1.000  H
  H184     1.0000 0.84750  0.57920  0.16560  Biso   1.000  H
  H185     1.0000 0.42080  0.26830  0.16560  Biso   1.000  H
  H186     1.0000 0.73170  0.15250  0.16560  Biso   1.000  H
  H187     1.0000 0.24587  0.18083  0.16773  Biso   1.000  H
  H188     1.0000 0.81917  0.06503  0.16773  Biso   1.000  H
  H189     1.0000 0.93497  0.75413  0.16773  Biso   1.000  H
  H190     1.0000 0.51417  0.91253  0.49893  Biso   1.000  H
  H191     1.0000 0.08747  0.60163  0.49893  Biso   1.000  H
  H192     1.0000 0.39837  0.48583  0.49893  Biso   1.000  H
  H193     1.0000 0.91253  0.51417  0.50107  Biso   1.000  H
  H194     1.0000 0.48583  0.39837  0.50107  Biso   1.000  H
  H195     1.0000 0.60163  0.08747  0.50107  Biso   1.000  H
  H196     1.0000 0.18083  0.24587  0.83227  Biso   1.000  H
  H197     1.0000 0.75413  0.93497  0.83227  Biso   1.000  H
  H198     1.0000 0.06503  0.81917  0.83227  Biso   1.000  H
