data_image0
_cell_length_a       21.157
_cell_length_b       24.013
_cell_length_c       14.214
_cell_angle_alpha    90
_cell_angle_beta     90
_cell_angle_gamma    90

_symmetry_space_group_name_H-M    "P 1"
_symmetry_int_tables_number       1

loop_
  _symmetry_equiv_pos_as_xyz
  'x, y, z'

loop_
  _atom_site_label
  _atom_site_occupancy
  _atom_site_fract_x
  _atom_site_fract_y
  _atom_site_fract_z
  _atom_site_thermal_displace_type
  _atom_site_B_iso_or_equiv
  _atom_site_type_symbol
  Cu1      1.0000 0.54575  0.96476  0.13017  Biso   1.000  Cu
  Cu2      1.0000 0.95425  0.53524  0.63017  Biso   1.000  Cu
  Cu3      1.0000 0.04575  0.53524  0.86983  Biso   1.000  Cu
  Cu4      1.0000 0.45425  0.96476  0.36983  Biso   1.000  Cu
  Cu5      1.0000 0.45425  0.03524  0.86983  Biso   1.000  Cu
  Cu6      1.0000 0.04575  0.46476  0.36983  Biso   1.000  Cu
  Cu7      1.0000 0.95425  0.46476  0.13017  Biso   1.000  Cu
  Cu8      1.0000 0.54575  0.03524  0.63017  Biso   1.000  Cu
  Cu9      1.0000 0.19788  0.82215  0.07042  Biso   1.000  Cu
  Cu10     1.0000 0.30212  0.67785  0.57042  Biso   1.000  Cu
  Cu11     1.0000 0.69788  0.67785  0.92958  Biso   1.000  Cu
  Cu12     1.0000 0.80212  0.82215  0.42958  Biso   1.000  Cu
  Cu13     1.0000 0.80212  0.17785  0.92958  Biso   1.000  Cu
  Cu14     1.0000 0.69788  0.32215  0.42958  Biso   1.000  Cu
  Cu15     1.0000 0.30212  0.32215  0.07042  Biso   1.000  Cu
  Cu16     1.0000 0.19788  0.17785  0.57042  Biso   1.000  Cu
  C1       1.0000 0.47340  0.85650  0.12630  Biso   1.000  C
  C2       1.0000 0.02660  0.64350  0.62630  Biso   1.000  C
  C3       1.0000 0.97340  0.64350  0.87370  Biso   1.000  C
  C4       1.0000 0.52660  0.85650  0.37370  Biso   1.000  C
  C5       1.0000 0.52660  0.14350  0.87370  Biso   1.000  C
  C6       1.0000 0.97340  0.35650  0.37370  Biso   1.000  C
  C7       1.0000 0.02660  0.35650  0.12630  Biso   1.000  C
  C8       1.0000 0.47340  0.14350  0.62630  Biso   1.000  C
  H1       1.0000 0.43690  0.87810  0.12830  Biso   1.000  H
  H2       1.0000 0.06310  0.62190  0.62830  Biso   1.000  H
  H3       1.0000 0.93690  0.62190  0.87170  Biso   1.000  H
  H4       1.0000 0.56310  0.87810  0.37170  Biso   1.000  H
  H5       1.0000 0.56310  0.12190  0.87170  Biso   1.000  H
  H6       1.0000 0.93690  0.37810  0.37170  Biso   1.000  H
  H7       1.0000 0.06310  0.37810  0.12830  Biso   1.000  H
  H8       1.0000 0.43690  0.12190  0.62830  Biso   1.000  H
  C9       1.0000 0.46780  0.79850  0.11640  Biso   1.000  C
  C10      1.0000 0.03220  0.70150  0.61640  Biso   1.000  C
  C11      1.0000 0.96780  0.70150  0.88360  Biso   1.000  C
  C12      1.0000 0.53220  0.79850  0.38360  Biso   1.000  C
  C13      1.0000 0.53220  0.20150  0.88360  Biso   1.000  C
  C14      1.0000 0.96780  0.29850  0.38360  Biso   1.000  C
  C15      1.0000 0.03220  0.29850  0.11640  Biso   1.000  C
  C16      1.0000 0.46780  0.20150  0.61640  Biso   1.000  C
  H9       1.0000 0.42840  0.78150  0.11170  Biso   1.000  H
  H10      1.0000 0.07160  0.71850  0.61170  Biso   1.000  H
  H11      1.0000 0.92840  0.71850  0.88830  Biso   1.000  H
  H12      1.0000 0.57160  0.78150  0.38830  Biso   1.000  H
  H13      1.0000 0.57160  0.21850  0.88830  Biso   1.000  H
  H14      1.0000 0.92840  0.28150  0.38830  Biso   1.000  H
  H15      1.0000 0.07160  0.28150  0.11170  Biso   1.000  H
  H16      1.0000 0.42840  0.21850  0.61170  Biso   1.000  H
  C17      1.0000 0.52240  0.76750  0.11370  Biso   1.000  C
  C18      1.0000 0.97760  0.73250  0.61370  Biso   1.000  C
  C19      1.0000 0.02240  0.73250  0.88630  Biso   1.000  C
  C20      1.0000 0.47760  0.76750  0.38630  Biso   1.000  C
  C21      1.0000 0.47760  0.23250  0.88630  Biso   1.000  C
  C22      1.0000 0.02240  0.26750  0.38630  Biso   1.000  C
  C23      1.0000 0.97760  0.26750  0.11370  Biso   1.000  C
  C24      1.0000 0.52240  0.23250  0.61370  Biso   1.000  C
  H17      1.0000 0.52000  0.72910  0.10710  Biso   1.000  H
  H18      1.0000 0.98000  0.77090  0.60710  Biso   1.000  H
  H19      1.0000 0.02000  0.77090  0.89290  Biso   1.000  H
  H20      1.0000 0.48000  0.72910  0.39290  Biso   1.000  H
  H21      1.0000 0.48000  0.27090  0.89290  Biso   1.000  H
  H22      1.0000 0.02000  0.22910  0.39290  Biso   1.000  H
  H23      1.0000 0.98000  0.22910  0.10710  Biso   1.000  H
  H24      1.0000 0.52000  0.27090  0.60710  Biso   1.000  H
  C25      1.0000 0.58110  0.79300  0.12090  Biso   1.000  C
  C26      1.0000 0.91890  0.70700  0.62090  Biso   1.000  C
  C27      1.0000 0.08110  0.70700  0.87910  Biso   1.000  C
  C28      1.0000 0.41890  0.79300  0.37910  Biso   1.000  C
  C29      1.0000 0.41890  0.20700  0.87910  Biso   1.000  C
  C30      1.0000 0.08110  0.29300  0.37910  Biso   1.000  C
  C31      1.0000 0.91890  0.29300  0.12090  Biso   1.000  C
  C32      1.0000 0.58110  0.20700  0.62090  Biso   1.000  C
  H25      1.0000 0.61800  0.77210  0.11810  Biso   1.000  H
  H26      1.0000 0.88200  0.72790  0.61810  Biso   1.000  H
  H27      1.0000 0.11800  0.72790  0.88190  Biso   1.000  H
  H28      1.0000 0.38200  0.77210  0.38190  Biso   1.000  H
  H29      1.0000 0.38200  0.22790  0.88190  Biso   1.000  H
  H30      1.0000 0.11800  0.27210  0.38190  Biso   1.000  H
  H31      1.0000 0.88200  0.27210  0.11810  Biso   1.000  H
  H32      1.0000 0.61800  0.22790  0.61810  Biso   1.000  H
  C33      1.0000 0.58320  0.84960  0.13220  Biso   1.000  C
  C34      1.0000 0.91680  0.65040  0.63220  Biso   1.000  C
  C35      1.0000 0.08320  0.65040  0.86780  Biso   1.000  C
  C36      1.0000 0.41680  0.84960  0.36780  Biso   1.000  C
  C37      1.0000 0.41680  0.15040  0.86780  Biso   1.000  C
  C38      1.0000 0.08320  0.34960  0.36780  Biso   1.000  C
  C39      1.0000 0.91680  0.34960  0.13220  Biso   1.000  C
  C40      1.0000 0.58320  0.15040  0.63220  Biso   1.000  C
  C41      1.0000 0.64050  0.88290  0.13530  Biso   1.000  C
  C42      1.0000 0.85950  0.61710  0.63530  Biso   1.000  C
  C43      1.0000 0.14050  0.61710  0.86470  Biso   1.000  C
  C44      1.0000 0.35950  0.88290  0.36470  Biso   1.000  C
  C45      1.0000 0.35950  0.11710  0.86470  Biso   1.000  C
  C46      1.0000 0.14050  0.38290  0.36470  Biso   1.000  C
  C47      1.0000 0.85950  0.38290  0.13530  Biso   1.000  C
  C48      1.0000 0.64050  0.11710  0.63530  Biso   1.000  C
  C49      1.0000 0.70250  0.86200  0.13590  Biso   1.000  C
  C50      1.0000 0.79750  0.63800  0.63590  Biso   1.000  C
  C51      1.0000 0.20250  0.63800  0.86410  Biso   1.000  C
  C52      1.0000 0.29750  0.86200  0.36410  Biso   1.000  C
  C53      1.0000 0.29750  0.13800  0.86410  Biso   1.000  C
  C54      1.0000 0.20250  0.36200  0.36410  Biso   1.000  C
  C55      1.0000 0.79750  0.36200  0.13590  Biso   1.000  C
  C56      1.0000 0.70250  0.13800  0.63590  Biso   1.000  C
  H33      1.0000 0.70900  0.82370  0.13520  Biso   1.000  H
  H34      1.0000 0.79100  0.67630  0.63520  Biso   1.000  H
  H35      1.0000 0.20900  0.67630  0.86480  Biso   1.000  H
  H36      1.0000 0.29100  0.82370  0.36480  Biso   1.000  H
  H37      1.0000 0.29100  0.17630  0.86480  Biso   1.000  H
  H38      1.0000 0.20900  0.32370  0.36480  Biso   1.000  H
  H39      1.0000 0.79100  0.32370  0.13520  Biso   1.000  H
  H40      1.0000 0.70900  0.17630  0.63520  Biso   1.000  H
  C57      1.0000 0.75420  0.89740  0.13760  Biso   1.000  C
  C58      1.0000 0.74580  0.60260  0.63760  Biso   1.000  C
  C59      1.0000 0.25420  0.60260  0.86240  Biso   1.000  C
  C60      1.0000 0.24580  0.89740  0.36240  Biso   1.000  C
  C61      1.0000 0.24580  0.10260  0.86240  Biso   1.000  C
  C62      1.0000 0.25420  0.39740  0.36240  Biso   1.000  C
  C63      1.0000 0.74580  0.39740  0.13760  Biso   1.000  C
  C64      1.0000 0.75420  0.10260  0.63760  Biso   1.000  C
  C65      1.0000 0.74060  0.95460  0.13860  Biso   1.000  C
  C66      1.0000 0.75940  0.54540  0.63860  Biso   1.000  C
  C67      1.0000 0.24060  0.54540  0.86140  Biso   1.000  C
  C68      1.0000 0.25940  0.95460  0.36140  Biso   1.000  C
  C69      1.0000 0.25940  0.04540  0.86140  Biso   1.000  C
  C70      1.0000 0.24060  0.45460  0.36140  Biso   1.000  C
  C71      1.0000 0.75940  0.45460  0.13860  Biso   1.000  C
  C72      1.0000 0.74060  0.04540  0.63860  Biso   1.000  C
  H41      1.0000 0.77360  0.98010  0.14070  Biso   1.000  H
  H42      1.0000 0.72640  0.51990  0.64070  Biso   1.000  H
  H43      1.0000 0.27360  0.51990  0.85930  Biso   1.000  H
  H44      1.0000 0.22640  0.98010  0.35930  Biso   1.000  H
  H45      1.0000 0.22640  0.01990  0.85930  Biso   1.000  H
  H46      1.0000 0.27360  0.48010  0.35930  Biso   1.000  H
  H47      1.0000 0.72640  0.48010  0.14070  Biso   1.000  H
  H48      1.0000 0.77360  0.01990  0.64070  Biso   1.000  H
  C73      1.0000 0.67810  0.97380  0.13650  Biso   1.000  C
  C74      1.0000 0.82190  0.52620  0.63650  Biso   1.000  C
  C75      1.0000 0.17810  0.52620  0.86350  Biso   1.000  C
  C76      1.0000 0.32190  0.97380  0.36350  Biso   1.000  C
  C77      1.0000 0.32190  0.02620  0.86350  Biso   1.000  C
  C78      1.0000 0.17810  0.47380  0.36350  Biso   1.000  C
  C79      1.0000 0.82190  0.47380  0.13650  Biso   1.000  C
  C80      1.0000 0.67810  0.02620  0.63650  Biso   1.000  C
  C81      1.0000 0.65730  0.03140  0.13470  Biso   1.000  C
  C82      1.0000 0.84270  0.46860  0.63470  Biso   1.000  C
  C83      1.0000 0.15730  0.46860  0.86530  Biso   1.000  C
  C84      1.0000 0.34270  0.03140  0.36530  Biso   1.000  C
  C85      1.0000 0.34270  0.96860  0.86530  Biso   1.000  C
  C86      1.0000 0.15730  0.53140  0.36530  Biso   1.000  C
  C87      1.0000 0.84270  0.53140  0.13470  Biso   1.000  C
  C88      1.0000 0.65730  0.96860  0.63470  Biso   1.000  C
  C89      1.0000 0.69700  0.07900  0.12740  Biso   1.000  C
  C90      1.0000 0.80300  0.42100  0.62740  Biso   1.000  C
  C91      1.0000 0.19700  0.42100  0.87260  Biso   1.000  C
  C92      1.0000 0.30300  0.07900  0.37260  Biso   1.000  C
  C93      1.0000 0.30300  0.92100  0.87260  Biso   1.000  C
  C94      1.0000 0.19700  0.57900  0.37260  Biso   1.000  C
  C95      1.0000 0.80300  0.57900  0.12740  Biso   1.000  C
  C96      1.0000 0.69700  0.92100  0.62740  Biso   1.000  C
  H49      1.0000 0.74070  0.07490  0.12670  Biso   1.000  H
  H50      1.0000 0.75930  0.42510  0.62670  Biso   1.000  H
  H51      1.0000 0.24070  0.42510  0.87330  Biso   1.000  H
  H52      1.0000 0.25930  0.07490  0.37330  Biso   1.000  H
  H53      1.0000 0.25930  0.92510  0.87330  Biso   1.000  H
  H54      1.0000 0.24070  0.57490  0.37330  Biso   1.000  H
  H55      1.0000 0.75930  0.57490  0.12670  Biso   1.000  H
  H56      1.0000 0.74070  0.92510  0.62670  Biso   1.000  H
  C97      1.0000 0.67110  0.12960  0.12150  Biso   1.000  C
  C98      1.0000 0.82890  0.37040  0.62150  Biso   1.000  C
  C99      1.0000 0.17110  0.37040  0.87850  Biso   1.000  C
  C100     1.0000 0.32890  0.12960  0.37850  Biso   1.000  C
  C101     1.0000 0.32890  0.87040  0.87850  Biso   1.000  C
  C102     1.0000 0.17110  0.62960  0.37850  Biso   1.000  C
  C103     1.0000 0.82890  0.62960  0.12150  Biso   1.000  C
  C104     1.0000 0.67110  0.87040  0.62150  Biso   1.000  C
  H57      1.0000 0.69650  0.16080  0.11350  Biso   1.000  H
  H58      1.0000 0.80350  0.33920  0.61350  Biso   1.000  H
  H59      1.0000 0.19650  0.33920  0.88650  Biso   1.000  H
  H60      1.0000 0.30350  0.16080  0.38650  Biso   1.000  H
  H61      1.0000 0.30350  0.83920  0.88650  Biso   1.000  H
  H62      1.0000 0.19650  0.66080  0.38650  Biso   1.000  H
  H63      1.0000 0.80350  0.66080  0.11350  Biso   1.000  H
  H64      1.0000 0.69650  0.83920  0.61350  Biso   1.000  H
  C105     1.0000 0.60650  0.13540  0.12740  Biso   1.000  C
  C106     1.0000 0.89350  0.36460  0.62740  Biso   1.000  C
  C107     1.0000 0.10650  0.36460  0.87260  Biso   1.000  C
  C108     1.0000 0.39350  0.13540  0.37260  Biso   1.000  C
  C109     1.0000 0.39350  0.86460  0.87260  Biso   1.000  C
  C110     1.0000 0.10650  0.63540  0.37260  Biso   1.000  C
  C111     1.0000 0.89350  0.63540  0.12740  Biso   1.000  C
  C112     1.0000 0.60650  0.86460  0.62740  Biso   1.000  C
  H65      1.0000 0.58790  0.17050  0.12620  Biso   1.000  H
  H66      1.0000 0.91210  0.32950  0.62620  Biso   1.000  H
  H67      1.0000 0.08790  0.32950  0.87380  Biso   1.000  H
  H68      1.0000 0.41210  0.17050  0.37380  Biso   1.000  H
  H69      1.0000 0.41210  0.82950  0.87380  Biso   1.000  H
  H70      1.0000 0.08790  0.67050  0.37380  Biso   1.000  H
  H71      1.0000 0.91210  0.67050  0.12620  Biso   1.000  H
  H72      1.0000 0.58790  0.82950  0.62620  Biso   1.000  H
  C113     1.0000 0.57230  0.09140  0.13460  Biso   1.000  C
  C114     1.0000 0.92770  0.40860  0.63460  Biso   1.000  C
  C115     1.0000 0.07230  0.40860  0.86540  Biso   1.000  C
  C116     1.0000 0.42770  0.09140  0.36540  Biso   1.000  C
  C117     1.0000 0.42770  0.90860  0.86540  Biso   1.000  C
  C118     1.0000 0.07230  0.59140  0.36540  Biso   1.000  C
  C119     1.0000 0.92770  0.59140  0.13460  Biso   1.000  C
  C120     1.0000 0.57230  0.90860  0.63460  Biso   1.000  C
  H73      1.0000 0.52870  0.09640  0.13810  Biso   1.000  H
  H74      1.0000 0.97130  0.40360  0.63810  Biso   1.000  H
  H75      1.0000 0.02870  0.40360  0.86190  Biso   1.000  H
  H76      1.0000 0.47130  0.09640  0.36190  Biso   1.000  H
  H77      1.0000 0.47130  0.90360  0.86190  Biso   1.000  H
  H78      1.0000 0.02870  0.59640  0.36190  Biso   1.000  H
  H79      1.0000 0.97130  0.59640  0.13810  Biso   1.000  H
  H80      1.0000 0.52870  0.90360  0.63810  Biso   1.000  H
  C121     1.0000 0.82020  0.87770  0.13860  Biso   1.000  C
  C122     1.0000 0.67980  0.62230  0.63860  Biso   1.000  C
  C123     1.0000 0.32020  0.62230  0.86140  Biso   1.000  C
  C124     1.0000 0.17980  0.87770  0.36140  Biso   1.000  C
  C125     1.0000 0.17980  0.12230  0.86140  Biso   1.000  C
  C126     1.0000 0.32020  0.37770  0.36140  Biso   1.000  C
  C127     1.0000 0.67980  0.37770  0.13860  Biso   1.000  C
  C128     1.0000 0.82020  0.12230  0.63860  Biso   1.000  C
  C129     1.0000 0.83430  0.82350  0.16280  Biso   1.000  C
  C130     1.0000 0.66570  0.67650  0.66280  Biso   1.000  C
  C131     1.0000 0.33430  0.67650  0.83720  Biso   1.000  C
  C132     1.0000 0.16570  0.82350  0.33720  Biso   1.000  C
  C133     1.0000 0.16570  0.17650  0.83720  Biso   1.000  C
  C134     1.0000 0.33430  0.32350  0.33720  Biso   1.000  C
  C135     1.0000 0.66570  0.32350  0.16280  Biso   1.000  C
  C136     1.0000 0.83430  0.17650  0.66280  Biso   1.000  C
  H81      1.0000 0.80170  0.79990  0.18130  Biso   1.000  H
  H82      1.0000 0.69830  0.70010  0.68130  Biso   1.000  H
  H83      1.0000 0.30170  0.70010  0.81870  Biso   1.000  H
  H84      1.0000 0.19830  0.79990  0.31870  Biso   1.000  H
  H85      1.0000 0.19830  0.20010  0.81870  Biso   1.000  H
  H86      1.0000 0.30170  0.29990  0.31870  Biso   1.000  H
  H87      1.0000 0.69830  0.29990  0.18130  Biso   1.000  H
  H88      1.0000 0.80170  0.20010  0.68130  Biso   1.000  H
  C137     1.0000 0.87020  0.90970  0.10880  Biso   1.000  C
  C138     1.0000 0.62980  0.59030  0.60880  Biso   1.000  C
  C139     1.0000 0.37020  0.59030  0.89120  Biso   1.000  C
  C140     1.0000 0.12980  0.90970  0.39120  Biso   1.000  C
  C141     1.0000 0.12980  0.09030  0.89120  Biso   1.000  C
  C142     1.0000 0.37020  0.40970  0.39120  Biso   1.000  C
  C143     1.0000 0.62980  0.40970  0.10880  Biso   1.000  C
  C144     1.0000 0.87020  0.09030  0.60880  Biso   1.000  C
  H89      1.0000 0.86260  0.94590  0.08890  Biso   1.000  H
  H90      1.0000 0.63740  0.55410  0.58890  Biso   1.000  H
  H91      1.0000 0.36260  0.55410  0.91110  Biso   1.000  H
  H92      1.0000 0.13740  0.94590  0.41110  Biso   1.000  H
  H93      1.0000 0.13740  0.05410  0.91110  Biso   1.000  H
  H94      1.0000 0.36260  0.44590  0.41110  Biso   1.000  H
  H95      1.0000 0.63740  0.44590  0.08890  Biso   1.000  H
  H96      1.0000 0.86260  0.05410  0.58890  Biso   1.000  H
  C145     1.0000 0.89420  0.80350  0.16050  Biso   1.000  C
  C146     1.0000 0.60580  0.69650  0.66050  Biso   1.000  C
  C147     1.0000 0.39420  0.69650  0.83950  Biso   1.000  C
  C148     1.0000 0.10580  0.80350  0.33950  Biso   1.000  C
  C149     1.0000 0.10580  0.19650  0.83950  Biso   1.000  C
  C150     1.0000 0.39420  0.30350  0.33950  Biso   1.000  C
  C151     1.0000 0.60580  0.30350  0.16050  Biso   1.000  C
  C152     1.0000 0.89420  0.19650  0.66050  Biso   1.000  C
  H97      1.0000 0.90210  0.76690  0.17790  Biso   1.000  H
  H98      1.0000 0.59790  0.73310  0.67790  Biso   1.000  H
  H99      1.0000 0.40210  0.73310  0.82210  Biso   1.000  H
  H100     1.0000 0.09790  0.76690  0.32210  Biso   1.000  H
  H101     1.0000 0.09790  0.23310  0.82210  Biso   1.000  H
  H102     1.0000 0.40210  0.26690  0.32210  Biso   1.000  H
  H103     1.0000 0.59790  0.26690  0.17790  Biso   1.000  H
  H104     1.0000 0.90210  0.23310  0.67790  Biso   1.000  H
  C153     1.0000 0.93000  0.89020  0.10750  Biso   1.000  C
  C154     1.0000 0.57000  0.60980  0.60750  Biso   1.000  C
  C155     1.0000 0.43000  0.60980  0.89250  Biso   1.000  C
  C156     1.0000 0.07000  0.89020  0.39250  Biso   1.000  C
  C157     1.0000 0.07000  0.10980  0.89250  Biso   1.000  C
  C158     1.0000 0.43000  0.39020  0.39250  Biso   1.000  C
  C159     1.0000 0.57000  0.39020  0.10750  Biso   1.000  C
  C160     1.0000 0.93000  0.10980  0.60750  Biso   1.000  C
  H105     1.0000 0.96290  0.91340  0.08910  Biso   1.000  H
  H106     1.0000 0.53710  0.58660  0.58910  Biso   1.000  H
  H107     1.0000 0.46290  0.58660  0.91090  Biso   1.000  H
  H108     1.0000 0.03710  0.91340  0.41090  Biso   1.000  H
  H109     1.0000 0.03710  0.08660  0.91090  Biso   1.000  H
  H110     1.0000 0.46290  0.41340  0.41090  Biso   1.000  H
  H111     1.0000 0.53710  0.41340  0.08910  Biso   1.000  H
  H112     1.0000 0.96290  0.08660  0.58910  Biso   1.000  H
  C161     1.0000 0.94200  0.83640  0.13320  Biso   1.000  C
  C162     1.0000 0.55800  0.66360  0.63320  Biso   1.000  C
  C163     1.0000 0.44200  0.66360  0.86680  Biso   1.000  C
  C164     1.0000 0.05800  0.83640  0.36680  Biso   1.000  C
  C165     1.0000 0.05800  0.16360  0.86680  Biso   1.000  C
  C166     1.0000 0.44200  0.33640  0.36680  Biso   1.000  C
  C167     1.0000 0.55800  0.33640  0.13320  Biso   1.000  C
  C168     1.0000 0.94200  0.16360  0.63320  Biso   1.000  C
  C169     1.0000 0.05940  0.84370  0.11520  Biso   1.000  C
  C170     1.0000 0.44060  0.65630  0.61520  Biso   1.000  C
  C171     1.0000 0.55940  0.65630  0.88480  Biso   1.000  C
  C172     1.0000 0.94060  0.84370  0.38480  Biso   1.000  C
  C173     1.0000 0.94060  0.15630  0.88480  Biso   1.000  C
  C174     1.0000 0.55940  0.34370  0.38480  Biso   1.000  C
  C175     1.0000 0.44060  0.34370  0.11520  Biso   1.000  C
  C176     1.0000 0.05940  0.15630  0.61520  Biso   1.000  C
  H113     1.0000 0.06380  0.88210  0.11130  Biso   1.000  H
  H114     1.0000 0.43620  0.61790  0.61130  Biso   1.000  H
  H115     1.0000 0.56380  0.61790  0.88870  Biso   1.000  H
  H116     1.0000 0.93620  0.88210  0.38870  Biso   1.000  H
  H117     1.0000 0.93620  0.11790  0.88870  Biso   1.000  H
  H118     1.0000 0.56380  0.38210  0.38870  Biso   1.000  H
  H119     1.0000 0.43620  0.38210  0.11130  Biso   1.000  H
  H120     1.0000 0.06380  0.11790  0.61130  Biso   1.000  H
  C177     1.0000 0.07850  0.75780  0.12050  Biso   1.000  C
  C178     1.0000 0.42150  0.74220  0.62050  Biso   1.000  C
  C179     1.0000 0.57850  0.74220  0.87950  Biso   1.000  C
  C180     1.0000 0.92150  0.75780  0.37950  Biso   1.000  C
  C181     1.0000 0.92150  0.24220  0.87950  Biso   1.000  C
  C182     1.0000 0.57850  0.25780  0.37950  Biso   1.000  C
  C183     1.0000 0.42150  0.25780  0.12050  Biso   1.000  C
  C184     1.0000 0.07850  0.24220  0.62050  Biso   1.000  C
  H121     1.0000 0.10090  0.72450  0.11940  Biso   1.000  H
  H122     1.0000 0.39910  0.77550  0.61940  Biso   1.000  H
  H123     1.0000 0.60090  0.77550  0.88060  Biso   1.000  H
  H124     1.0000 0.89910  0.72450  0.38060  Biso   1.000  H
  H125     1.0000 0.89910  0.27550  0.88060  Biso   1.000  H
  H126     1.0000 0.60090  0.22450  0.38060  Biso   1.000  H
  H127     1.0000 0.39910  0.22450  0.11940  Biso   1.000  H
  H128     1.0000 0.10090  0.27550  0.61940  Biso   1.000  H
  C185     1.0000 0.42890  0.01660  0.09480  Biso   1.000  C
  C186     1.0000 0.07110  0.48340  0.59480  Biso   1.000  C
  C187     1.0000 0.92890  0.48340  0.90520  Biso   1.000  C
  C188     1.0000 0.57110  0.01660  0.40520  Biso   1.000  C
  C189     1.0000 0.57110  0.98340  0.90520  Biso   1.000  C
  C190     1.0000 0.92890  0.51660  0.40520  Biso   1.000  C
  C191     1.0000 0.07110  0.51660  0.09480  Biso   1.000  C
  C192     1.0000 0.42890  0.98340  0.59480  Biso   1.000  C
  C193     1.0000 0.36030  0.02320  0.10810  Biso   1.000  C
  C194     1.0000 0.13970  0.47680  0.60810  Biso   1.000  C
  C195     1.0000 0.86030  0.47680  0.89190  Biso   1.000  C
  C196     1.0000 0.63970  0.02320  0.39190  Biso   1.000  C
  C197     1.0000 0.63970  0.97680  0.89190  Biso   1.000  C
  C198     1.0000 0.86030  0.52320  0.39190  Biso   1.000  C
  C199     1.0000 0.13970  0.52320  0.10810  Biso   1.000  C
  C200     1.0000 0.36030  0.97680  0.60810  Biso   1.000  C
  C201     1.0000 0.32210  0.97840  0.11870  Biso   1.000  C
  C202     1.0000 0.17790  0.52160  0.61870  Biso   1.000  C
  C203     1.0000 0.82210  0.52160  0.88130  Biso   1.000  C
  C204     1.0000 0.67790  0.97840  0.38130  Biso   1.000  C
  C205     1.0000 0.67790  0.02160  0.88130  Biso   1.000  C
  C206     1.0000 0.82210  0.47840  0.38130  Biso   1.000  C
  C207     1.0000 0.17790  0.47840  0.11870  Biso   1.000  C
  C208     1.0000 0.32210  0.02160  0.61870  Biso   1.000  C
  H129     1.0000 0.33950  0.94290  0.12190  Biso   1.000  H
  H130     1.0000 0.16050  0.55710  0.62190  Biso   1.000  H
  H131     1.0000 0.83950  0.55710  0.87810  Biso   1.000  H
  H132     1.0000 0.66050  0.94290  0.37810  Biso   1.000  H
  H133     1.0000 0.66050  0.05710  0.87810  Biso   1.000  H
  H134     1.0000 0.83950  0.44290  0.37810  Biso   1.000  H
  H135     1.0000 0.16050  0.44290  0.12190  Biso   1.000  H
  H136     1.0000 0.33950  0.05710  0.62190  Biso   1.000  H
  C209     1.0000 0.33420  0.07700  0.10490  Biso   1.000  C
  C210     1.0000 0.16580  0.42300  0.60490  Biso   1.000  C
  C211     1.0000 0.83420  0.42300  0.89510  Biso   1.000  C
  C212     1.0000 0.66580  0.07700  0.39510  Biso   1.000  C
  C213     1.0000 0.66580  0.92300  0.89510  Biso   1.000  C
  C214     1.0000 0.83420  0.57700  0.39510  Biso   1.000  C
  C215     1.0000 0.16580  0.57700  0.10490  Biso   1.000  C
  C216     1.0000 0.33420  0.92300  0.60490  Biso   1.000  C
  H137     1.0000 0.36030  0.10760  0.09540  Biso   1.000  H
  H138     1.0000 0.13970  0.39240  0.59540  Biso   1.000  H
  H139     1.0000 0.86030  0.39240  0.90460  Biso   1.000  H
  H140     1.0000 0.63970  0.10760  0.40460  Biso   1.000  H
  H141     1.0000 0.63970  0.89240  0.90460  Biso   1.000  H
  H142     1.0000 0.86030  0.60760  0.40460  Biso   1.000  H
  H143     1.0000 0.13970  0.60760  0.09540  Biso   1.000  H
  H144     1.0000 0.36030  0.89240  0.59540  Biso   1.000  H
  C217     1.0000 0.27010  0.08460  0.11590  Biso   1.000  C
  C218     1.0000 0.22990  0.41540  0.61590  Biso   1.000  C
  C219     1.0000 0.77010  0.41540  0.88410  Biso   1.000  C
  C220     1.0000 0.72990  0.08460  0.38410  Biso   1.000  C
  C221     1.0000 0.72990  0.91540  0.88410  Biso   1.000  C
  C222     1.0000 0.77010  0.58460  0.38410  Biso   1.000  C
  C223     1.0000 0.22990  0.58460  0.11590  Biso   1.000  C
  C224     1.0000 0.27010  0.91540  0.61590  Biso   1.000  C
  H145     1.0000 0.25290  0.12030  0.11810  Biso   1.000  H
  H146     1.0000 0.24710  0.37970  0.61810  Biso   1.000  H
  H147     1.0000 0.75290  0.37970  0.88190  Biso   1.000  H
  H148     1.0000 0.74710  0.12030  0.38190  Biso   1.000  H
  H149     1.0000 0.74710  0.87970  0.88190  Biso   1.000  H
  H150     1.0000 0.75290  0.62030  0.38190  Biso   1.000  H
  H151     1.0000 0.24710  0.62030  0.11810  Biso   1.000  H
  H152     1.0000 0.25290  0.87970  0.61810  Biso   1.000  H
  C225     1.0000 0.23020  0.03630  0.12370  Biso   1.000  C
  C226     1.0000 0.26980  0.46370  0.62370  Biso   1.000  C
  C227     1.0000 0.73020  0.46370  0.87630  Biso   1.000  C
  C228     1.0000 0.76980  0.03630  0.37630  Biso   1.000  C
  C229     1.0000 0.76980  0.96370  0.87630  Biso   1.000  C
  C230     1.0000 0.73020  0.53630  0.37630  Biso   1.000  C
  C231     1.0000 0.26980  0.53630  0.12370  Biso   1.000  C
  C232     1.0000 0.23020  0.96370  0.62370  Biso   1.000  C
  H153     1.0000 0.18660  0.04050  0.12800  Biso   1.000  H
  H154     1.0000 0.31340  0.45950  0.62800  Biso   1.000  H
  H155     1.0000 0.68660  0.45950  0.87200  Biso   1.000  H
  H156     1.0000 0.81340  0.04050  0.37200  Biso   1.000  H
  H157     1.0000 0.81340  0.95950  0.87200  Biso   1.000  H
  H158     1.0000 0.68660  0.54050  0.37200  Biso   1.000  H
  H159     1.0000 0.31340  0.54050  0.12800  Biso   1.000  H
  H160     1.0000 0.18660  0.95950  0.62800  Biso   1.000  H
  C233     1.0000 0.25600  0.98530  0.12490  Biso   1.000  C
  C234     1.0000 0.24400  0.51470  0.62490  Biso   1.000  C
  C235     1.0000 0.75600  0.51470  0.87510  Biso   1.000  C
  C236     1.0000 0.74400  0.98530  0.37510  Biso   1.000  C
  C237     1.0000 0.74400  0.01470  0.87510  Biso   1.000  C
  C238     1.0000 0.75600  0.48530  0.37510  Biso   1.000  C
  C239     1.0000 0.24400  0.48530  0.12490  Biso   1.000  C
  C240     1.0000 0.25600  0.01470  0.62490  Biso   1.000  C
  C241     1.0000 0.21400  0.93320  0.12830  Biso   1.000  C
  C242     1.0000 0.28600  0.56680  0.62830  Biso   1.000  C
  C243     1.0000 0.71400  0.56680  0.87170  Biso   1.000  C
  C244     1.0000 0.78600  0.93320  0.37170  Biso   1.000  C
  C245     1.0000 0.78600  0.06680  0.87170  Biso   1.000  C
  C246     1.0000 0.71400  0.43320  0.37170  Biso   1.000  C
  C247     1.0000 0.28600  0.43320  0.12830  Biso   1.000  C
  C248     1.0000 0.21400  0.06680  0.62830  Biso   1.000  C
  C249     1.0000 0.28950  0.74690  0.09580  Biso   1.000  C
  C250     1.0000 0.21050  0.75310  0.59580  Biso   1.000  C
  C251     1.0000 0.78950  0.75310  0.90420  Biso   1.000  C
  C252     1.0000 0.71050  0.74690  0.40420  Biso   1.000  C
  C253     1.0000 0.71050  0.25310  0.90420  Biso   1.000  C
  C254     1.0000 0.78950  0.24690  0.40420  Biso   1.000  C
  C255     1.0000 0.21050  0.24690  0.09580  Biso   1.000  C
  C256     1.0000 0.28950  0.25310  0.59580  Biso   1.000  C
  C257     1.0000 0.33040  0.70600  0.14740  Biso   1.000  C
  C258     1.0000 0.16960  0.79400  0.64740  Biso   1.000  C
  C259     1.0000 0.83040  0.79400  0.85260  Biso   1.000  C
  C260     1.0000 0.66960  0.70600  0.35260  Biso   1.000  C
  C261     1.0000 0.66960  0.29400  0.85260  Biso   1.000  C
  C262     1.0000 0.83040  0.20600  0.35260  Biso   1.000  C
  C263     1.0000 0.16960  0.20600  0.14740  Biso   1.000  C
  C264     1.0000 0.33040  0.29400  0.64740  Biso   1.000  C
  C265     1.0000 0.37800  0.67700  0.10160  Biso   1.000  C
  C266     1.0000 0.12200  0.82300  0.60160  Biso   1.000  C
  C267     1.0000 0.87800  0.82300  0.89840  Biso   1.000  C
  C268     1.0000 0.62200  0.67700  0.39840  Biso   1.000  C
  C269     1.0000 0.62200  0.32300  0.89840  Biso   1.000  C
  C270     1.0000 0.87800  0.17700  0.39840  Biso   1.000  C
  C271     1.0000 0.12200  0.17700  0.10160  Biso   1.000  C
  C272     1.0000 0.37800  0.32300  0.60160  Biso   1.000  C
  H161     1.0000 0.38640  0.68460  0.03870  Biso   1.000  H
  H162     1.0000 0.11360  0.81540  0.53870  Biso   1.000  H
  H163     1.0000 0.88640  0.81540  0.96130  Biso   1.000  H
  H164     1.0000 0.61360  0.68460  0.46130  Biso   1.000  H
  H165     1.0000 0.61360  0.31540  0.96130  Biso   1.000  H
  H166     1.0000 0.88640  0.18460  0.46130  Biso   1.000  H
  H167     1.0000 0.11360  0.18460  0.03870  Biso   1.000  H
  H168     1.0000 0.38640  0.31540  0.53870  Biso   1.000  H
  C273     1.0000 0.32110  0.69520  0.24250  Biso   1.000  C
  C274     1.0000 0.17890  0.80480  0.74250  Biso   1.000  C
  C275     1.0000 0.82110  0.80480  0.75750  Biso   1.000  C
  C276     1.0000 0.67890  0.69520  0.25750  Biso   1.000  C
  C277     1.0000 0.67890  0.30480  0.75750  Biso   1.000  C
  C278     1.0000 0.82110  0.19520  0.25750  Biso   1.000  C
  C279     1.0000 0.17890  0.19520  0.24250  Biso   1.000  C
  C280     1.0000 0.32110  0.30480  0.74250  Biso   1.000  C
  H169     1.0000 0.28920  0.71380  0.27460  Biso   1.000  H
  H170     1.0000 0.21080  0.78620  0.77460  Biso   1.000  H
  H171     1.0000 0.78920  0.78620  0.72540  Biso   1.000  H
  H172     1.0000 0.71080  0.71380  0.22540  Biso   1.000  H
  H173     1.0000 0.71080  0.28620  0.72540  Biso   1.000  H
  H174     1.0000 0.78920  0.21380  0.22540  Biso   1.000  H
  H175     1.0000 0.21080  0.21380  0.27460  Biso   1.000  H
  H176     1.0000 0.28920  0.28620  0.77460  Biso   1.000  H
  C281     1.0000 0.41380  0.63610  0.14870  Biso   1.000  C
  C282     1.0000 0.08620  0.86390  0.64870  Biso   1.000  C
  C283     1.0000 0.91380  0.86390  0.85130  Biso   1.000  C
  C284     1.0000 0.58620  0.63610  0.35130  Biso   1.000  C
  C285     1.0000 0.58620  0.36390  0.85130  Biso   1.000  C
  C286     1.0000 0.91380  0.13610  0.35130  Biso   1.000  C
  C287     1.0000 0.08620  0.13610  0.14870  Biso   1.000  C
  C288     1.0000 0.41380  0.36390  0.64870  Biso   1.000  C
  H177     1.0000 0.44410  0.61570  0.11630  Biso   1.000  H
  H178     1.0000 0.05590  0.88430  0.61630  Biso   1.000  H
  H179     1.0000 0.94410  0.88430  0.88370  Biso   1.000  H
  H180     1.0000 0.55590  0.61570  0.38370  Biso   1.000  H
  H181     1.0000 0.55590  0.38430  0.88370  Biso   1.000  H
  H182     1.0000 0.94410  0.11570  0.38370  Biso   1.000  H
  H183     1.0000 0.05590  0.11570  0.11630  Biso   1.000  H
  H184     1.0000 0.44410  0.38430  0.61630  Biso   1.000  H
  C289     1.0000 0.40380  0.62680  0.24220  Biso   1.000  C
  C290     1.0000 0.09620  0.87320  0.74220  Biso   1.000  C
  C291     1.0000 0.90380  0.87320  0.75780  Biso   1.000  C
  C292     1.0000 0.59620  0.62680  0.25780  Biso   1.000  C
  C293     1.0000 0.59620  0.37320  0.75780  Biso   1.000  C
  C294     1.0000 0.90380  0.12680  0.25780  Biso   1.000  C
  C295     1.0000 0.09620  0.12680  0.24220  Biso   1.000  C
  C296     1.0000 0.40380  0.37320  0.74220  Biso   1.000  C
  H185     1.0000 0.42740  0.59990  0.27360  Biso   1.000  H
  H186     1.0000 0.07260  0.90010  0.77360  Biso   1.000  H
  H187     1.0000 0.92740  0.90010  0.72640  Biso   1.000  H
  H188     1.0000 0.57260  0.59990  0.22640  Biso   1.000  H
  H189     1.0000 0.57260  0.40010  0.72640  Biso   1.000  H
  H190     1.0000 0.92740  0.09990  0.22640  Biso   1.000  H
  H191     1.0000 0.07260  0.09990  0.27360  Biso   1.000  H
  H192     1.0000 0.42740  0.40010  0.77360  Biso   1.000  H
  C297     1.0000 0.35870  0.65710  0.29070  Biso   1.000  C
  C298     1.0000 0.14130  0.84290  0.79070  Biso   1.000  C
  C299     1.0000 0.85870  0.84290  0.70930  Biso   1.000  C
  C300     1.0000 0.64130  0.65710  0.20930  Biso   1.000  C
  C301     1.0000 0.64130  0.34290  0.70930  Biso   1.000  C
  C302     1.0000 0.85870  0.15710  0.20930  Biso   1.000  C
  C303     1.0000 0.14130  0.15710  0.29070  Biso   1.000  C
  C304     1.0000 0.35870  0.34290  0.79070  Biso   1.000  C
  C305     1.0000 0.34750  0.64840  0.39500  Biso   1.000  C
  C306     1.0000 0.15250  0.85160  0.89500  Biso   1.000  C
  C307     1.0000 0.84750  0.85160  0.60500  Biso   1.000  C
  C308     1.0000 0.65250  0.64840  0.10500  Biso   1.000  C
  C309     1.0000 0.65250  0.35160  0.60500  Biso   1.000  C
  C310     1.0000 0.84750  0.14840  0.10500  Biso   1.000  C
  C311     1.0000 0.15250  0.14840  0.39500  Biso   1.000  C
  C312     1.0000 0.34750  0.35160  0.89500  Biso   1.000  C
  N1       1.0000 0.53050  0.88190  0.13320  Biso   1.000  N
  N2       1.0000 0.96950  0.61810  0.63320  Biso   1.000  N
  N3       1.0000 0.03050  0.61810  0.86680  Biso   1.000  N
  N4       1.0000 0.46950  0.88190  0.36680  Biso   1.000  N
  N5       1.0000 0.46950  0.11810  0.86680  Biso   1.000  N
  N6       1.0000 0.03050  0.38190  0.36680  Biso   1.000  N
  N7       1.0000 0.96950  0.38190  0.13320  Biso   1.000  N
  N8       1.0000 0.53050  0.11810  0.63320  Biso   1.000  N
  N9       1.0000 0.63170  0.93770  0.13750  Biso   1.000  N
  N10      1.0000 0.86830  0.56230  0.63750  Biso   1.000  N
  N11      1.0000 0.13170  0.56230  0.86250  Biso   1.000  N
  N12      1.0000 0.36830  0.93770  0.36250  Biso   1.000  N
  N13      1.0000 0.36830  0.06230  0.86250  Biso   1.000  N
  N14      1.0000 0.13170  0.43770  0.36250  Biso   1.000  N
  N15      1.0000 0.86830  0.43770  0.13750  Biso   1.000  N
  N16      1.0000 0.63170  0.06230  0.63750  Biso   1.000  N
  N17      1.0000 0.59380  0.03840  0.13750  Biso   1.000  N
  N18      1.0000 0.90620  0.46160  0.63750  Biso   1.000  N
  N19      1.0000 0.09380  0.46160  0.86250  Biso   1.000  N
  N20      1.0000 0.40620  0.03840  0.36250  Biso   1.000  N
  N21      1.0000 0.40620  0.96160  0.86250  Biso   1.000  N
  N22      1.0000 0.09380  0.53840  0.36250  Biso   1.000  N
  N23      1.0000 0.90620  0.53840  0.13750  Biso   1.000  N
  N24      1.0000 0.59380  0.96160  0.63750  Biso   1.000  N
  N25      1.0000 0.00490  0.81570  0.12700  Biso   1.000  N
  N26      1.0000 0.49510  0.68430  0.62700  Biso   1.000  N
  N27      1.0000 0.50490  0.68430  0.87300  Biso   1.000  N
  N28      1.0000 0.99510  0.81570  0.37300  Biso   1.000  N
  N29      1.0000 0.99510  0.18430  0.87300  Biso   1.000  N
  N30      1.0000 0.50490  0.31570  0.37300  Biso   1.000  N
  N31      1.0000 0.49510  0.31570  0.12700  Biso   1.000  N
  N32      1.0000 0.00490  0.18430  0.62700  Biso   1.000  N
  N33      1.0000 0.01730  0.75980  0.13270  Biso   1.000  N
  N34      1.0000 0.48270  0.74020  0.63270  Biso   1.000  N
  N35      1.0000 0.51730  0.74020  0.86730  Biso   1.000  N
  N36      1.0000 0.98270  0.75980  0.36730  Biso   1.000  N
  N37      1.0000 0.98270  0.24020  0.86730  Biso   1.000  N
  N38      1.0000 0.51730  0.25980  0.36730  Biso   1.000  N
  N39      1.0000 0.48270  0.25980  0.13270  Biso   1.000  N
  N40      1.0000 0.01730  0.24020  0.63270  Biso   1.000  N
  N41      1.0000 0.10580  0.80630  0.11000  Biso   1.000  N
  N42      1.0000 0.39420  0.69370  0.61000  Biso   1.000  N
  N43      1.0000 0.60580  0.69370  0.89000  Biso   1.000  N
  N44      1.0000 0.89420  0.80630  0.39000  Biso   1.000  N
  N45      1.0000 0.89420  0.19370  0.89000  Biso   1.000  N
  N46      1.0000 0.60580  0.30630  0.39000  Biso   1.000  N
  N47      1.0000 0.39420  0.30630  0.11000  Biso   1.000  N
  N48      1.0000 0.10580  0.19370  0.61000  Biso   1.000  N
  O1       1.0000 0.45800  0.98330  0.14980  Biso   1.000  O
  O2       1.0000 0.04200  0.51670  0.64980  Biso   1.000  O
  O3       1.0000 0.95800  0.51670  0.85020  Biso   1.000  O
  O4       1.0000 0.54200  0.98330  0.35020  Biso   1.000  O
  O5       1.0000 0.54200  0.01670  0.85020  Biso   1.000  O
  O6       1.0000 0.95800  0.48330  0.35020  Biso   1.000  O
  O7       1.0000 0.04200  0.48330  0.14980  Biso   1.000  O
  O8       1.0000 0.45800  0.01670  0.64980  Biso   1.000  O
  O9       1.0000 0.45640  0.04740  0.03490  Biso   1.000  O
  O10      1.0000 0.04360  0.45260  0.53490  Biso   1.000  O
  O11      1.0000 0.95640  0.45260  0.96510  Biso   1.000  O
  O12      1.0000 0.54360  0.04740  0.46510  Biso   1.000  O
  O13      1.0000 0.54360  0.95260  0.96510  Biso   1.000  O
  O14      1.0000 0.95640  0.54740  0.46510  Biso   1.000  O
  O15      1.0000 0.04360  0.54740  0.03490  Biso   1.000  O
  O16      1.0000 0.45640  0.95260  0.53490  Biso   1.000  O
  O17      1.0000 0.24130  0.88800  0.10950  Biso   1.000  O
  O18      1.0000 0.25870  0.61200  0.60950  Biso   1.000  O
  O19      1.0000 0.74130  0.61200  0.89050  Biso   1.000  O
  O20      1.0000 0.75870  0.88800  0.39050  Biso   1.000  O
  O21      1.0000 0.75870  0.11200  0.89050  Biso   1.000  O
  O22      1.0000 0.74130  0.38800  0.39050  Biso   1.000  O
  O23      1.0000 0.25870  0.38800  0.10950  Biso   1.000  O
  O24      1.0000 0.24130  0.11200  0.60950  Biso   1.000  O
  O25      1.0000 0.15710  0.93850  0.14820  Biso   1.000  O
  O26      1.0000 0.34290  0.56150  0.64820  Biso   1.000  O
  O27      1.0000 0.65710  0.56150  0.85180  Biso   1.000  O
  O28      1.0000 0.84290  0.93850  0.35180  Biso   1.000  O
  O29      1.0000 0.84290  0.06150  0.85180  Biso   1.000  O
  O30      1.0000 0.65710  0.43850  0.35180  Biso   1.000  O
  O31      1.0000 0.34290  0.43850  0.14820  Biso   1.000  O
  O32      1.0000 0.15710  0.06150  0.64820  Biso   1.000  O
  O33      1.0000 0.23760  0.75860  0.13270  Biso   1.000  O
  O34      1.0000 0.26240  0.74140  0.63270  Biso   1.000  O
  O35      1.0000 0.73760  0.74140  0.86730  Biso   1.000  O
  O36      1.0000 0.76240  0.75860  0.36730  Biso   1.000  O
  O37      1.0000 0.76240  0.24140  0.86730  Biso   1.000  O
  O38      1.0000 0.73760  0.25860  0.36730  Biso   1.000  O
  O39      1.0000 0.26240  0.25860  0.13270  Biso   1.000  O
  O40      1.0000 0.23760  0.24140  0.63270  Biso   1.000  O
  O41      1.0000 0.31300  0.77130  0.02860  Biso   1.000  O
  O42      1.0000 0.18700  0.72870  0.52860  Biso   1.000  O
  O43      1.0000 0.81300  0.72870  0.97140  Biso   1.000  O
  O44      1.0000 0.68700  0.77130  0.47140  Biso   1.000  O
  O45      1.0000 0.68700  0.22870  0.97140  Biso   1.000  O
  O46      1.0000 0.81300  0.27130  0.47140  Biso   1.000  O
  O47      1.0000 0.18700  0.27130  0.02860  Biso   1.000  O
  O48      1.0000 0.31300  0.22870  0.52860  Biso   1.000  O
  O49      1.0000 0.31380  0.68590  0.43420  Biso   1.000  O
  O50      1.0000 0.18620  0.81410  0.93420  Biso   1.000  O
  O51      1.0000 0.81380  0.81410  0.56580  Biso   1.000  O
  O52      1.0000 0.68620  0.68590  0.06580  Biso   1.000  O
  O53      1.0000 0.68620  0.31410  0.56580  Biso   1.000  O
  O54      1.0000 0.81380  0.18590  0.06580  Biso   1.000  O
  O55      1.0000 0.18620  0.18590  0.43420  Biso   1.000  O
  O56      1.0000 0.31380  0.31410  0.93420  Biso   1.000  O
  O57      1.0000 0.37070  0.60880  0.43510  Biso   1.000  O
  O58      1.0000 0.12930  0.89120  0.93510  Biso   1.000  O
  O59      1.0000 0.87070  0.89120  0.56490  Biso   1.000  O
  O60      1.0000 0.62930  0.60880  0.06490  Biso   1.000  O
  O61      1.0000 0.62930  0.39120  0.56490  Biso   1.000  O
  O62      1.0000 0.87070  0.10880  0.06490  Biso   1.000  O
  O63      1.0000 0.12930  0.10880  0.43510  Biso   1.000  O
  O64      1.0000 0.37070  0.39120  0.93510  Biso   1.000  O
  O65      1.0000 0.04370  0.99220  0.17810  Biso   1.000  O
  O66      1.0000 0.45630  0.50780  0.67810  Biso   1.000  O
  O67      1.0000 0.54370  0.50780  0.82190  Biso   1.000  O
  O68      1.0000 0.95630  0.99220  0.32190  Biso   1.000  O
  O69      1.0000 0.95630  0.00780  0.82190  Biso   1.000  O
  O70      1.0000 0.54370  0.49220  0.32190  Biso   1.000  O
  O71      1.0000 0.45630  0.49220  0.17810  Biso   1.000  O
  O72      1.0000 0.04370  0.00780  0.67810  Biso   1.000  O
  H193     1.0000 0.07790  0.97560  0.16410  Biso   1.000  H
  H194     1.0000 0.42210  0.52440  0.66410  Biso   1.000  H
  H195     1.0000 0.57790  0.52440  0.83590  Biso   1.000  H
  H196     1.0000 0.92210  0.97560  0.33590  Biso   1.000  H
  H197     1.0000 0.92210  0.02440  0.83590  Biso   1.000  H
  H198     1.0000 0.57790  0.47560  0.33590  Biso   1.000  H
  H199     1.0000 0.42210  0.47560  0.16410  Biso   1.000  H
  H200     1.0000 0.07790  0.02440  0.66410  Biso   1.000  H
  H201     1.0000 0.03560  0.00010  0.23510  Biso   1.000  H
  H202     1.0000 0.46440  0.49990  0.73510  Biso   1.000  H
  H203     1.0000 0.53560  0.49990  0.76490  Biso   1.000  H
  H204     1.0000 0.96440  0.00010  0.26490  Biso   1.000  H
  H205     1.0000 0.96440  0.99990  0.76490  Biso   1.000  H
  H206     1.0000 0.53560  0.50010  0.26490  Biso   1.000  H
  H207     1.0000 0.46440  0.50010  0.23510  Biso   1.000  H
  H208     1.0000 0.03560  0.99990  0.73510  Biso   1.000  H
  O73      1.0000 0.96060  0.03290  0.04500  Biso   1.000  O
  O74      1.0000 0.53940  0.46710  0.54500  Biso   1.000  O
  O75      1.0000 0.46060  0.46710  0.95500  Biso   1.000  O
  O76      1.0000 0.03940  0.03290  0.45500  Biso   1.000  O
  O77      1.0000 0.03940  0.96710  0.95500  Biso   1.000  O
  O78      1.0000 0.46060  0.53290  0.45500  Biso   1.000  O
  O79      1.0000 0.53940  0.53290  0.04500  Biso   1.000  O
  O80      1.0000 0.96060  0.96710  0.54500  Biso   1.000  O
  H209     1.0000 0.92390  0.03180  0.06890  Biso   1.000  H
  H210     1.0000 0.57610  0.46820  0.56890  Biso   1.000  H
  H211     1.0000 0.42390  0.46820  0.93110  Biso   1.000  H
  H212     1.0000 0.07610  0.03180  0.43110  Biso   1.000  H
  H213     1.0000 0.07610  0.96820  0.93110  Biso   1.000  H
  H214     1.0000 0.42390  0.53180  0.43110  Biso   1.000  H
  H215     1.0000 0.57610  0.53180  0.06890  Biso   1.000  H
  H216     1.0000 0.92390  0.96820  0.56890  Biso   1.000  H
  H217     1.0000 0.98730  0.02020  0.08410  Biso   1.000  H
  H218     1.0000 0.51270  0.47980  0.58410  Biso   1.000  H
  H219     1.0000 0.48730  0.47980  0.91590  Biso   1.000  H
  H220     1.0000 0.01270  0.02020  0.41590  Biso   1.000  H
  H221     1.0000 0.01270  0.97980  0.91590  Biso   1.000  H
  H222     1.0000 0.48730  0.52020  0.41590  Biso   1.000  H
  H223     1.0000 0.51270  0.52020  0.08410  Biso   1.000  H
  H224     1.0000 0.98730  0.97980  0.58410  Biso   1.000  H
