data_image0
_cell_length_a       28.3675
_cell_length_b       28.3675
_cell_length_c       28.6376
_cell_angle_alpha    90
_cell_angle_beta     90
_cell_angle_gamma    90

_symmetry_space_group_name_H-M    "P 1"
_symmetry_int_tables_number       1

loop_
  _symmetry_equiv_pos_as_xyz
  'x, y, z'

loop_
  _atom_site_label
  _atom_site_occupancy
  _atom_site_fract_x
  _atom_site_fract_y
  _atom_site_fract_z
  _atom_site_thermal_displace_type
  _atom_site_B_iso_or_equiv
  _atom_site_type_symbol
  Cu1      1.0000 0.31628  0.31628  0.22590  Biso   1.000  Cu
  Cu2      1.0000 0.68373  0.68373  0.22590  Biso   1.000  Cu
  Cu3      1.0000 0.18373  0.81627  0.72590  Biso   1.000  Cu
  Cu4      1.0000 0.81627  0.18373  0.72590  Biso   1.000  Cu
  Cu5      1.0000 0.18373  0.81627  0.27410  Biso   1.000  Cu
  Cu6      1.0000 0.81627  0.18373  0.27410  Biso   1.000  Cu
  Cu7      1.0000 0.31628  0.31628  0.77410  Biso   1.000  Cu
  Cu8      1.0000 0.68373  0.68373  0.77410  Biso   1.000  Cu
  Cu9      1.0000 0.36249  0.36249  0.29164  Biso   1.000  Cu
  Cu10     1.0000 0.63751  0.63751  0.29164  Biso   1.000  Cu
  Cu11     1.0000 0.13751  0.86249  0.79164  Biso   1.000  Cu
  Cu12     1.0000 0.86249  0.13751  0.79164  Biso   1.000  Cu
  Cu13     1.0000 0.13751  0.86249  0.20836  Biso   1.000  Cu
  Cu14     1.0000 0.86249  0.13751  0.20836  Biso   1.000  Cu
  Cu15     1.0000 0.36249  0.36249  0.70836  Biso   1.000  Cu
  Cu16     1.0000 0.63751  0.63751  0.70836  Biso   1.000  Cu
  Cu17     1.0000 0.50617  0.86999  0.50000  Biso   1.000  Cu
  Cu18     1.0000 0.49383  0.13001  0.50000  Biso   1.000  Cu
  Cu19     1.0000 0.63001  0.00617  0.00000  Biso   1.000  Cu
  Cu20     1.0000 0.36999  0.99383  0.00000  Biso   1.000  Cu
  Cu21     1.0000 0.99383  0.36999  0.00000  Biso   1.000  Cu
  Cu22     1.0000 0.00617  0.63001  0.00000  Biso   1.000  Cu
  Cu23     1.0000 0.86999  0.50617  0.50000  Biso   1.000  Cu
  Cu24     1.0000 0.13001  0.49383  0.50000  Biso   1.000  Cu
  Cu25     1.0000 0.50443  0.77708  0.50000  Biso   1.000  Cu
  Cu26     1.0000 0.49557  0.22292  0.50000  Biso   1.000  Cu
  Cu27     1.0000 0.72292  0.00443  0.00000  Biso   1.000  Cu
  Cu28     1.0000 0.27708  0.99557  0.00000  Biso   1.000  Cu
  Cu29     1.0000 0.99557  0.27708  0.00000  Biso   1.000  Cu
  Cu30     1.0000 0.00443  0.72292  0.00000  Biso   1.000  Cu
  Cu31     1.0000 0.77708  0.50443  0.50000  Biso   1.000  Cu
  Cu32     1.0000 0.22292  0.49557  0.50000  Biso   1.000  Cu
  Cu33     1.0000 0.35965  0.64035  0.30368  Biso   1.000  Cu
  Cu34     1.0000 0.64035  0.35965  0.30368  Biso   1.000  Cu
  Cu35     1.0000 0.85965  0.85965  0.80368  Biso   1.000  Cu
  Cu36     1.0000 0.14035  0.14035  0.80368  Biso   1.000  Cu
  Cu37     1.0000 0.14035  0.14035  0.19632  Biso   1.000  Cu
  Cu38     1.0000 0.85965  0.85965  0.19632  Biso   1.000  Cu
  Cu39     1.0000 0.64035  0.35965  0.69632  Biso   1.000  Cu
  Cu40     1.0000 0.35965  0.64035  0.69632  Biso   1.000  Cu
  Cu41     1.0000 0.31144  0.68856  0.24037  Biso   1.000  Cu
  Cu42     1.0000 0.68856  0.31144  0.24037  Biso   1.000  Cu
  Cu43     1.0000 0.81144  0.81144  0.74037  Biso   1.000  Cu
  Cu44     1.0000 0.18856  0.18856  0.74037  Biso   1.000  Cu
  Cu45     1.0000 0.18856  0.18856  0.25963  Biso   1.000  Cu
  Cu46     1.0000 0.81144  0.81144  0.25963  Biso   1.000  Cu
  Cu47     1.0000 0.68856  0.31144  0.75963  Biso   1.000  Cu
  Cu48     1.0000 0.31144  0.68856  0.75963  Biso   1.000  Cu
  O1       1.0000 0.33166  0.26171  0.26651  Biso   1.000  O
  O2       1.0000 0.66834  0.73829  0.26651  Biso   1.000  O
  O3       1.0000 0.23829  0.83166  0.76651  Biso   1.000  O
  O4       1.0000 0.76171  0.16834  0.76651  Biso   1.000  O
  O5       1.0000 0.16834  0.76171  0.23349  Biso   1.000  O
  O6       1.0000 0.83166  0.23829  0.23349  Biso   1.000  O
  O7       1.0000 0.26171  0.33166  0.73349  Biso   1.000  O
  O8       1.0000 0.73829  0.66834  0.73349  Biso   1.000  O
  O9       1.0000 0.66834  0.73829  0.73349  Biso   1.000  O
  O10      1.0000 0.33166  0.26171  0.73349  Biso   1.000  O
  O11      1.0000 0.76171  0.16834  0.23349  Biso   1.000  O
  O12      1.0000 0.23829  0.83166  0.23349  Biso   1.000  O
  O13      1.0000 0.83166  0.23829  0.76651  Biso   1.000  O
  O14      1.0000 0.16834  0.76171  0.76651  Biso   1.000  O
  O15      1.0000 0.73829  0.66834  0.26651  Biso   1.000  O
  O16      1.0000 0.26171  0.33166  0.26651  Biso   1.000  O
  O17      1.0000 0.37001  0.30185  0.32220  Biso   1.000  O
  O18      1.0000 0.62999  0.69815  0.32220  Biso   1.000  O
  O19      1.0000 0.19815  0.87001  0.82220  Biso   1.000  O
  O20      1.0000 0.80185  0.12999  0.82220  Biso   1.000  O
  O21      1.0000 0.12999  0.80185  0.17780  Biso   1.000  O
  O22      1.0000 0.87001  0.19815  0.17780  Biso   1.000  O
  O23      1.0000 0.30185  0.37001  0.67780  Biso   1.000  O
  O24      1.0000 0.69815  0.62999  0.67780  Biso   1.000  O
  O25      1.0000 0.62999  0.69815  0.67780  Biso   1.000  O
  O26      1.0000 0.37001  0.30185  0.67780  Biso   1.000  O
  O27      1.0000 0.80185  0.12999  0.17780  Biso   1.000  O
  O28      1.0000 0.19815  0.87001  0.17780  Biso   1.000  O
  O29      1.0000 0.87001  0.19815  0.82220  Biso   1.000  O
  O30      1.0000 0.12999  0.80185  0.82220  Biso   1.000  O
  O31      1.0000 0.69815  0.62999  0.32220  Biso   1.000  O
  O32      1.0000 0.30185  0.37001  0.32220  Biso   1.000  O
  O33      1.0000 0.44716  0.21852  0.45096  Biso   1.000  O
  O34      1.0000 0.55284  0.78148  0.45096  Biso   1.000  O
  O35      1.0000 0.28148  0.94716  0.95096  Biso   1.000  O
  O36      1.0000 0.71852  0.05284  0.95096  Biso   1.000  O
  O37      1.0000 0.05284  0.71852  0.04904  Biso   1.000  O
  O38      1.0000 0.94716  0.28148  0.04904  Biso   1.000  O
  O39      1.0000 0.21852  0.44716  0.54904  Biso   1.000  O
  O40      1.0000 0.78148  0.55284  0.54904  Biso   1.000  O
  O41      1.0000 0.55284  0.78148  0.54904  Biso   1.000  O
  O42      1.0000 0.44716  0.21852  0.54904  Biso   1.000  O
  O43      1.0000 0.71852  0.05284  0.04904  Biso   1.000  O
  O44      1.0000 0.28148  0.94716  0.04904  Biso   1.000  O
  O45      1.0000 0.94716  0.28148  0.95096  Biso   1.000  O
  O46      1.0000 0.05284  0.71852  0.95096  Biso   1.000  O
  O47      1.0000 0.78148  0.55284  0.45096  Biso   1.000  O
  O48      1.0000 0.21852  0.44716  0.45096  Biso   1.000  O
  O49      1.0000 0.44622  0.13964  0.45116  Biso   1.000  O
  O50      1.0000 0.55378  0.86036  0.45116  Biso   1.000  O
  O51      1.0000 0.36036  0.94622  0.95116  Biso   1.000  O
  O52      1.0000 0.63964  0.05378  0.95116  Biso   1.000  O
  O53      1.0000 0.05378  0.63964  0.04884  Biso   1.000  O
  O54      1.0000 0.94622  0.36036  0.04884  Biso   1.000  O
  O55      1.0000 0.13964  0.44622  0.54884  Biso   1.000  O
  O56      1.0000 0.86036  0.55378  0.54884  Biso   1.000  O
  O57      1.0000 0.55378  0.86036  0.54884  Biso   1.000  O
  O58      1.0000 0.44622  0.13964  0.54884  Biso   1.000  O
  O59      1.0000 0.63964  0.05378  0.04884  Biso   1.000  O
  O60      1.0000 0.36036  0.94622  0.04884  Biso   1.000  O
  O61      1.0000 0.94622  0.36036  0.95116  Biso   1.000  O
  O62      1.0000 0.05378  0.63964  0.95116  Biso   1.000  O
  O63      1.0000 0.86036  0.55378  0.45116  Biso   1.000  O
  O64      1.0000 0.13964  0.44622  0.45116  Biso   1.000  O
  O65      1.0000 0.45723  0.86615  0.45176  Biso   1.000  O
  O66      1.0000 0.54277  0.13385  0.45176  Biso   1.000  O
  O67      1.0000 0.63385  0.95723  0.95176  Biso   1.000  O
  O68      1.0000 0.36615  0.04277  0.95176  Biso   1.000  O
  O69      1.0000 0.04277  0.36615  0.04824  Biso   1.000  O
  O70      1.0000 0.95723  0.63385  0.04824  Biso   1.000  O
  O71      1.0000 0.86615  0.45723  0.54824  Biso   1.000  O
  O72      1.0000 0.13385  0.54277  0.54824  Biso   1.000  O
  O73      1.0000 0.54277  0.13385  0.54824  Biso   1.000  O
  O74      1.0000 0.45723  0.86615  0.54824  Biso   1.000  O
  O75      1.0000 0.36615  0.04277  0.04824  Biso   1.000  O
  O76      1.0000 0.63385  0.95723  0.04824  Biso   1.000  O
  O77      1.0000 0.95723  0.63385  0.95176  Biso   1.000  O
  O78      1.0000 0.04277  0.36615  0.95176  Biso   1.000  O
  O79      1.0000 0.13385  0.54277  0.45176  Biso   1.000  O
  O80      1.0000 0.86615  0.45723  0.45176  Biso   1.000  O
  O81      1.0000 0.45644  0.78740  0.45132  Biso   1.000  O
  O82      1.0000 0.54356  0.21260  0.45132  Biso   1.000  O
  O83      1.0000 0.71260  0.95644  0.95132  Biso   1.000  O
  O84      1.0000 0.28740  0.04356  0.95132  Biso   1.000  O
  O85      1.0000 0.04356  0.28740  0.04868  Biso   1.000  O
  O86      1.0000 0.95644  0.71260  0.04868  Biso   1.000  O
  O87      1.0000 0.78740  0.45644  0.54868  Biso   1.000  O
  O88      1.0000 0.21260  0.54356  0.54868  Biso   1.000  O
  O89      1.0000 0.54356  0.21260  0.54868  Biso   1.000  O
  O90      1.0000 0.45644  0.78740  0.54868  Biso   1.000  O
  O91      1.0000 0.28740  0.04356  0.04868  Biso   1.000  O
  O92      1.0000 0.71260  0.95644  0.04868  Biso   1.000  O
  O93      1.0000 0.95644  0.71260  0.95132  Biso   1.000  O
  O94      1.0000 0.04356  0.28740  0.95132  Biso   1.000  O
  O95      1.0000 0.21260  0.54356  0.45132  Biso   1.000  O
  O96      1.0000 0.78740  0.45644  0.45132  Biso   1.000  O
  O97      1.0000 0.36698  0.70238  0.33329  Biso   1.000  O
  O98      1.0000 0.63302  0.29762  0.33329  Biso   1.000  O
  O99      1.0000 0.79762  0.86698  0.83329  Biso   1.000  O
  O100     1.0000 0.20238  0.13302  0.83329  Biso   1.000  O
  O101     1.0000 0.13302  0.20238  0.16671  Biso   1.000  O
  O102     1.0000 0.86698  0.79762  0.16671  Biso   1.000  O
  O103     1.0000 0.70238  0.36698  0.66671  Biso   1.000  O
  O104     1.0000 0.29762  0.63302  0.66671  Biso   1.000  O
  O105     1.0000 0.63302  0.29762  0.66671  Biso   1.000  O
  O106     1.0000 0.36698  0.70238  0.66671  Biso   1.000  O
  O107     1.0000 0.20238  0.13302  0.16671  Biso   1.000  O
  O108     1.0000 0.79762  0.86698  0.16671  Biso   1.000  O
  O109     1.0000 0.86698  0.79762  0.83329  Biso   1.000  O
  O110     1.0000 0.13302  0.20238  0.83329  Biso   1.000  O
  O111     1.0000 0.29762  0.63302  0.33329  Biso   1.000  O
  O112     1.0000 0.70238  0.36698  0.33329  Biso   1.000  O
  O113     1.0000 0.32579  0.74309  0.28001  Biso   1.000  O
  O114     1.0000 0.67421  0.25691  0.28001  Biso   1.000  O
  O115     1.0000 0.75691  0.82579  0.78001  Biso   1.000  O
  O116     1.0000 0.24309  0.17421  0.78001  Biso   1.000  O
  O117     1.0000 0.17421  0.24309  0.21999  Biso   1.000  O
  O118     1.0000 0.82579  0.75691  0.21999  Biso   1.000  O
  O119     1.0000 0.74309  0.32579  0.71999  Biso   1.000  O
  O120     1.0000 0.25691  0.67421  0.71999  Biso   1.000  O
  O121     1.0000 0.67421  0.25691  0.71999  Biso   1.000  O
  O122     1.0000 0.32579  0.74309  0.71999  Biso   1.000  O
  O123     1.0000 0.24309  0.17421  0.21999  Biso   1.000  O
  O124     1.0000 0.75691  0.82579  0.21999  Biso   1.000  O
  O125     1.0000 0.82579  0.75691  0.78001  Biso   1.000  O
  O126     1.0000 0.17421  0.24309  0.78001  Biso   1.000  O
  O127     1.0000 0.25691  0.67421  0.28001  Biso   1.000  O
  O128     1.0000 0.74309  0.32579  0.28001  Biso   1.000  O
  O129     1.0000 0.41426  0.65456  0.26384  Biso   1.000  O
  O130     1.0000 0.58574  0.34544  0.26384  Biso   1.000  O
  O131     1.0000 0.84544  0.91426  0.76384  Biso   1.000  O
  O132     1.0000 0.15456  0.08574  0.76384  Biso   1.000  O
  O133     1.0000 0.08574  0.15456  0.23616  Biso   1.000  O
  O134     1.0000 0.91426  0.84544  0.23616  Biso   1.000  O
  O135     1.0000 0.65456  0.41426  0.73616  Biso   1.000  O
  O136     1.0000 0.34544  0.58574  0.73616  Biso   1.000  O
  O137     1.0000 0.58574  0.34544  0.73616  Biso   1.000  O
  O138     1.0000 0.41426  0.65456  0.73616  Biso   1.000  O
  O139     1.0000 0.15456  0.08574  0.23616  Biso   1.000  O
  O140     1.0000 0.84544  0.91426  0.23616  Biso   1.000  O
  O141     1.0000 0.91426  0.84544  0.76384  Biso   1.000  O
  O142     1.0000 0.08574  0.15456  0.76384  Biso   1.000  O
  O143     1.0000 0.34544  0.58574  0.26384  Biso   1.000  O
  O144     1.0000 0.65456  0.41426  0.26384  Biso   1.000  O
  O145     1.0000 0.37291  0.69487  0.21041  Biso   1.000  O
  O146     1.0000 0.62709  0.30513  0.21041  Biso   1.000  O
  O147     1.0000 0.80513  0.87291  0.71041  Biso   1.000  O
  O148     1.0000 0.19487  0.12709  0.71041  Biso   1.000  O
  O149     1.0000 0.12709  0.19487  0.28959  Biso   1.000  O
  O150     1.0000 0.87291  0.80513  0.28959  Biso   1.000  O
  O151     1.0000 0.69487  0.37291  0.78959  Biso   1.000  O
  O152     1.0000 0.30513  0.62709  0.78959  Biso   1.000  O
  O153     1.0000 0.62709  0.30513  0.78959  Biso   1.000  O
  O154     1.0000 0.37291  0.69487  0.78959  Biso   1.000  O
  O155     1.0000 0.19487  0.12709  0.28959  Biso   1.000  O
  O156     1.0000 0.80513  0.87291  0.28959  Biso   1.000  O
  O157     1.0000 0.87291  0.80513  0.71041  Biso   1.000  O
  O158     1.0000 0.12709  0.19487  0.71041  Biso   1.000  O
  O159     1.0000 0.30513  0.62709  0.21041  Biso   1.000  O
  O160     1.0000 0.69487  0.37291  0.21041  Biso   1.000  O
  O161     1.0000 0.58370  0.65187  0.25176  Biso   1.000  O
  O162     1.0000 0.41630  0.34813  0.25176  Biso   1.000  O
  O163     1.0000 0.84813  0.08370  0.75176  Biso   1.000  O
  O164     1.0000 0.15187  0.91630  0.75176  Biso   1.000  O
  O165     1.0000 0.91630  0.15187  0.24824  Biso   1.000  O
  O166     1.0000 0.08370  0.84813  0.24824  Biso   1.000  O
  O167     1.0000 0.65187  0.58370  0.74824  Biso   1.000  O
  O168     1.0000 0.34813  0.41630  0.74824  Biso   1.000  O
  O169     1.0000 0.41630  0.34813  0.74824  Biso   1.000  O
  O170     1.0000 0.58370  0.65187  0.74824  Biso   1.000  O
  O171     1.0000 0.15187  0.91630  0.24824  Biso   1.000  O
  O172     1.0000 0.84813  0.08370  0.24824  Biso   1.000  O
  O173     1.0000 0.08370  0.84813  0.75176  Biso   1.000  O
  O174     1.0000 0.91630  0.15187  0.75176  Biso   1.000  O
  O175     1.0000 0.34813  0.41630  0.25176  Biso   1.000  O
  O176     1.0000 0.65187  0.58370  0.25176  Biso   1.000  O
  O177     1.0000 0.62167  0.69034  0.19488  Biso   1.000  O
  O178     1.0000 0.37833  0.30966  0.19488  Biso   1.000  O
  O179     1.0000 0.80966  0.12167  0.69488  Biso   1.000  O
  O180     1.0000 0.19034  0.87833  0.69488  Biso   1.000  O
  O181     1.0000 0.87833  0.19034  0.30512  Biso   1.000  O
  O182     1.0000 0.12167  0.80966  0.30512  Biso   1.000  O
  O183     1.0000 0.69034  0.62167  0.80512  Biso   1.000  O
  O184     1.0000 0.30966  0.37833  0.80512  Biso   1.000  O
  O185     1.0000 0.37833  0.30966  0.80512  Biso   1.000  O
  O186     1.0000 0.62167  0.69034  0.80512  Biso   1.000  O
  O187     1.0000 0.19034  0.87833  0.30512  Biso   1.000  O
  O188     1.0000 0.80966  0.12167  0.30512  Biso   1.000  O
  O189     1.0000 0.12167  0.80966  0.69488  Biso   1.000  O
  O190     1.0000 0.87833  0.19034  0.69488  Biso   1.000  O
  O191     1.0000 0.30966  0.37833  0.19488  Biso   1.000  O
  O192     1.0000 0.69034  0.62167  0.19488  Biso   1.000  O
  O193     1.0000 0.40113  0.40113  0.34198  Biso   1.000  O
  O194     1.0000 0.59887  0.59887  0.34198  Biso   1.000  O
  O195     1.0000 0.09887  0.90113  0.84198  Biso   1.000  O
  O196     1.0000 0.90113  0.09887  0.84198  Biso   1.000  O
  O197     1.0000 0.09887  0.90113  0.15802  Biso   1.000  O
  O198     1.0000 0.90113  0.09887  0.15802  Biso   1.000  O
  O199     1.0000 0.40113  0.40113  0.65802  Biso   1.000  O
  O200     1.0000 0.59887  0.59887  0.65802  Biso   1.000  O
  O201     1.0000 0.27556  0.27556  0.17808  Biso   1.000  O
  O202     1.0000 0.72444  0.72444  0.17808  Biso   1.000  O
  O203     1.0000 0.22444  0.77556  0.67808  Biso   1.000  O
  O204     1.0000 0.77556  0.22444  0.67808  Biso   1.000  O
  O205     1.0000 0.22444  0.77556  0.32192  Biso   1.000  O
  O206     1.0000 0.77556  0.22444  0.32192  Biso   1.000  O
  O207     1.0000 0.27556  0.27556  0.82192  Biso   1.000  O
  O208     1.0000 0.72444  0.72444  0.82192  Biso   1.000  O
  O209     1.0000 0.51746  0.94350  0.50000  Biso   1.000  O
  O210     1.0000 0.48254  0.05650  0.50000  Biso   1.000  O
  O211     1.0000 0.55650  0.01746  0.00000  Biso   1.000  O
  O212     1.0000 0.44350  0.98254  0.00000  Biso   1.000  O
  O213     1.0000 0.98254  0.44350  0.00000  Biso   1.000  O
  O214     1.0000 0.01746  0.55650  0.00000  Biso   1.000  O
  O215     1.0000 0.94350  0.51746  0.50000  Biso   1.000  O
  O216     1.0000 0.05650  0.48254  0.50000  Biso   1.000  O
  O217     1.0000 0.49837  0.70254  0.50000  Biso   1.000  O
  O218     1.0000 0.50163  0.29746  0.50000  Biso   1.000  O
  O219     1.0000 0.79746  0.99837  0.00000  Biso   1.000  O
  O220     1.0000 0.20254  0.00163  0.00000  Biso   1.000  O
  O221     1.0000 0.00163  0.20254  0.00000  Biso   1.000  O
  O222     1.0000 0.99837  0.79746  0.00000  Biso   1.000  O
  O223     1.0000 0.70254  0.49837  0.50000  Biso   1.000  O
  O224     1.0000 0.29746  0.50163  0.50000  Biso   1.000  O
  O225     1.0000 0.39757  0.60243  0.35520  Biso   1.000  O
  O226     1.0000 0.60243  0.39757  0.35520  Biso   1.000  O
  O227     1.0000 0.89757  0.89757  0.85520  Biso   1.000  O
  O228     1.0000 0.10243  0.10243  0.85520  Biso   1.000  O
  O229     1.0000 0.10243  0.10243  0.14480  Biso   1.000  O
  O230     1.0000 0.89757  0.89757  0.14480  Biso   1.000  O
  O231     1.0000 0.60243  0.39757  0.64480  Biso   1.000  O
  O232     1.0000 0.39757  0.60243  0.64480  Biso   1.000  O
  O233     1.0000 0.27405  0.72595  0.18702  Biso   1.000  O
  O234     1.0000 0.72595  0.27405  0.18702  Biso   1.000  O
  O235     1.0000 0.77405  0.77405  0.68702  Biso   1.000  O
  O236     1.0000 0.22595  0.22595  0.68702  Biso   1.000  O
  O237     1.0000 0.22595  0.22595  0.31298  Biso   1.000  O
  O238     1.0000 0.77405  0.77405  0.31298  Biso   1.000  O
  O239     1.0000 0.72595  0.27405  0.81298  Biso   1.000  O
  O240     1.0000 0.27405  0.72595  0.81298  Biso   1.000  O
  C1       1.0000 0.34659  0.08825  0.31280  Biso   1.000  C
  C2       1.0000 0.65341  0.91175  0.31280  Biso   1.000  C
  C3       1.0000 0.41175  0.84659  0.81280  Biso   1.000  C
  C4       1.0000 0.58825  0.15341  0.81280  Biso   1.000  C
  C5       1.0000 0.15341  0.58825  0.18720  Biso   1.000  C
  C6       1.0000 0.84659  0.41175  0.18720  Biso   1.000  C
  C7       1.0000 0.08825  0.34659  0.68720  Biso   1.000  C
  C8       1.0000 0.91175  0.65341  0.68720  Biso   1.000  C
  C9       1.0000 0.65341  0.91175  0.68720  Biso   1.000  C
  C10      1.0000 0.34659  0.08825  0.68720  Biso   1.000  C
  C11      1.0000 0.58825  0.15341  0.18720  Biso   1.000  C
  C12      1.0000 0.41175  0.84659  0.18720  Biso   1.000  C
  C13      1.0000 0.84659  0.41175  0.81280  Biso   1.000  C
  C14      1.0000 0.15341  0.58825  0.81280  Biso   1.000  C
  C15      1.0000 0.91175  0.65341  0.31280  Biso   1.000  C
  C16      1.0000 0.08825  0.34659  0.31280  Biso   1.000  C
  C17      1.0000 0.36627  0.04598  0.32727  Biso   1.000  C
  C18      1.0000 0.63373  0.95402  0.32727  Biso   1.000  C
  C19      1.0000 0.45402  0.86627  0.82727  Biso   1.000  C
  C20      1.0000 0.54598  0.13373  0.82727  Biso   1.000  C
  C21      1.0000 0.13373  0.54598  0.17273  Biso   1.000  C
  C22      1.0000 0.86627  0.45402  0.17273  Biso   1.000  C
  C23      1.0000 0.04598  0.36627  0.67273  Biso   1.000  C
  C24      1.0000 0.95402  0.63373  0.67273  Biso   1.000  C
  C25      1.0000 0.63373  0.95402  0.67273  Biso   1.000  C
  C26      1.0000 0.36627  0.04598  0.67273  Biso   1.000  C
  C27      1.0000 0.54598  0.13373  0.17273  Biso   1.000  C
  C28      1.0000 0.45402  0.86627  0.17273  Biso   1.000  C
  C29      1.0000 0.86627  0.45402  0.82727  Biso   1.000  C
  C30      1.0000 0.13373  0.54598  0.82727  Biso   1.000  C
  C31      1.0000 0.95402  0.63373  0.32727  Biso   1.000  C
  C32      1.0000 0.04598  0.36627  0.32727  Biso   1.000  C
  H1       1.0000 0.39210  0.04650  0.34730  Biso   1.000  H
  H2       1.0000 0.60790  0.95350  0.34730  Biso   1.000  H
  H3       1.0000 0.45350  0.89210  0.84730  Biso   1.000  H
  H4       1.0000 0.54650  0.10790  0.84730  Biso   1.000  H
  H5       1.0000 0.10790  0.54650  0.15270  Biso   1.000  H
  H6       1.0000 0.89210  0.45350  0.15270  Biso   1.000  H
  H7       1.0000 0.04650  0.39210  0.65270  Biso   1.000  H
  H8       1.0000 0.95350  0.60790  0.65270  Biso   1.000  H
  H9       1.0000 0.60790  0.95350  0.65270  Biso   1.000  H
  H10      1.0000 0.39210  0.04650  0.65270  Biso   1.000  H
  H11      1.0000 0.54650  0.10790  0.15270  Biso   1.000  H
  H12      1.0000 0.45350  0.89210  0.15270  Biso   1.000  H
  H13      1.0000 0.89210  0.45350  0.84730  Biso   1.000  H
  H14      1.0000 0.10790  0.54650  0.84730  Biso   1.000  H
  H15      1.0000 0.95350  0.60790  0.34730  Biso   1.000  H
  H16      1.0000 0.04650  0.39210  0.34730  Biso   1.000  H
  C33      1.0000 0.34812  0.00188  0.31230  Biso   1.000  C
  C34      1.0000 0.65188  0.99812  0.31230  Biso   1.000  C
  C35      1.0000 0.49812  0.84812  0.81230  Biso   1.000  C
  C36      1.0000 0.50188  0.15188  0.81230  Biso   1.000  C
  C37      1.0000 0.15188  0.50188  0.18770  Biso   1.000  C
  C38      1.0000 0.84812  0.49812  0.18770  Biso   1.000  C
  C39      1.0000 0.00188  0.34812  0.68770  Biso   1.000  C
  C40      1.0000 0.99812  0.65188  0.68770  Biso   1.000  C
  C41      1.0000 0.65188  0.99812  0.68770  Biso   1.000  C
  C42      1.0000 0.34812  0.00188  0.68770  Biso   1.000  C
  C43      1.0000 0.50188  0.15188  0.18770  Biso   1.000  C
  C44      1.0000 0.49812  0.84812  0.18770  Biso   1.000  C
  C45      1.0000 0.84812  0.49812  0.81230  Biso   1.000  C
  C46      1.0000 0.15188  0.50188  0.81230  Biso   1.000  C
  C47      1.0000 0.99812  0.65188  0.31230  Biso   1.000  C
  C48      1.0000 0.00188  0.34812  0.31230  Biso   1.000  C
  C49      1.0000 0.36439  0.95886  0.33146  Biso   1.000  C
  C50      1.0000 0.63561  0.04114  0.33146  Biso   1.000  C
  C51      1.0000 0.54114  0.86439  0.83146  Biso   1.000  C
  C52      1.0000 0.45886  0.13561  0.83146  Biso   1.000  C
  C53      1.0000 0.13561  0.45886  0.16854  Biso   1.000  C
  C54      1.0000 0.86439  0.54114  0.16854  Biso   1.000  C
  C55      1.0000 0.95886  0.36439  0.66854  Biso   1.000  C
  C56      1.0000 0.04114  0.63561  0.66854  Biso   1.000  C
  C57      1.0000 0.63561  0.04114  0.66854  Biso   1.000  C
  C58      1.0000 0.36439  0.95886  0.66854  Biso   1.000  C
  C59      1.0000 0.45886  0.13561  0.16854  Biso   1.000  C
  C60      1.0000 0.54114  0.86439  0.16854  Biso   1.000  C
  C61      1.0000 0.86439  0.54114  0.83146  Biso   1.000  C
  C62      1.0000 0.13561  0.45886  0.83146  Biso   1.000  C
  C63      1.0000 0.04114  0.63561  0.33146  Biso   1.000  C
  C64      1.0000 0.95886  0.36439  0.33146  Biso   1.000  C
  H17      1.0000 0.38950  0.95940  0.35230  Biso   1.000  H
  H18      1.0000 0.61050  0.04060  0.35230  Biso   1.000  H
  H19      1.0000 0.54060  0.88950  0.85230  Biso   1.000  H
  H20      1.0000 0.45940  0.11050  0.85230  Biso   1.000  H
  H21      1.0000 0.11050  0.45940  0.14770  Biso   1.000  H
  H22      1.0000 0.88950  0.54060  0.14770  Biso   1.000  H
  H23      1.0000 0.95940  0.38950  0.64770  Biso   1.000  H
  H24      1.0000 0.04060  0.61050  0.64770  Biso   1.000  H
  H25      1.0000 0.61050  0.04060  0.64770  Biso   1.000  H
  H26      1.0000 0.38950  0.95940  0.64770  Biso   1.000  H
  H27      1.0000 0.45940  0.11050  0.14770  Biso   1.000  H
  H28      1.0000 0.54060  0.88950  0.14770  Biso   1.000  H
  H29      1.0000 0.88950  0.54060  0.85230  Biso   1.000  H
  H30      1.0000 0.11050  0.45940  0.85230  Biso   1.000  H
  H31      1.0000 0.04060  0.61050  0.35230  Biso   1.000  H
  H32      1.0000 0.95940  0.38950  0.35230  Biso   1.000  H
  C65      1.0000 0.34419  0.91617  0.32028  Biso   1.000  C
  C66      1.0000 0.65581  0.08383  0.32028  Biso   1.000  C
  C67      1.0000 0.58383  0.84419  0.82028  Biso   1.000  C
  C68      1.0000 0.41617  0.15581  0.82028  Biso   1.000  C
  C69      1.0000 0.15581  0.41617  0.17972  Biso   1.000  C
  C70      1.0000 0.84419  0.58383  0.17972  Biso   1.000  C
  C71      1.0000 0.91617  0.34419  0.67972  Biso   1.000  C
  C72      1.0000 0.08383  0.65581  0.67972  Biso   1.000  C
  C73      1.0000 0.65581  0.08383  0.67972  Biso   1.000  C
  C74      1.0000 0.34419  0.91617  0.67972  Biso   1.000  C
  C75      1.0000 0.41617  0.15581  0.17972  Biso   1.000  C
  C76      1.0000 0.58383  0.84419  0.17972  Biso   1.000  C
  C77      1.0000 0.84419  0.58383  0.82028  Biso   1.000  C
  C78      1.0000 0.15581  0.41617  0.82028  Biso   1.000  C
  C79      1.0000 0.08383  0.65581  0.32028  Biso   1.000  C
  C80      1.0000 0.91617  0.34419  0.32028  Biso   1.000  C
  C81      1.0000 0.30777  0.91609  0.28666  Biso   1.000  C
  C82      1.0000 0.69223  0.08391  0.28666  Biso   1.000  C
  C83      1.0000 0.58391  0.80777  0.78666  Biso   1.000  C
  C84      1.0000 0.41609  0.19223  0.78666  Biso   1.000  C
  C85      1.0000 0.19223  0.41609  0.21334  Biso   1.000  C
  C86      1.0000 0.80777  0.58391  0.21334  Biso   1.000  C
  C87      1.0000 0.91609  0.30777  0.71334  Biso   1.000  C
  C88      1.0000 0.08391  0.69223  0.71334  Biso   1.000  C
  C89      1.0000 0.69223  0.08391  0.71334  Biso   1.000  C
  C90      1.0000 0.30777  0.91609  0.71334  Biso   1.000  C
  C91      1.0000 0.41609  0.19223  0.21334  Biso   1.000  C
  C92      1.0000 0.58391  0.80777  0.21334  Biso   1.000  C
  C93      1.0000 0.80777  0.58391  0.78666  Biso   1.000  C
  C94      1.0000 0.19223  0.41609  0.78666  Biso   1.000  C
  C95      1.0000 0.08391  0.69223  0.28666  Biso   1.000  C
  C96      1.0000 0.91609  0.30777  0.28666  Biso   1.000  C
  H33      1.0000 0.29380  0.88760  0.27850  Biso   1.000  H
  H34      1.0000 0.70620  0.11240  0.27850  Biso   1.000  H
  H35      1.0000 0.61240  0.79380  0.77850  Biso   1.000  H
  H36      1.0000 0.38760  0.20620  0.77850  Biso   1.000  H
  H37      1.0000 0.20620  0.38760  0.22150  Biso   1.000  H
  H38      1.0000 0.79380  0.61240  0.22150  Biso   1.000  H
  H39      1.0000 0.88760  0.29380  0.72150  Biso   1.000  H
  H40      1.0000 0.11240  0.70620  0.72150  Biso   1.000  H
  H41      1.0000 0.70620  0.11240  0.72150  Biso   1.000  H
  H42      1.0000 0.29380  0.88760  0.72150  Biso   1.000  H
  H43      1.0000 0.38760  0.20620  0.22150  Biso   1.000  H
  H44      1.0000 0.61240  0.79380  0.22150  Biso   1.000  H
  H45      1.0000 0.79380  0.61240  0.77850  Biso   1.000  H
  H46      1.0000 0.20620  0.38760  0.77850  Biso   1.000  H
  H47      1.0000 0.11240  0.70620  0.27850  Biso   1.000  H
  H48      1.0000 0.88760  0.29380  0.27850  Biso   1.000  H
  C97      1.0000 0.29236  0.95682  0.26557  Biso   1.000  C
  C98      1.0000 0.70764  0.04318  0.26557  Biso   1.000  C
  C99      1.0000 0.54318  0.79236  0.76557  Biso   1.000  C
  C100     1.0000 0.45682  0.20764  0.76557  Biso   1.000  C
  C101     1.0000 0.20764  0.45682  0.23443  Biso   1.000  C
  C102     1.0000 0.79236  0.54318  0.23443  Biso   1.000  C
  C103     1.0000 0.95682  0.29236  0.73443  Biso   1.000  C
  C104     1.0000 0.04318  0.70764  0.73443  Biso   1.000  C
  C105     1.0000 0.70764  0.04318  0.73443  Biso   1.000  C
  C106     1.0000 0.29236  0.95682  0.73443  Biso   1.000  C
  C107     1.0000 0.45682  0.20764  0.23443  Biso   1.000  C
  C108     1.0000 0.54318  0.79236  0.23443  Biso   1.000  C
  C109     1.0000 0.79236  0.54318  0.76557  Biso   1.000  C
  C110     1.0000 0.20764  0.45682  0.76557  Biso   1.000  C
  C111     1.0000 0.04318  0.70764  0.26557  Biso   1.000  C
  C112     1.0000 0.95682  0.29236  0.26557  Biso   1.000  C
  H49      1.0000 0.26910  0.95530  0.24270  Biso   1.000  H
  H50      1.0000 0.73090  0.04470  0.24270  Biso   1.000  H
  H51      1.0000 0.54470  0.76910  0.74270  Biso   1.000  H
  H52      1.0000 0.45530  0.23090  0.74270  Biso   1.000  H
  H53      1.0000 0.23090  0.45530  0.25730  Biso   1.000  H
  H54      1.0000 0.76910  0.54470  0.25730  Biso   1.000  H
  H55      1.0000 0.95530  0.26910  0.75730  Biso   1.000  H
  H56      1.0000 0.04470  0.73090  0.75730  Biso   1.000  H
  H57      1.0000 0.73090  0.04470  0.75730  Biso   1.000  H
  H58      1.0000 0.26910  0.95530  0.75730  Biso   1.000  H
  H59      1.0000 0.45530  0.23090  0.25730  Biso   1.000  H
  H60      1.0000 0.54470  0.76910  0.25730  Biso   1.000  H
  H61      1.0000 0.76910  0.54470  0.74270  Biso   1.000  H
  H62      1.0000 0.23090  0.45530  0.74270  Biso   1.000  H
  H63      1.0000 0.04470  0.73090  0.24270  Biso   1.000  H
  H64      1.0000 0.95530  0.26910  0.24270  Biso   1.000  H
  C113     1.0000 0.31162  0.00098  0.27846  Biso   1.000  C
  C114     1.0000 0.68838  0.99902  0.27846  Biso   1.000  C
  C115     1.0000 0.49902  0.81162  0.77846  Biso   1.000  C
  C116     1.0000 0.50098  0.18838  0.77846  Biso   1.000  C
  C117     1.0000 0.18838  0.50098  0.22154  Biso   1.000  C
  C118     1.0000 0.81162  0.49902  0.22154  Biso   1.000  C
  C119     1.0000 0.00098  0.31162  0.72154  Biso   1.000  C
  C120     1.0000 0.99902  0.68838  0.72154  Biso   1.000  C
  C121     1.0000 0.68838  0.99902  0.72154  Biso   1.000  C
  C122     1.0000 0.31162  0.00098  0.72154  Biso   1.000  C
  C123     1.0000 0.50098  0.18838  0.22154  Biso   1.000  C
  C124     1.0000 0.49902  0.81162  0.22154  Biso   1.000  C
  C125     1.0000 0.81162  0.49902  0.77846  Biso   1.000  C
  C126     1.0000 0.18838  0.50098  0.77846  Biso   1.000  C
  C127     1.0000 0.99902  0.68838  0.27846  Biso   1.000  C
  C128     1.0000 0.00098  0.31162  0.27846  Biso   1.000  C
  C129     1.0000 0.29490  0.04457  0.26076  Biso   1.000  C
  C130     1.0000 0.70510  0.95543  0.26076  Biso   1.000  C
  C131     1.0000 0.45543  0.79490  0.76076  Biso   1.000  C
  C132     1.0000 0.54457  0.20510  0.76076  Biso   1.000  C
  C133     1.0000 0.20510  0.54457  0.23924  Biso   1.000  C
  C134     1.0000 0.79490  0.45543  0.23924  Biso   1.000  C
  C135     1.0000 0.04457  0.29490  0.73924  Biso   1.000  C
  C136     1.0000 0.95543  0.70510  0.73924  Biso   1.000  C
  C137     1.0000 0.70510  0.95543  0.73924  Biso   1.000  C
  C138     1.0000 0.29490  0.04457  0.73924  Biso   1.000  C
  C139     1.0000 0.54457  0.20510  0.23924  Biso   1.000  C
  C140     1.0000 0.45543  0.79490  0.23924  Biso   1.000  C
  C141     1.0000 0.79490  0.45543  0.76076  Biso   1.000  C
  C142     1.0000 0.20510  0.54457  0.76076  Biso   1.000  C
  C143     1.0000 0.95543  0.70510  0.26076  Biso   1.000  C
  C144     1.0000 0.04457  0.29490  0.26076  Biso   1.000  C
  H65      1.0000 0.27270  0.04470  0.23680  Biso   1.000  H
  H66      1.0000 0.72730  0.95530  0.23680  Biso   1.000  H
  H67      1.0000 0.45530  0.77270  0.73680  Biso   1.000  H
  H68      1.0000 0.54470  0.22730  0.73680  Biso   1.000  H
  H69      1.0000 0.22730  0.54470  0.26320  Biso   1.000  H
  H70      1.0000 0.77270  0.45530  0.26320  Biso   1.000  H
  H71      1.0000 0.04470  0.27270  0.76320  Biso   1.000  H
  H72      1.0000 0.95530  0.72730  0.76320  Biso   1.000  H
  H73      1.0000 0.72730  0.95530  0.76320  Biso   1.000  H
  H74      1.0000 0.27270  0.04470  0.76320  Biso   1.000  H
  H75      1.0000 0.54470  0.22730  0.26320  Biso   1.000  H
  H76      1.0000 0.45530  0.77270  0.26320  Biso   1.000  H
  H77      1.0000 0.77270  0.45530  0.73680  Biso   1.000  H
  H78      1.0000 0.22730  0.54470  0.73680  Biso   1.000  H
  H79      1.0000 0.95530  0.72730  0.23680  Biso   1.000  H
  H80      1.0000 0.04470  0.27270  0.23680  Biso   1.000  H
  C145     1.0000 0.31085  0.08623  0.27828  Biso   1.000  C
  C146     1.0000 0.68915  0.91377  0.27828  Biso   1.000  C
  C147     1.0000 0.41377  0.81085  0.77828  Biso   1.000  C
  C148     1.0000 0.58623  0.18915  0.77828  Biso   1.000  C
  C149     1.0000 0.18915  0.58623  0.22172  Biso   1.000  C
  C150     1.0000 0.81085  0.41377  0.22172  Biso   1.000  C
  C151     1.0000 0.08623  0.31085  0.72172  Biso   1.000  C
  C152     1.0000 0.91377  0.68915  0.72172  Biso   1.000  C
  C153     1.0000 0.68915  0.91377  0.72172  Biso   1.000  C
  C154     1.0000 0.31085  0.08623  0.72172  Biso   1.000  C
  C155     1.0000 0.58623  0.18915  0.22172  Biso   1.000  C
  C156     1.0000 0.41377  0.81085  0.22172  Biso   1.000  C
  C157     1.0000 0.81085  0.41377  0.77828  Biso   1.000  C
  C158     1.0000 0.18915  0.58623  0.77828  Biso   1.000  C
  C159     1.0000 0.91377  0.68915  0.27828  Biso   1.000  C
  C160     1.0000 0.08623  0.31085  0.27828  Biso   1.000  C
  H81      1.0000 0.29790  0.11420  0.26730  Biso   1.000  H
  H82      1.0000 0.70210  0.88580  0.26730  Biso   1.000  H
  H83      1.0000 0.38580  0.79790  0.76730  Biso   1.000  H
  H84      1.0000 0.61420  0.20210  0.76730  Biso   1.000  H
  H85      1.0000 0.20210  0.61420  0.23270  Biso   1.000  H
  H86      1.0000 0.79790  0.38580  0.23270  Biso   1.000  H
  H87      1.0000 0.11420  0.29790  0.73270  Biso   1.000  H
  H88      1.0000 0.88580  0.70210  0.73270  Biso   1.000  H
  H89      1.0000 0.70210  0.88580  0.73270  Biso   1.000  H
  H90      1.0000 0.29790  0.11420  0.73270  Biso   1.000  H
  H91      1.0000 0.61420  0.20210  0.23270  Biso   1.000  H
  H92      1.0000 0.38580  0.79790  0.23270  Biso   1.000  H
  H93      1.0000 0.79790  0.38580  0.76730  Biso   1.000  H
  H94      1.0000 0.20210  0.61420  0.76730  Biso   1.000  H
  H95      1.0000 0.88580  0.70210  0.26730  Biso   1.000  H
  H96      1.0000 0.11420  0.29790  0.26730  Biso   1.000  H
  C161     1.0000 0.36163  0.13413  0.33291  Biso   1.000  C
  C162     1.0000 0.63837  0.86587  0.33291  Biso   1.000  C
  C163     1.0000 0.36587  0.86163  0.83291  Biso   1.000  C
  C164     1.0000 0.63413  0.13837  0.83291  Biso   1.000  C
  C165     1.0000 0.13837  0.63413  0.16709  Biso   1.000  C
  C166     1.0000 0.86163  0.36587  0.16709  Biso   1.000  C
  C167     1.0000 0.13413  0.36163  0.66709  Biso   1.000  C
  C168     1.0000 0.86587  0.63837  0.66709  Biso   1.000  C
  C169     1.0000 0.63837  0.86587  0.66709  Biso   1.000  C
  C170     1.0000 0.36163  0.13413  0.66709  Biso   1.000  C
  C171     1.0000 0.63413  0.13837  0.16709  Biso   1.000  C
  C172     1.0000 0.36587  0.86163  0.16709  Biso   1.000  C
  C173     1.0000 0.86163  0.36587  0.83291  Biso   1.000  C
  C174     1.0000 0.13837  0.63413  0.83291  Biso   1.000  C
  C175     1.0000 0.86587  0.63837  0.33291  Biso   1.000  C
  C176     1.0000 0.13413  0.36163  0.33291  Biso   1.000  C
  C177     1.0000 0.38860  0.13615  0.37395  Biso   1.000  C
  C178     1.0000 0.61140  0.86385  0.37395  Biso   1.000  C
  C179     1.0000 0.36385  0.88860  0.87395  Biso   1.000  C
  C180     1.0000 0.63615  0.11140  0.87395  Biso   1.000  C
  C181     1.0000 0.11140  0.63615  0.12605  Biso   1.000  C
  C182     1.0000 0.88860  0.36385  0.12605  Biso   1.000  C
  C183     1.0000 0.13615  0.38860  0.62605  Biso   1.000  C
  C184     1.0000 0.86385  0.61140  0.62605  Biso   1.000  C
  C185     1.0000 0.61140  0.86385  0.62605  Biso   1.000  C
  C186     1.0000 0.38860  0.13615  0.62605  Biso   1.000  C
  C187     1.0000 0.63615  0.11140  0.12605  Biso   1.000  C
  C188     1.0000 0.36385  0.88860  0.12605  Biso   1.000  C
  C189     1.0000 0.88860  0.36385  0.87395  Biso   1.000  C
  C190     1.0000 0.11140  0.63615  0.87395  Biso   1.000  C
  C191     1.0000 0.86385  0.61140  0.37395  Biso   1.000  C
  C192     1.0000 0.13615  0.38860  0.37395  Biso   1.000  C
  H97      1.0000 0.39660  0.10820  0.38900  Biso   1.000  H
  H98      1.0000 0.60340  0.89180  0.38900  Biso   1.000  H
  H99      1.0000 0.39180  0.89660  0.88900  Biso   1.000  H
  H100     1.0000 0.60820  0.10340  0.88900  Biso   1.000  H
  H101     1.0000 0.10340  0.60820  0.11100  Biso   1.000  H
  H102     1.0000 0.89660  0.39180  0.11100  Biso   1.000  H
  H103     1.0000 0.10820  0.39660  0.61100  Biso   1.000  H
  H104     1.0000 0.89180  0.60340  0.61100  Biso   1.000  H
  H105     1.0000 0.60340  0.89180  0.61100  Biso   1.000  H
  H106     1.0000 0.39660  0.10820  0.61100  Biso   1.000  H
  H107     1.0000 0.60820  0.10340  0.11100  Biso   1.000  H
  H108     1.0000 0.39180  0.89660  0.11100  Biso   1.000  H
  H109     1.0000 0.89660  0.39180  0.88900  Biso   1.000  H
  H110     1.0000 0.10340  0.60820  0.88900  Biso   1.000  H
  H111     1.0000 0.89180  0.60340  0.38900  Biso   1.000  H
  H112     1.0000 0.10820  0.39660  0.38900  Biso   1.000  H
  C193     1.0000 0.40371  0.17885  0.39265  Biso   1.000  C
  C194     1.0000 0.59629  0.82115  0.39265  Biso   1.000  C
  C195     1.0000 0.32115  0.90371  0.89265  Biso   1.000  C
  C196     1.0000 0.67885  0.09629  0.89265  Biso   1.000  C
  C197     1.0000 0.09629  0.67885  0.10735  Biso   1.000  C
  C198     1.0000 0.90371  0.32115  0.10735  Biso   1.000  C
  C199     1.0000 0.17885  0.40371  0.60735  Biso   1.000  C
  C200     1.0000 0.82115  0.59629  0.60735  Biso   1.000  C
  C201     1.0000 0.59629  0.82115  0.60735  Biso   1.000  C
  C202     1.0000 0.40371  0.17885  0.60735  Biso   1.000  C
  C203     1.0000 0.67885  0.09629  0.10735  Biso   1.000  C
  C204     1.0000 0.32115  0.90371  0.10735  Biso   1.000  C
  C205     1.0000 0.90371  0.32115  0.89265  Biso   1.000  C
  C206     1.0000 0.09629  0.67885  0.89265  Biso   1.000  C
  C207     1.0000 0.82115  0.59629  0.39265  Biso   1.000  C
  C208     1.0000 0.17885  0.40371  0.39265  Biso   1.000  C
  C209     1.0000 0.39225  0.22107  0.37028  Biso   1.000  C
  C210     1.0000 0.60775  0.77893  0.37028  Biso   1.000  C
  C211     1.0000 0.27893  0.89225  0.87028  Biso   1.000  C
  C212     1.0000 0.72107  0.10775  0.87028  Biso   1.000  C
  C213     1.0000 0.10775  0.72107  0.12972  Biso   1.000  C
  C214     1.0000 0.89225  0.27893  0.12972  Biso   1.000  C
  C215     1.0000 0.22107  0.39225  0.62972  Biso   1.000  C
  C216     1.0000 0.77893  0.60775  0.62972  Biso   1.000  C
  C217     1.0000 0.60775  0.77893  0.62972  Biso   1.000  C
  C218     1.0000 0.39225  0.22107  0.62972  Biso   1.000  C
  C219     1.0000 0.72107  0.10775  0.12972  Biso   1.000  C
  C220     1.0000 0.27893  0.89225  0.12972  Biso   1.000  C
  C221     1.0000 0.89225  0.27893  0.87028  Biso   1.000  C
  C222     1.0000 0.10775  0.72107  0.87028  Biso   1.000  C
  C223     1.0000 0.77893  0.60775  0.37028  Biso   1.000  C
  C224     1.0000 0.22107  0.39225  0.37028  Biso   1.000  C
  H113     1.0000 0.40270  0.24970  0.38220  Biso   1.000  H
  H114     1.0000 0.59730  0.75030  0.38220  Biso   1.000  H
  H115     1.0000 0.25030  0.90270  0.88220  Biso   1.000  H
  H116     1.0000 0.74970  0.09730  0.88220  Biso   1.000  H
  H117     1.0000 0.09730  0.74970  0.11780  Biso   1.000  H
  H118     1.0000 0.90270  0.25030  0.11780  Biso   1.000  H
  H119     1.0000 0.24970  0.40270  0.61780  Biso   1.000  H
  H120     1.0000 0.75030  0.59730  0.61780  Biso   1.000  H
  H121     1.0000 0.59730  0.75030  0.61780  Biso   1.000  H
  H122     1.0000 0.40270  0.24970  0.61780  Biso   1.000  H
  H123     1.0000 0.74970  0.09730  0.11780  Biso   1.000  H
  H124     1.0000 0.25030  0.90270  0.11780  Biso   1.000  H
  H125     1.0000 0.90270  0.25030  0.88220  Biso   1.000  H
  H126     1.0000 0.09730  0.74970  0.88220  Biso   1.000  H
  H127     1.0000 0.75030  0.59730  0.38220  Biso   1.000  H
  H128     1.0000 0.24970  0.40270  0.38220  Biso   1.000  H
  C225     1.0000 0.36497  0.21972  0.32989  Biso   1.000  C
  C226     1.0000 0.63503  0.78028  0.32989  Biso   1.000  C
  C227     1.0000 0.28028  0.86497  0.82989  Biso   1.000  C
  C228     1.0000 0.71972  0.13503  0.82989  Biso   1.000  C
  C229     1.0000 0.13503  0.71972  0.17011  Biso   1.000  C
  C230     1.0000 0.86497  0.28028  0.17011  Biso   1.000  C
  C231     1.0000 0.21972  0.36497  0.67011  Biso   1.000  C
  C232     1.0000 0.78028  0.63503  0.67011  Biso   1.000  C
  C233     1.0000 0.63503  0.78028  0.67011  Biso   1.000  C
  C234     1.0000 0.36497  0.21972  0.67011  Biso   1.000  C
  C235     1.0000 0.71972  0.13503  0.17011  Biso   1.000  C
  C236     1.0000 0.28028  0.86497  0.17011  Biso   1.000  C
  C237     1.0000 0.86497  0.28028  0.82989  Biso   1.000  C
  C238     1.0000 0.13503  0.71972  0.82989  Biso   1.000  C
  C239     1.0000 0.78028  0.63503  0.32989  Biso   1.000  C
  C240     1.0000 0.21972  0.36497  0.32989  Biso   1.000  C
  C241     1.0000 0.34975  0.17673  0.31173  Biso   1.000  C
  C242     1.0000 0.65025  0.82327  0.31173  Biso   1.000  C
  C243     1.0000 0.32327  0.84975  0.81173  Biso   1.000  C
  C244     1.0000 0.67673  0.15025  0.81173  Biso   1.000  C
  C245     1.0000 0.15025  0.67673  0.18827  Biso   1.000  C
  C246     1.0000 0.84975  0.32327  0.18827  Biso   1.000  C
  C247     1.0000 0.17673  0.34975  0.68827  Biso   1.000  C
  C248     1.0000 0.82327  0.65025  0.68827  Biso   1.000  C
  C249     1.0000 0.65025  0.82327  0.68827  Biso   1.000  C
  C250     1.0000 0.34975  0.17673  0.68827  Biso   1.000  C
  C251     1.0000 0.67673  0.15025  0.18827  Biso   1.000  C
  C252     1.0000 0.32327  0.84975  0.18827  Biso   1.000  C
  C253     1.0000 0.84975  0.32327  0.81173  Biso   1.000  C
  C254     1.0000 0.15025  0.67673  0.81173  Biso   1.000  C
  C255     1.0000 0.82327  0.65025  0.31173  Biso   1.000  C
  C256     1.0000 0.17673  0.34975  0.31173  Biso   1.000  C
  H129     1.0000 0.33130  0.17650  0.28490  Biso   1.000  H
  H130     1.0000 0.66870  0.82350  0.28490  Biso   1.000  H
  H131     1.0000 0.32350  0.83130  0.78490  Biso   1.000  H
  H132     1.0000 0.67650  0.16870  0.78490  Biso   1.000  H
  H133     1.0000 0.16870  0.67650  0.21510  Biso   1.000  H
  H134     1.0000 0.83130  0.32350  0.21510  Biso   1.000  H
  H135     1.0000 0.17650  0.33130  0.71510  Biso   1.000  H
  H136     1.0000 0.82350  0.66870  0.71510  Biso   1.000  H
  H137     1.0000 0.66870  0.82350  0.71510  Biso   1.000  H
  H138     1.0000 0.33130  0.17650  0.71510  Biso   1.000  H
  H139     1.0000 0.67650  0.16870  0.21510  Biso   1.000  H
  H140     1.0000 0.32350  0.83130  0.21510  Biso   1.000  H
  H141     1.0000 0.83130  0.32350  0.78490  Biso   1.000  H
  H142     1.0000 0.16870  0.67650  0.78490  Biso   1.000  H
  H143     1.0000 0.82350  0.66870  0.28490  Biso   1.000  H
  H144     1.0000 0.17650  0.33130  0.28490  Biso   1.000  H
  C257     1.0000 0.43443  0.17894  0.43530  Biso   1.000  C
  C258     1.0000 0.56557  0.82106  0.43530  Biso   1.000  C
  C259     1.0000 0.32106  0.93443  0.93530  Biso   1.000  C
  C260     1.0000 0.67894  0.06557  0.93530  Biso   1.000  C
  C261     1.0000 0.06557  0.67894  0.06470  Biso   1.000  C
  C262     1.0000 0.93443  0.32106  0.06470  Biso   1.000  C
  C263     1.0000 0.17894  0.43443  0.56470  Biso   1.000  C
  C264     1.0000 0.82106  0.56557  0.56470  Biso   1.000  C
  C265     1.0000 0.56557  0.82106  0.56470  Biso   1.000  C
  C266     1.0000 0.43443  0.17894  0.56470  Biso   1.000  C
  C267     1.0000 0.67894  0.06557  0.06470  Biso   1.000  C
  C268     1.0000 0.32106  0.93443  0.06470  Biso   1.000  C
  C269     1.0000 0.93443  0.32106  0.93530  Biso   1.000  C
  C270     1.0000 0.06557  0.67894  0.93530  Biso   1.000  C
  C271     1.0000 0.82106  0.56557  0.43530  Biso   1.000  C
  C272     1.0000 0.17894  0.43443  0.43530  Biso   1.000  C
  C273     1.0000 0.35427  0.26452  0.30414  Biso   1.000  C
  C274     1.0000 0.64573  0.73548  0.30414  Biso   1.000  C
  C275     1.0000 0.23548  0.85427  0.80414  Biso   1.000  C
  C276     1.0000 0.76452  0.14573  0.80414  Biso   1.000  C
  C277     1.0000 0.14573  0.76452  0.19586  Biso   1.000  C
  C278     1.0000 0.85427  0.23548  0.19586  Biso   1.000  C
  C279     1.0000 0.26452  0.35427  0.69586  Biso   1.000  C
  C280     1.0000 0.73548  0.64573  0.69586  Biso   1.000  C
  C281     1.0000 0.64573  0.73548  0.69586  Biso   1.000  C
  C282     1.0000 0.35427  0.26452  0.69586  Biso   1.000  C
  C283     1.0000 0.76452  0.14573  0.19586  Biso   1.000  C
  C284     1.0000 0.23548  0.85427  0.19586  Biso   1.000  C
  C285     1.0000 0.85427  0.23548  0.80414  Biso   1.000  C
  C286     1.0000 0.14573  0.76452  0.80414  Biso   1.000  C
  C287     1.0000 0.73548  0.64573  0.30414  Biso   1.000  C
  C288     1.0000 0.26452  0.35427  0.30414  Biso   1.000  C
  C289     1.0000 0.36082  0.87073  0.34106  Biso   1.000  C
  C290     1.0000 0.63918  0.12927  0.34106  Biso   1.000  C
  C291     1.0000 0.62927  0.86082  0.84106  Biso   1.000  C
  C292     1.0000 0.37073  0.13918  0.84106  Biso   1.000  C
  C293     1.0000 0.13918  0.37073  0.15894  Biso   1.000  C
  C294     1.0000 0.86082  0.62927  0.15894  Biso   1.000  C
  C295     1.0000 0.87073  0.36082  0.65894  Biso   1.000  C
  C296     1.0000 0.12927  0.63918  0.65894  Biso   1.000  C
  C297     1.0000 0.63918  0.12927  0.65894  Biso   1.000  C
  C298     1.0000 0.36082  0.87073  0.65894  Biso   1.000  C
  C299     1.0000 0.37073  0.13918  0.15894  Biso   1.000  C
  C300     1.0000 0.62927  0.86082  0.15894  Biso   1.000  C
  C301     1.0000 0.86082  0.62927  0.84106  Biso   1.000  C
  C302     1.0000 0.13918  0.37073  0.84106  Biso   1.000  C
  C303     1.0000 0.12927  0.63918  0.34106  Biso   1.000  C
  C304     1.0000 0.87073  0.36082  0.34106  Biso   1.000  C
  C305     1.0000 0.39201  0.86947  0.37888  Biso   1.000  C
  C306     1.0000 0.60799  0.13053  0.37888  Biso   1.000  C
  C307     1.0000 0.63053  0.89201  0.87888  Biso   1.000  C
  C308     1.0000 0.36947  0.10799  0.87888  Biso   1.000  C
  C309     1.0000 0.10799  0.36947  0.12112  Biso   1.000  C
  C310     1.0000 0.89201  0.63053  0.12112  Biso   1.000  C
  C311     1.0000 0.86947  0.39201  0.62112  Biso   1.000  C
  C312     1.0000 0.13053  0.60799  0.62112  Biso   1.000  C
  C313     1.0000 0.60799  0.13053  0.62112  Biso   1.000  C
  C314     1.0000 0.39201  0.86947  0.62112  Biso   1.000  C
  C315     1.0000 0.36947  0.10799  0.12112  Biso   1.000  C
  C316     1.0000 0.63053  0.89201  0.12112  Biso   1.000  C
  C317     1.0000 0.89201  0.63053  0.87888  Biso   1.000  C
  C318     1.0000 0.10799  0.36947  0.87888  Biso   1.000  C
  C319     1.0000 0.13053  0.60799  0.37888  Biso   1.000  C
  C320     1.0000 0.86947  0.39201  0.37888  Biso   1.000  C
  H145     1.0000 0.40180  0.89770  0.39220  Biso   1.000  H
  H146     1.0000 0.59820  0.10230  0.39220  Biso   1.000  H
  H147     1.0000 0.60230  0.90180  0.89220  Biso   1.000  H
  H148     1.0000 0.39770  0.09820  0.89220  Biso   1.000  H
  H149     1.0000 0.09820  0.39770  0.10780  Biso   1.000  H
  H150     1.0000 0.90180  0.60230  0.10780  Biso   1.000  H
  H151     1.0000 0.89770  0.40180  0.60780  Biso   1.000  H
  H152     1.0000 0.10230  0.59820  0.60780  Biso   1.000  H
  H153     1.0000 0.59820  0.10230  0.60780  Biso   1.000  H
  H154     1.0000 0.40180  0.89770  0.60780  Biso   1.000  H
  H155     1.0000 0.39770  0.09820  0.10780  Biso   1.000  H
  H156     1.0000 0.60230  0.90180  0.10780  Biso   1.000  H
  H157     1.0000 0.90180  0.60230  0.89220  Biso   1.000  H
  H158     1.0000 0.09820  0.39770  0.89220  Biso   1.000  H
  H159     1.0000 0.10230  0.59820  0.39220  Biso   1.000  H
  H160     1.0000 0.89770  0.40180  0.39220  Biso   1.000  H
  C321     1.0000 0.40873  0.82724  0.39712  Biso   1.000  C
  C322     1.0000 0.59127  0.17276  0.39712  Biso   1.000  C
  C323     1.0000 0.67276  0.90873  0.89712  Biso   1.000  C
  C324     1.0000 0.32724  0.09127  0.89712  Biso   1.000  C
  C325     1.0000 0.09127  0.32724  0.10288  Biso   1.000  C
  C326     1.0000 0.90873  0.67276  0.10288  Biso   1.000  C
  C327     1.0000 0.82724  0.40873  0.60288  Biso   1.000  C
  C328     1.0000 0.17276  0.59127  0.60288  Biso   1.000  C
  C329     1.0000 0.59127  0.17276  0.60288  Biso   1.000  C
  C330     1.0000 0.40873  0.82724  0.60288  Biso   1.000  C
  C331     1.0000 0.32724  0.09127  0.10288  Biso   1.000  C
  C332     1.0000 0.67276  0.90873  0.10288  Biso   1.000  C
  C333     1.0000 0.90873  0.67276  0.89712  Biso   1.000  C
  C334     1.0000 0.09127  0.32724  0.89712  Biso   1.000  C
  C335     1.0000 0.17276  0.59127  0.39712  Biso   1.000  C
  C336     1.0000 0.82724  0.40873  0.39712  Biso   1.000  C
  C337     1.0000 0.39474  0.78455  0.37744  Biso   1.000  C
  C338     1.0000 0.60526  0.21545  0.37744  Biso   1.000  C
  C339     1.0000 0.71545  0.89474  0.87744  Biso   1.000  C
  C340     1.0000 0.28455  0.10526  0.87744  Biso   1.000  C
  C341     1.0000 0.10526  0.28455  0.12256  Biso   1.000  C
  C342     1.0000 0.89474  0.71545  0.12256  Biso   1.000  C
  C343     1.0000 0.78455  0.39474  0.62256  Biso   1.000  C
  C344     1.0000 0.21545  0.60526  0.62256  Biso   1.000  C
  C345     1.0000 0.60526  0.21545  0.62256  Biso   1.000  C
  C346     1.0000 0.39474  0.78455  0.62256  Biso   1.000  C
  C347     1.0000 0.28455  0.10526  0.12256  Biso   1.000  C
  C348     1.0000 0.71545  0.89474  0.12256  Biso   1.000  C
  C349     1.0000 0.89474  0.71545  0.87744  Biso   1.000  C
  C350     1.0000 0.10526  0.28455  0.87744  Biso   1.000  C
  C351     1.0000 0.21545  0.60526  0.37744  Biso   1.000  C
  C352     1.0000 0.78455  0.39474  0.37744  Biso   1.000  C
  H161     1.0000 0.40610  0.75620  0.38920  Biso   1.000  H
  H162     1.0000 0.59390  0.24380  0.38920  Biso   1.000  H
  H163     1.0000 0.74380  0.90610  0.88920  Biso   1.000  H
  H164     1.0000 0.25620  0.09390  0.88920  Biso   1.000  H
  H165     1.0000 0.09390  0.25620  0.11080  Biso   1.000  H
  H166     1.0000 0.90610  0.74380  0.11080  Biso   1.000  H
  H167     1.0000 0.75620  0.40610  0.61080  Biso   1.000  H
  H168     1.0000 0.24380  0.59390  0.61080  Biso   1.000  H
  H169     1.0000 0.59390  0.24380  0.61080  Biso   1.000  H
  H170     1.0000 0.40610  0.75620  0.61080  Biso   1.000  H
  H171     1.0000 0.25620  0.09390  0.11080  Biso   1.000  H
  H172     1.0000 0.74380  0.90610  0.11080  Biso   1.000  H
  H173     1.0000 0.90610  0.74380  0.88920  Biso   1.000  H
  H174     1.0000 0.09390  0.25620  0.88920  Biso   1.000  H
  H175     1.0000 0.24380  0.59390  0.38920  Biso   1.000  H
  H176     1.0000 0.75620  0.40610  0.38920  Biso   1.000  H
  C353     1.0000 0.36349  0.78505  0.33989  Biso   1.000  C
  C354     1.0000 0.63651  0.21495  0.33989  Biso   1.000  C
  C355     1.0000 0.71495  0.86349  0.83989  Biso   1.000  C
  C356     1.0000 0.28505  0.13651  0.83989  Biso   1.000  C
  C357     1.0000 0.13651  0.28505  0.16011  Biso   1.000  C
  C358     1.0000 0.86349  0.71495  0.16011  Biso   1.000  C
  C359     1.0000 0.78505  0.36349  0.66011  Biso   1.000  C
  C360     1.0000 0.21495  0.63651  0.66011  Biso   1.000  C
  C361     1.0000 0.63651  0.21495  0.66011  Biso   1.000  C
  C362     1.0000 0.36349  0.78505  0.66011  Biso   1.000  C
  C363     1.0000 0.28505  0.13651  0.16011  Biso   1.000  C
  C364     1.0000 0.71495  0.86349  0.16011  Biso   1.000  C
  C365     1.0000 0.86349  0.71495  0.83989  Biso   1.000  C
  C366     1.0000 0.13651  0.28505  0.83989  Biso   1.000  C
  C367     1.0000 0.21495  0.63651  0.33989  Biso   1.000  C
  C368     1.0000 0.78505  0.36349  0.33989  Biso   1.000  C
  C369     1.0000 0.34633  0.82768  0.32263  Biso   1.000  C
  C370     1.0000 0.65367  0.17232  0.32263  Biso   1.000  C
  C371     1.0000 0.67232  0.84633  0.82263  Biso   1.000  C
  C372     1.0000 0.32768  0.15367  0.82263  Biso   1.000  C
  C373     1.0000 0.15367  0.32768  0.17737  Biso   1.000  C
  C374     1.0000 0.84633  0.67232  0.17737  Biso   1.000  C
  C375     1.0000 0.82768  0.34633  0.67737  Biso   1.000  C
  C376     1.0000 0.17232  0.65367  0.67737  Biso   1.000  C
  C377     1.0000 0.65367  0.17232  0.67737  Biso   1.000  C
  C378     1.0000 0.34633  0.82768  0.67737  Biso   1.000  C
  C379     1.0000 0.32768  0.15367  0.17737  Biso   1.000  C
  C380     1.0000 0.67232  0.84633  0.17737  Biso   1.000  C
  C381     1.0000 0.84633  0.67232  0.82263  Biso   1.000  C
  C382     1.0000 0.15367  0.32768  0.82263  Biso   1.000  C
  C383     1.0000 0.17232  0.65367  0.32263  Biso   1.000  C
  C384     1.0000 0.82768  0.34633  0.32263  Biso   1.000  C
  H177     1.0000 0.32470  0.82740  0.29820  Biso   1.000  H
  H178     1.0000 0.67530  0.17260  0.29820  Biso   1.000  H
  H179     1.0000 0.67260  0.82470  0.79820  Biso   1.000  H
  H180     1.0000 0.32740  0.17530  0.79820  Biso   1.000  H
  H181     1.0000 0.17530  0.32740  0.20180  Biso   1.000  H
  H182     1.0000 0.82470  0.67260  0.20180  Biso   1.000  H
  H183     1.0000 0.82740  0.32470  0.70180  Biso   1.000  H
  H184     1.0000 0.17260  0.67530  0.70180  Biso   1.000  H
  H185     1.0000 0.67530  0.17260  0.70180  Biso   1.000  H
  H186     1.0000 0.32470  0.82740  0.70180  Biso   1.000  H
  H187     1.0000 0.32740  0.17530  0.20180  Biso   1.000  H
  H188     1.0000 0.67260  0.82470  0.20180  Biso   1.000  H
  H189     1.0000 0.82470  0.67260  0.79820  Biso   1.000  H
  H190     1.0000 0.17530  0.32740  0.79820  Biso   1.000  H
  H191     1.0000 0.17260  0.67530  0.29820  Biso   1.000  H
  H192     1.0000 0.82740  0.32470  0.29820  Biso   1.000  H
  C385     1.0000 0.44338  0.82704  0.43678  Biso   1.000  C
  C386     1.0000 0.55662  0.17296  0.43678  Biso   1.000  C
  C387     1.0000 0.67296  0.94338  0.93678  Biso   1.000  C
  C388     1.0000 0.32704  0.05662  0.93678  Biso   1.000  C
  C389     1.0000 0.05662  0.32704  0.06322  Biso   1.000  C
  C390     1.0000 0.94338  0.67296  0.06322  Biso   1.000  C
  C391     1.0000 0.82704  0.44338  0.56322  Biso   1.000  C
  C392     1.0000 0.17296  0.55662  0.56322  Biso   1.000  C
  C393     1.0000 0.55662  0.17296  0.56322  Biso   1.000  C
  C394     1.0000 0.44338  0.82704  0.56322  Biso   1.000  C
  C395     1.0000 0.32704  0.05662  0.06322  Biso   1.000  C
  C396     1.0000 0.67296  0.94338  0.06322  Biso   1.000  C
  C397     1.0000 0.94338  0.67296  0.93678  Biso   1.000  C
  C398     1.0000 0.05662  0.32704  0.93678  Biso   1.000  C
  C399     1.0000 0.17296  0.55662  0.43678  Biso   1.000  C
  C400     1.0000 0.82704  0.44338  0.43678  Biso   1.000  C
  C401     1.0000 0.35058  0.73982  0.31622  Biso   1.000  C
  C402     1.0000 0.64942  0.26018  0.31622  Biso   1.000  C
  C403     1.0000 0.76018  0.85058  0.81622  Biso   1.000  C
  C404     1.0000 0.23982  0.14942  0.81622  Biso   1.000  C
  C405     1.0000 0.14942  0.23982  0.18378  Biso   1.000  C
  C406     1.0000 0.85058  0.76018  0.18378  Biso   1.000  C
  C407     1.0000 0.73982  0.35058  0.68378  Biso   1.000  C
  C408     1.0000 0.26018  0.64942  0.68378  Biso   1.000  C
  C409     1.0000 0.64942  0.26018  0.68378  Biso   1.000  C
  C410     1.0000 0.35058  0.73982  0.68378  Biso   1.000  C
  C411     1.0000 0.23982  0.14942  0.18378  Biso   1.000  C
  C412     1.0000 0.76018  0.85058  0.18378  Biso   1.000  C
  C413     1.0000 0.85058  0.76018  0.81622  Biso   1.000  C
  C414     1.0000 0.14942  0.23982  0.81622  Biso   1.000  C
  C415     1.0000 0.26018  0.64942  0.31622  Biso   1.000  C
  C416     1.0000 0.73982  0.35058  0.31622  Biso   1.000  C
  C417     1.0000 0.48485  0.74395  0.08457  Biso   1.000  C
  C418     1.0000 0.51515  0.25605  0.08457  Biso   1.000  C
  C419     1.0000 0.75605  0.98485  0.58457  Biso   1.000  C
  C420     1.0000 0.24395  0.01515  0.58457  Biso   1.000  C
  C421     1.0000 0.01515  0.24395  0.41543  Biso   1.000  C
  C422     1.0000 0.98485  0.75605  0.41543  Biso   1.000  C
  C423     1.0000 0.74395  0.48485  0.91543  Biso   1.000  C
  C424     1.0000 0.25605  0.51515  0.91543  Biso   1.000  C
  C425     1.0000 0.51515  0.25605  0.91543  Biso   1.000  C
  C426     1.0000 0.48485  0.74395  0.91543  Biso   1.000  C
  C427     1.0000 0.24395  0.01515  0.41543  Biso   1.000  C
  C428     1.0000 0.75605  0.98485  0.41543  Biso   1.000  C
  C429     1.0000 0.98485  0.75605  0.58457  Biso   1.000  C
  C430     1.0000 0.01515  0.24395  0.58457  Biso   1.000  C
  C431     1.0000 0.25605  0.51515  0.08457  Biso   1.000  C
  C432     1.0000 0.74395  0.48485  0.08457  Biso   1.000  C
  C433     1.0000 0.50263  0.72755  0.04343  Biso   1.000  C
  C434     1.0000 0.49737  0.27245  0.04343  Biso   1.000  C
  C435     1.0000 0.77245  0.00263  0.54343  Biso   1.000  C
  C436     1.0000 0.22755  0.99737  0.54343  Biso   1.000  C
  C437     1.0000 0.99737  0.22755  0.45657  Biso   1.000  C
  C438     1.0000 0.00263  0.77245  0.45657  Biso   1.000  C
  C439     1.0000 0.72755  0.50263  0.95657  Biso   1.000  C
  C440     1.0000 0.27245  0.49737  0.95657  Biso   1.000  C
  C441     1.0000 0.49737  0.27245  0.95657  Biso   1.000  C
  C442     1.0000 0.50263  0.72755  0.95657  Biso   1.000  C
  C443     1.0000 0.22755  0.99737  0.45657  Biso   1.000  C
  C444     1.0000 0.77245  0.00263  0.45657  Biso   1.000  C
  C445     1.0000 0.00263  0.77245  0.54343  Biso   1.000  C
  C446     1.0000 0.99737  0.22755  0.54343  Biso   1.000  C
  C447     1.0000 0.27245  0.49737  0.04343  Biso   1.000  C
  C448     1.0000 0.72755  0.50263  0.04343  Biso   1.000  C
  H193     1.0000 0.52360  0.70240  0.04390  Biso   1.000  H
  H194     1.0000 0.47640  0.29760  0.04390  Biso   1.000  H
  H195     1.0000 0.79760  0.02360  0.54390  Biso   1.000  H
  H196     1.0000 0.20240  0.97640  0.54390  Biso   1.000  H
  H197     1.0000 0.97640  0.20240  0.45610  Biso   1.000  H
  H198     1.0000 0.02360  0.79760  0.45610  Biso   1.000  H
  H199     1.0000 0.70240  0.52360  0.95610  Biso   1.000  H
  H200     1.0000 0.29760  0.47640  0.95610  Biso   1.000  H
  H201     1.0000 0.47640  0.29760  0.95610  Biso   1.000  H
  H202     1.0000 0.52360  0.70240  0.95610  Biso   1.000  H
  H203     1.0000 0.20240  0.97640  0.45610  Biso   1.000  H
  H204     1.0000 0.79760  0.02360  0.45610  Biso   1.000  H
  H205     1.0000 0.02360  0.79760  0.54390  Biso   1.000  H
  H206     1.0000 0.97640  0.20240  0.54390  Biso   1.000  H
  H207     1.0000 0.29760  0.47640  0.04390  Biso   1.000  H
  H208     1.0000 0.70240  0.52360  0.04390  Biso   1.000  H
  C449     1.0000 0.48985  0.74789  0.00000  Biso   1.000  C
  C450     1.0000 0.51015  0.25211  0.00000  Biso   1.000  C
  C451     1.0000 0.75211  0.98985  0.50000  Biso   1.000  C
  C452     1.0000 0.24789  0.01015  0.50000  Biso   1.000  C
  C453     1.0000 0.01015  0.24789  0.50000  Biso   1.000  C
  C454     1.0000 0.98985  0.75211  0.50000  Biso   1.000  C
  C455     1.0000 0.74789  0.48985  0.00000  Biso   1.000  C
  C456     1.0000 0.25211  0.51015  0.00000  Biso   1.000  C
  C457     1.0000 0.45909  0.78785  0.00000  Biso   1.000  C
  C458     1.0000 0.54091  0.21215  0.00000  Biso   1.000  C
  C459     1.0000 0.71215  0.95909  0.50000  Biso   1.000  C
  C460     1.0000 0.28785  0.04091  0.50000  Biso   1.000  C
  C461     1.0000 0.04091  0.28785  0.50000  Biso   1.000  C
  C462     1.0000 0.95909  0.71215  0.50000  Biso   1.000  C
  C463     1.0000 0.78785  0.45909  0.00000  Biso   1.000  C
  C464     1.0000 0.21215  0.54091  0.00000  Biso   1.000  C
  C465     1.0000 0.45475  0.78443  0.08401  Biso   1.000  C
  C466     1.0000 0.54525  0.21557  0.08401  Biso   1.000  C
  C467     1.0000 0.71557  0.95475  0.58401  Biso   1.000  C
  C468     1.0000 0.28443  0.04525  0.58401  Biso   1.000  C
  C469     1.0000 0.04525  0.28443  0.41599  Biso   1.000  C
  C470     1.0000 0.95475  0.71557  0.41599  Biso   1.000  C
  C471     1.0000 0.78443  0.45475  0.91599  Biso   1.000  C
  C472     1.0000 0.21557  0.54525  0.91599  Biso   1.000  C
  C473     1.0000 0.54525  0.21557  0.91599  Biso   1.000  C
  C474     1.0000 0.45475  0.78443  0.91599  Biso   1.000  C
  C475     1.0000 0.28443  0.04525  0.41599  Biso   1.000  C
  C476     1.0000 0.71557  0.95475  0.41599  Biso   1.000  C
  C477     1.0000 0.95475  0.71557  0.58401  Biso   1.000  C
  C478     1.0000 0.04525  0.28443  0.58401  Biso   1.000  C
  C479     1.0000 0.21557  0.54525  0.08401  Biso   1.000  C
  C480     1.0000 0.78443  0.45475  0.08401  Biso   1.000  C
  H209     1.0000 0.44300  0.79610  0.11210  Biso   1.000  H
  H210     1.0000 0.55700  0.20390  0.11210  Biso   1.000  H
  H211     1.0000 0.70390  0.94300  0.61210  Biso   1.000  H
  H212     1.0000 0.29610  0.05700  0.61210  Biso   1.000  H
  H213     1.0000 0.05700  0.29610  0.38790  Biso   1.000  H
  H214     1.0000 0.94300  0.70390  0.38790  Biso   1.000  H
  H215     1.0000 0.79610  0.44300  0.88790  Biso   1.000  H
  H216     1.0000 0.20390  0.55700  0.88790  Biso   1.000  H
  H217     1.0000 0.55700  0.20390  0.88790  Biso   1.000  H
  H218     1.0000 0.44300  0.79610  0.88790  Biso   1.000  H
  H219     1.0000 0.29610  0.05700  0.38790  Biso   1.000  H
  H220     1.0000 0.70390  0.94300  0.38790  Biso   1.000  H
  H221     1.0000 0.94300  0.70390  0.61210  Biso   1.000  H
  H222     1.0000 0.05700  0.29610  0.61210  Biso   1.000  H
  H223     1.0000 0.20390  0.55700  0.11210  Biso   1.000  H
  H224     1.0000 0.79610  0.44300  0.11210  Biso   1.000  H
  C481     1.0000 0.49167  0.71891  0.12965  Biso   1.000  C
  C482     1.0000 0.50833  0.28109  0.12965  Biso   1.000  C
  C483     1.0000 0.78109  0.99167  0.62965  Biso   1.000  C
  C484     1.0000 0.21891  0.00833  0.62965  Biso   1.000  C
  C485     1.0000 0.00833  0.21891  0.37035  Biso   1.000  C
  C486     1.0000 0.99167  0.78109  0.37035  Biso   1.000  C
  C487     1.0000 0.71891  0.49167  0.87035  Biso   1.000  C
  C488     1.0000 0.28109  0.50833  0.87035  Biso   1.000  C
  C489     1.0000 0.50833  0.28109  0.87035  Biso   1.000  C
  C490     1.0000 0.49167  0.71891  0.87035  Biso   1.000  C
  C491     1.0000 0.21891  0.00833  0.37035  Biso   1.000  C
  C492     1.0000 0.78109  0.99167  0.37035  Biso   1.000  C
  C493     1.0000 0.99167  0.78109  0.62965  Biso   1.000  C
  C494     1.0000 0.00833  0.21891  0.62965  Biso   1.000  C
  C495     1.0000 0.28109  0.50833  0.12965  Biso   1.000  C
  C496     1.0000 0.71891  0.49167  0.12965  Biso   1.000  C
  C497     1.0000 0.45108  0.70891  0.15579  Biso   1.000  C
  C498     1.0000 0.54892  0.29109  0.15579  Biso   1.000  C
  C499     1.0000 0.79109  0.95108  0.65579  Biso   1.000  C
  C500     1.0000 0.20891  0.04892  0.65579  Biso   1.000  C
  C501     1.0000 0.04892  0.20891  0.34421  Biso   1.000  C
  C502     1.0000 0.95108  0.79109  0.34421  Biso   1.000  C
  C503     1.0000 0.70891  0.45108  0.84421  Biso   1.000  C
  C504     1.0000 0.29109  0.54892  0.84421  Biso   1.000  C
  C505     1.0000 0.54892  0.29109  0.84421  Biso   1.000  C
  C506     1.0000 0.45108  0.70891  0.84421  Biso   1.000  C
  C507     1.0000 0.20891  0.04892  0.34421  Biso   1.000  C
  C508     1.0000 0.79109  0.95108  0.34421  Biso   1.000  C
  C509     1.0000 0.95108  0.79109  0.65579  Biso   1.000  C
  C510     1.0000 0.04892  0.20891  0.65579  Biso   1.000  C
  C511     1.0000 0.29109  0.54892  0.15579  Biso   1.000  C
  C512     1.0000 0.70891  0.45108  0.15579  Biso   1.000  C
  H225     1.0000 0.42170  0.71780  0.14440  Biso   1.000  H
  H226     1.0000 0.57830  0.28220  0.14440  Biso   1.000  H
  H227     1.0000 0.78220  0.92170  0.64440  Biso   1.000  H
  H228     1.0000 0.21780  0.07830  0.64440  Biso   1.000  H
  H229     1.0000 0.07830  0.21780  0.35560  Biso   1.000  H
  H230     1.0000 0.92170  0.78220  0.35560  Biso   1.000  H
  H231     1.0000 0.71780  0.42170  0.85560  Biso   1.000  H
  H232     1.0000 0.28220  0.57830  0.85560  Biso   1.000  H
  H233     1.0000 0.57830  0.28220  0.85560  Biso   1.000  H
  H234     1.0000 0.42170  0.71780  0.85560  Biso   1.000  H
  H235     1.0000 0.21780  0.07830  0.35560  Biso   1.000  H
  H236     1.0000 0.78220  0.92170  0.35560  Biso   1.000  H
  H237     1.0000 0.92170  0.78220  0.64440  Biso   1.000  H
  H238     1.0000 0.07830  0.21780  0.64440  Biso   1.000  H
  H239     1.0000 0.28220  0.57830  0.14440  Biso   1.000  H
  H240     1.0000 0.71780  0.42170  0.14440  Biso   1.000  H
  C513     1.0000 0.45416  0.68605  0.19838  Biso   1.000  C
  C514     1.0000 0.54584  0.31395  0.19838  Biso   1.000  C
  C515     1.0000 0.81395  0.95416  0.69838  Biso   1.000  C
  C516     1.0000 0.18605  0.04584  0.69838  Biso   1.000  C
  C517     1.0000 0.04584  0.18605  0.30162  Biso   1.000  C
  C518     1.0000 0.95416  0.81395  0.30162  Biso   1.000  C
  C519     1.0000 0.68605  0.45416  0.80162  Biso   1.000  C
  C520     1.0000 0.31395  0.54584  0.80162  Biso   1.000  C
  C521     1.0000 0.54584  0.31395  0.80162  Biso   1.000  C
  C522     1.0000 0.45416  0.68605  0.80162  Biso   1.000  C
  C523     1.0000 0.18605  0.04584  0.30162  Biso   1.000  C
  C524     1.0000 0.81395  0.95416  0.30162  Biso   1.000  C
  C525     1.0000 0.95416  0.81395  0.69838  Biso   1.000  C
  C526     1.0000 0.04584  0.18605  0.69838  Biso   1.000  C
  C527     1.0000 0.31395  0.54584  0.19838  Biso   1.000  C
  C528     1.0000 0.68605  0.45416  0.19838  Biso   1.000  C
  C529     1.0000 0.49785  0.67313  0.21607  Biso   1.000  C
  C530     1.0000 0.50215  0.32687  0.21607  Biso   1.000  C
  C531     1.0000 0.82687  0.99785  0.71607  Biso   1.000  C
  C532     1.0000 0.17313  0.00215  0.71607  Biso   1.000  C
  C533     1.0000 0.00215  0.17313  0.28393  Biso   1.000  C
  C534     1.0000 0.99785  0.82687  0.28393  Biso   1.000  C
  C535     1.0000 0.67313  0.49785  0.78393  Biso   1.000  C
  C536     1.0000 0.32687  0.50215  0.78393  Biso   1.000  C
  C537     1.0000 0.50215  0.32687  0.78393  Biso   1.000  C
  C538     1.0000 0.49785  0.67313  0.78393  Biso   1.000  C
  C539     1.0000 0.17313  0.00215  0.28393  Biso   1.000  C
  C540     1.0000 0.82687  0.99785  0.28393  Biso   1.000  C
  C541     1.0000 0.99785  0.82687  0.71607  Biso   1.000  C
  C542     1.0000 0.00215  0.17313  0.71607  Biso   1.000  C
  C543     1.0000 0.32687  0.50215  0.21607  Biso   1.000  C
  C544     1.0000 0.67313  0.49785  0.21607  Biso   1.000  C
  H241     1.0000 0.49990  0.65720  0.24440  Biso   1.000  H
  H242     1.0000 0.50010  0.34280  0.24440  Biso   1.000  H
  H243     1.0000 0.84280  0.99990  0.74440  Biso   1.000  H
  H244     1.0000 0.15720  0.00010  0.74440  Biso   1.000  H
  H245     1.0000 0.00010  0.15720  0.25560  Biso   1.000  H
  H246     1.0000 0.99990  0.84280  0.25560  Biso   1.000  H
  H247     1.0000 0.65720  0.49990  0.75560  Biso   1.000  H
  H248     1.0000 0.34280  0.50010  0.75560  Biso   1.000  H
  H249     1.0000 0.50010  0.34280  0.75560  Biso   1.000  H
  H250     1.0000 0.49990  0.65720  0.75560  Biso   1.000  H
  H251     1.0000 0.15720  0.00010  0.25560  Biso   1.000  H
  H252     1.0000 0.84280  0.99990  0.25560  Biso   1.000  H
  H253     1.0000 0.99990  0.84280  0.74440  Biso   1.000  H
  H254     1.0000 0.00010  0.15720  0.74440  Biso   1.000  H
  H255     1.0000 0.34280  0.50010  0.24440  Biso   1.000  H
  H256     1.0000 0.65720  0.49990  0.24440  Biso   1.000  H
  C545     1.0000 0.53844  0.68415  0.19131  Biso   1.000  C
  C546     1.0000 0.46156  0.31585  0.19131  Biso   1.000  C
  C547     1.0000 0.81585  0.03844  0.69131  Biso   1.000  C
  C548     1.0000 0.18415  0.96156  0.69131  Biso   1.000  C
  C549     1.0000 0.96156  0.18415  0.30869  Biso   1.000  C
  C550     1.0000 0.03844  0.81585  0.30869  Biso   1.000  C
  C551     1.0000 0.68415  0.53844  0.80869  Biso   1.000  C
  C552     1.0000 0.31585  0.46156  0.80869  Biso   1.000  C
  C553     1.0000 0.46156  0.31585  0.80869  Biso   1.000  C
  C554     1.0000 0.53844  0.68415  0.80869  Biso   1.000  C
  C555     1.0000 0.18415  0.96156  0.30869  Biso   1.000  C
  C556     1.0000 0.81585  0.03844  0.30869  Biso   1.000  C
  C557     1.0000 0.03844  0.81585  0.69131  Biso   1.000  C
  C558     1.0000 0.96156  0.18415  0.69131  Biso   1.000  C
  C559     1.0000 0.31585  0.46156  0.19131  Biso   1.000  C
  C560     1.0000 0.68415  0.53844  0.19131  Biso   1.000  C
  C561     1.0000 0.53546  0.70666  0.14792  Biso   1.000  C
  C562     1.0000 0.46454  0.29334  0.14792  Biso   1.000  C
  C563     1.0000 0.79334  0.03546  0.64792  Biso   1.000  C
  C564     1.0000 0.20666  0.96454  0.64792  Biso   1.000  C
  C565     1.0000 0.96454  0.20666  0.35208  Biso   1.000  C
  C566     1.0000 0.03546  0.79334  0.35208  Biso   1.000  C
  C567     1.0000 0.70666  0.53546  0.85208  Biso   1.000  C
  C568     1.0000 0.29334  0.46454  0.85208  Biso   1.000  C
  C569     1.0000 0.46454  0.29334  0.85208  Biso   1.000  C
  C570     1.0000 0.53546  0.70666  0.85208  Biso   1.000  C
  C571     1.0000 0.20666  0.96454  0.35208  Biso   1.000  C
  C572     1.0000 0.79334  0.03546  0.35208  Biso   1.000  C
  C573     1.0000 0.03546  0.79334  0.64792  Biso   1.000  C
  C574     1.0000 0.96454  0.20666  0.64792  Biso   1.000  C
  C575     1.0000 0.29334  0.46454  0.14792  Biso   1.000  C
  C576     1.0000 0.70666  0.53546  0.14792  Biso   1.000  C
  H257     1.0000 0.56280  0.71340  0.13130  Biso   1.000  H
  H258     1.0000 0.43720  0.28660  0.13130  Biso   1.000  H
  H259     1.0000 0.78660  0.06280  0.63130  Biso   1.000  H
  H260     1.0000 0.21340  0.93720  0.63130  Biso   1.000  H
  H261     1.0000 0.93720  0.21340  0.36870  Biso   1.000  H
  H262     1.0000 0.06280  0.78660  0.36870  Biso   1.000  H
  H263     1.0000 0.71340  0.56280  0.86870  Biso   1.000  H
  H264     1.0000 0.28660  0.43720  0.86870  Biso   1.000  H
  H265     1.0000 0.43720  0.28660  0.86870  Biso   1.000  H
  H266     1.0000 0.56280  0.71340  0.86870  Biso   1.000  H
  H267     1.0000 0.21340  0.93720  0.36870  Biso   1.000  H
  H268     1.0000 0.78660  0.06280  0.36870  Biso   1.000  H
  H269     1.0000 0.06280  0.78660  0.63130  Biso   1.000  H
  H270     1.0000 0.93720  0.21340  0.63130  Biso   1.000  H
  H271     1.0000 0.28660  0.43720  0.13130  Biso   1.000  H
  H272     1.0000 0.71340  0.56280  0.13130  Biso   1.000  H
  C577     1.0000 0.41011  0.67742  0.22655  Biso   1.000  C
  C578     1.0000 0.58989  0.32258  0.22655  Biso   1.000  C
  C579     1.0000 0.82258  0.91011  0.72655  Biso   1.000  C
  C580     1.0000 0.17742  0.08989  0.72655  Biso   1.000  C
  C581     1.0000 0.08989  0.17742  0.27345  Biso   1.000  C
  C582     1.0000 0.91011  0.82258  0.27345  Biso   1.000  C
  C583     1.0000 0.67742  0.41011  0.77345  Biso   1.000  C
  C584     1.0000 0.32258  0.58989  0.77345  Biso   1.000  C
  C585     1.0000 0.58989  0.32258  0.77345  Biso   1.000  C
  C586     1.0000 0.41011  0.67742  0.77345  Biso   1.000  C
  C587     1.0000 0.17742  0.08989  0.27345  Biso   1.000  C
  C588     1.0000 0.82258  0.91011  0.27345  Biso   1.000  C
  C589     1.0000 0.91011  0.82258  0.72655  Biso   1.000  C
  C590     1.0000 0.08989  0.17742  0.72655  Biso   1.000  C
  C591     1.0000 0.32258  0.58989  0.22655  Biso   1.000  C
  C592     1.0000 0.67742  0.41011  0.22655  Biso   1.000  C
  C593     1.0000 0.58534  0.67453  0.21387  Biso   1.000  C
  C594     1.0000 0.41466  0.32547  0.21387  Biso   1.000  C
  C595     1.0000 0.82547  0.08534  0.71387  Biso   1.000  C
  C596     1.0000 0.17453  0.91466  0.71387  Biso   1.000  C
  C597     1.0000 0.91466  0.17453  0.28613  Biso   1.000  C
  C598     1.0000 0.08534  0.82547  0.28613  Biso   1.000  C
  C599     1.0000 0.67453  0.58534  0.78613  Biso   1.000  C
  C600     1.0000 0.32547  0.41466  0.78613  Biso   1.000  C
  C601     1.0000 0.41466  0.32547  0.78613  Biso   1.000  C
  C602     1.0000 0.58534  0.67453  0.78613  Biso   1.000  C
  C603     1.0000 0.17453  0.91466  0.28613  Biso   1.000  C
  C604     1.0000 0.82547  0.08534  0.28613  Biso   1.000  C
  C605     1.0000 0.08534  0.82547  0.71387  Biso   1.000  C
  C606     1.0000 0.91466  0.17453  0.71387  Biso   1.000  C
  C607     1.0000 0.32547  0.41466  0.21387  Biso   1.000  C
  C608     1.0000 0.67453  0.58534  0.21387  Biso   1.000  C
  C609     1.0000 0.44282  0.80639  0.04326  Biso   1.000  C
  C610     1.0000 0.55718  0.19361  0.04326  Biso   1.000  C
  C611     1.0000 0.69361  0.94282  0.54326  Biso   1.000  C
  C612     1.0000 0.30639  0.05718  0.54326  Biso   1.000  C
  C613     1.0000 0.05718  0.30639  0.45674  Biso   1.000  C
  C614     1.0000 0.94282  0.69361  0.45674  Biso   1.000  C
  C615     1.0000 0.80639  0.44282  0.95674  Biso   1.000  C
  C616     1.0000 0.19361  0.55718  0.95674  Biso   1.000  C
  C617     1.0000 0.55718  0.19361  0.95674  Biso   1.000  C
  C618     1.0000 0.44282  0.80639  0.95674  Biso   1.000  C
  C619     1.0000 0.30639  0.05718  0.45674  Biso   1.000  C
  C620     1.0000 0.69361  0.94282  0.45674  Biso   1.000  C
  C621     1.0000 0.94282  0.69361  0.54326  Biso   1.000  C
  C622     1.0000 0.05718  0.30639  0.54326  Biso   1.000  C
  C623     1.0000 0.19361  0.55718  0.04326  Biso   1.000  C
  C624     1.0000 0.80639  0.44282  0.04326  Biso   1.000  C
  H273     1.0000 0.42420  0.83330  0.04380  Biso   1.000  H
  H274     1.0000 0.57580  0.16670  0.04380  Biso   1.000  H
  H275     1.0000 0.66670  0.92420  0.54380  Biso   1.000  H
  H276     1.0000 0.33330  0.07580  0.54380  Biso   1.000  H
  H277     1.0000 0.07580  0.33330  0.45620  Biso   1.000  H
  H278     1.0000 0.92420  0.66670  0.45620  Biso   1.000  H
  H279     1.0000 0.83330  0.42420  0.95620  Biso   1.000  H
  H280     1.0000 0.16670  0.57580  0.95620  Biso   1.000  H
  H281     1.0000 0.57580  0.16670  0.95620  Biso   1.000  H
  H282     1.0000 0.42420  0.83330  0.95620  Biso   1.000  H
  H283     1.0000 0.33330  0.07580  0.45620  Biso   1.000  H
  H284     1.0000 0.66670  0.92420  0.45620  Biso   1.000  H
  H285     1.0000 0.92420  0.66670  0.54380  Biso   1.000  H
  H286     1.0000 0.07580  0.33330  0.54380  Biso   1.000  H
  H287     1.0000 0.16670  0.57580  0.04380  Biso   1.000  H
  H288     1.0000 0.83330  0.42420  0.04380  Biso   1.000  H
