data_image0
_cell_length_a       22.5641
_cell_length_b       37.1408
_cell_length_c       30.0021
_cell_angle_alpha    90
_cell_angle_beta     105.686
_cell_angle_gamma    90

_symmetry_space_group_name_H-M    "P 1"
_symmetry_int_tables_number       1

loop_
  _symmetry_equiv_pos_as_xyz
  'x, y, z'

loop_
  _atom_site_label
  _atom_site_occupancy
  _atom_site_fract_x
  _atom_site_fract_y
  _atom_site_fract_z
  _atom_site_thermal_displace_type
  _atom_site_B_iso_or_equiv
  _atom_site_type_symbol
  C1       1.0000 0.33080  0.04070  0.29250  Biso   1.000  C
  C2       1.0000 0.66920  0.04070  0.20750  Biso   1.000  C
  C3       1.0000 0.83080  0.54070  0.29250  Biso   1.000  C
  C4       1.0000 0.16920  0.54070  0.20750  Biso   1.000  C
  C5       1.0000 0.66920  0.95930  0.70750  Biso   1.000  C
  C6       1.0000 0.33080  0.95930  0.79250  Biso   1.000  C
  C7       1.0000 0.16920  0.45930  0.70750  Biso   1.000  C
  C8       1.0000 0.83080  0.45930  0.79250  Biso   1.000  C
  C9       1.0000 0.38350  0.06470  0.31250  Biso   1.000  C
  C10      1.0000 0.61650  0.06470  0.18750  Biso   1.000  C
  C11      1.0000 0.88350  0.56470  0.31250  Biso   1.000  C
  C12      1.0000 0.11650  0.56470  0.18750  Biso   1.000  C
  C13      1.0000 0.61650  0.93530  0.68750  Biso   1.000  C
  C14      1.0000 0.38350  0.93530  0.81250  Biso   1.000  C
  C15      1.0000 0.11650  0.43530  0.68750  Biso   1.000  C
  C16      1.0000 0.88350  0.43530  0.81250  Biso   1.000  C
  C17      1.0000 0.37800  0.10180  0.30550  Biso   1.000  C
  C18      1.0000 0.62200  0.10180  0.19450  Biso   1.000  C
  C19      1.0000 0.87800  0.60180  0.30550  Biso   1.000  C
  C20      1.0000 0.12200  0.60180  0.19450  Biso   1.000  C
  C21      1.0000 0.62200  0.89820  0.69450  Biso   1.000  C
  C22      1.0000 0.37800  0.89820  0.80550  Biso   1.000  C
  C23      1.0000 0.12200  0.39820  0.69450  Biso   1.000  C
  C24      1.0000 0.87800  0.39820  0.80550  Biso   1.000  C
  H1       1.0000 0.34140  0.11170  0.28570  Biso   1.000  H
  H2       1.0000 0.65860  0.11170  0.21430  Biso   1.000  H
  H3       1.0000 0.84140  0.61170  0.28570  Biso   1.000  H
  H4       1.0000 0.15860  0.61170  0.21430  Biso   1.000  H
  H5       1.0000 0.65860  0.88830  0.71430  Biso   1.000  H
  H6       1.0000 0.34140  0.88830  0.78570  Biso   1.000  H
  H7       1.0000 0.15860  0.38830  0.71430  Biso   1.000  H
  H8       1.0000 0.84140  0.38830  0.78570  Biso   1.000  H
  C25      1.0000 0.42670  0.12430  0.32770  Biso   1.000  C
  C26      1.0000 0.57330  0.12430  0.17230  Biso   1.000  C
  C27      1.0000 0.92670  0.62430  0.32770  Biso   1.000  C
  C28      1.0000 0.07330  0.62430  0.17230  Biso   1.000  C
  C29      1.0000 0.57330  0.87570  0.67230  Biso   1.000  C
  C30      1.0000 0.42670  0.87570  0.82770  Biso   1.000  C
  C31      1.0000 0.07330  0.37570  0.67230  Biso   1.000  C
  C32      1.0000 0.92670  0.37570  0.82770  Biso   1.000  C
  C33      1.0000 0.48010  0.11060  0.35600  Biso   1.000  C
  C34      1.0000 0.51990  0.11060  0.14400  Biso   1.000  C
  C35      1.0000 0.98010  0.61060  0.35600  Biso   1.000  C
  C36      1.0000 0.01990  0.61060  0.14400  Biso   1.000  C
  C37      1.0000 0.51990  0.88940  0.64400  Biso   1.000  C
  C38      1.0000 0.48010  0.88940  0.85600  Biso   1.000  C
  C39      1.0000 0.01990  0.38940  0.64400  Biso   1.000  C
  C40      1.0000 0.98010  0.38940  0.85600  Biso   1.000  C
  C41      1.0000 0.48730  0.07260  0.36170  Biso   1.000  C
  C42      1.0000 0.51270  0.07260  0.13830  Biso   1.000  C
  C43      1.0000 0.98730  0.57260  0.36170  Biso   1.000  C
  C44      1.0000 0.01270  0.57260  0.13830  Biso   1.000  C
  C45      1.0000 0.51270  0.92740  0.63830  Biso   1.000  C
  C46      1.0000 0.48730  0.92740  0.86170  Biso   1.000  C
  C47      1.0000 0.01270  0.42740  0.63830  Biso   1.000  C
  C48      1.0000 0.98730  0.42740  0.86170  Biso   1.000  C
  C49      1.0000 0.43750  0.05040  0.33900  Biso   1.000  C
  C50      1.0000 0.56250  0.05040  0.16100  Biso   1.000  C
  C51      1.0000 0.93750  0.55040  0.33900  Biso   1.000  C
  C52      1.0000 0.06250  0.55040  0.16100  Biso   1.000  C
  C53      1.0000 0.56250  0.94960  0.66100  Biso   1.000  C
  C54      1.0000 0.43750  0.94960  0.83900  Biso   1.000  C
  C55      1.0000 0.06250  0.44960  0.66100  Biso   1.000  C
  C56      1.0000 0.93750  0.44960  0.83900  Biso   1.000  C
  H9       1.0000 0.44150  0.02500  0.34220  Biso   1.000  H
  H10      1.0000 0.55850  0.02500  0.15780  Biso   1.000  H
  H11      1.0000 0.94150  0.52500  0.34220  Biso   1.000  H
  H12      1.0000 0.05850  0.52500  0.15780  Biso   1.000  H
  H13      1.0000 0.55850  0.97500  0.65780  Biso   1.000  H
  H14      1.0000 0.44150  0.97500  0.84220  Biso   1.000  H
  H15      1.0000 0.05850  0.47500  0.65780  Biso   1.000  H
  H16      1.0000 0.94150  0.47500  0.84220  Biso   1.000  H
  C57      1.0000 0.42010  0.16480  0.31990  Biso   1.000  C
  C58      1.0000 0.57990  0.16480  0.18010  Biso   1.000  C
  C59      1.0000 0.92010  0.66480  0.31990  Biso   1.000  C
  C60      1.0000 0.07990  0.66480  0.18010  Biso   1.000  C
  C61      1.0000 0.57990  0.83520  0.68010  Biso   1.000  C
  C62      1.0000 0.42010  0.83520  0.81990  Biso   1.000  C
  C63      1.0000 0.07990  0.33520  0.68010  Biso   1.000  C
  C64      1.0000 0.92010  0.33520  0.81990  Biso   1.000  C
  H17      1.0000 0.38290  0.16980  0.29490  Biso   1.000  H
  H18      1.0000 0.61710  0.16980  0.20510  Biso   1.000  H
  H19      1.0000 0.88290  0.66980  0.29490  Biso   1.000  H
  H20      1.0000 0.11710  0.66980  0.20510  Biso   1.000  H
  H21      1.0000 0.61710  0.83020  0.70510  Biso   1.000  H
  H22      1.0000 0.38290  0.83020  0.79490  Biso   1.000  H
  H23      1.0000 0.11710  0.33020  0.70510  Biso   1.000  H
  H24      1.0000 0.88290  0.33020  0.79490  Biso   1.000  H
  H25      1.0000 0.45610  0.17410  0.31130  Biso   1.000  H
  H26      1.0000 0.54390  0.17410  0.18870  Biso   1.000  H
  H27      1.0000 0.95610  0.67410  0.31130  Biso   1.000  H
  H28      1.0000 0.04390  0.67410  0.18870  Biso   1.000  H
  H29      1.0000 0.54390  0.82590  0.68870  Biso   1.000  H
  H30      1.0000 0.45610  0.82590  0.81130  Biso   1.000  H
  H31      1.0000 0.04390  0.32590  0.68870  Biso   1.000  H
  H32      1.0000 0.95610  0.32590  0.81130  Biso   1.000  H
  H33      1.0000 0.41690  0.17660  0.34840  Biso   1.000  H
  H34      1.0000 0.58310  0.17660  0.15160  Biso   1.000  H
  H35      1.0000 0.91690  0.67660  0.34840  Biso   1.000  H
  H36      1.0000 0.08310  0.67660  0.15160  Biso   1.000  H
  H37      1.0000 0.58310  0.82340  0.65160  Biso   1.000  H
  H38      1.0000 0.41690  0.82340  0.84840  Biso   1.000  H
  H39      1.0000 0.08310  0.32340  0.65160  Biso   1.000  H
  H40      1.0000 0.91690  0.32340  0.84840  Biso   1.000  H
  C65      1.0000 0.54560  0.05780  0.38860  Biso   1.000  C
  C66      1.0000 0.45440  0.05780  0.11140  Biso   1.000  C
  C67      1.0000 0.04560  0.55780  0.38860  Biso   1.000  C
  C68      1.0000 0.95440  0.55780  0.11140  Biso   1.000  C
  C69      1.0000 0.45440  0.94220  0.61140  Biso   1.000  C
  C70      1.0000 0.54560  0.94220  0.88860  Biso   1.000  C
  C71      1.0000 0.95440  0.44220  0.61140  Biso   1.000  C
  C72      1.0000 0.04560  0.44220  0.88860  Biso   1.000  C
  H41      1.0000 0.55520  0.03610  0.37340  Biso   1.000  H
  H42      1.0000 0.44480  0.03610  0.12660  Biso   1.000  H
  H43      1.0000 0.05520  0.53610  0.37340  Biso   1.000  H
  H44      1.0000 0.94480  0.53610  0.12660  Biso   1.000  H
  H45      1.0000 0.44480  0.96390  0.62660  Biso   1.000  H
  H46      1.0000 0.55520  0.96390  0.87340  Biso   1.000  H
  H47      1.0000 0.94480  0.46390  0.62660  Biso   1.000  H
  H48      1.0000 0.05520  0.46390  0.87340  Biso   1.000  H
  H49      1.0000 0.54280  0.05180  0.41980  Biso   1.000  H
  H50      1.0000 0.45720  0.05180  0.08020  Biso   1.000  H
  H51      1.0000 0.04280  0.55180  0.41980  Biso   1.000  H
  H52      1.0000 0.95720  0.55180  0.08020  Biso   1.000  H
  H53      1.0000 0.45720  0.94820  0.58020  Biso   1.000  H
  H54      1.0000 0.54280  0.94820  0.91980  Biso   1.000  H
  H55      1.0000 0.95720  0.44820  0.58020  Biso   1.000  H
  H56      1.0000 0.04280  0.44820  0.91980  Biso   1.000  H
  H57      1.0000 0.57820  0.07570  0.39080  Biso   1.000  H
  H58      1.0000 0.42180  0.07570  0.10920  Biso   1.000  H
  H59      1.0000 0.07820  0.57570  0.39080  Biso   1.000  H
  H60      1.0000 0.92180  0.57570  0.10920  Biso   1.000  H
  H61      1.0000 0.42180  0.92430  0.60920  Biso   1.000  H
  H62      1.0000 0.57820  0.92430  0.89080  Biso   1.000  H
  H63      1.0000 0.92180  0.42430  0.60920  Biso   1.000  H
  H64      1.0000 0.07820  0.42430  0.89080  Biso   1.000  H
  C73      1.0000 0.67180  0.20470  0.45720  Biso   1.000  C
  C74      1.0000 0.32820  0.20470  0.04280  Biso   1.000  C
  C75      1.0000 0.17180  0.70470  0.45720  Biso   1.000  C
  C76      1.0000 0.82820  0.70470  0.04280  Biso   1.000  C
  C77      1.0000 0.32820  0.79530  0.54280  Biso   1.000  C
  C78      1.0000 0.67180  0.79530  0.95720  Biso   1.000  C
  C79      1.0000 0.82820  0.29530  0.54280  Biso   1.000  C
  C80      1.0000 0.17180  0.29530  0.95720  Biso   1.000  C
  C81      1.0000 0.62340  0.17880  0.43140  Biso   1.000  C
  C82      1.0000 0.37660  0.17880  0.06860  Biso   1.000  C
  C83      1.0000 0.12340  0.67880  0.43140  Biso   1.000  C
  C84      1.0000 0.87660  0.67880  0.06860  Biso   1.000  C
  C85      1.0000 0.37660  0.82120  0.56860  Biso   1.000  C
  C86      1.0000 0.62340  0.82120  0.93140  Biso   1.000  C
  C87      1.0000 0.87660  0.32120  0.56860  Biso   1.000  C
  C88      1.0000 0.12340  0.32120  0.93140  Biso   1.000  C
  C89      1.0000 0.57880  0.16720  0.45010  Biso   1.000  C
  C90      1.0000 0.42120  0.16720  0.04990  Biso   1.000  C
  C91      1.0000 0.07880  0.66720  0.45010  Biso   1.000  C
  C92      1.0000 0.92120  0.66720  0.04990  Biso   1.000  C
  C93      1.0000 0.42120  0.83280  0.54990  Biso   1.000  C
  C94      1.0000 0.57880  0.83280  0.95010  Biso   1.000  C
  C95      1.0000 0.92120  0.33280  0.54990  Biso   1.000  C
  C96      1.0000 0.07880  0.33280  0.95010  Biso   1.000  C
  H65      1.0000 0.58030  0.17380  0.48100  Biso   1.000  H
  H66      1.0000 0.41970  0.17380  0.01900  Biso   1.000  H
  H67      1.0000 0.08030  0.67380  0.48100  Biso   1.000  H
  H68      1.0000 0.91970  0.67380  0.01900  Biso   1.000  H
  H69      1.0000 0.41970  0.82620  0.51900  Biso   1.000  H
  H70      1.0000 0.58030  0.82620  0.98100  Biso   1.000  H
  H71      1.0000 0.91970  0.32620  0.51900  Biso   1.000  H
  H72      1.0000 0.08030  0.32620  0.98100  Biso   1.000  H
  C97      1.0000 0.52990  0.14570  0.42480  Biso   1.000  C
  C98      1.0000 0.47010  0.14570  0.07520  Biso   1.000  C
  C99      1.0000 0.02990  0.64570  0.42480  Biso   1.000  C
  C100     1.0000 0.97010  0.64570  0.07520  Biso   1.000  C
  C101     1.0000 0.47010  0.85430  0.57520  Biso   1.000  C
  C102     1.0000 0.52990  0.85430  0.92480  Biso   1.000  C
  C103     1.0000 0.97010  0.35430  0.57520  Biso   1.000  C
  C104     1.0000 0.02990  0.35430  0.92480  Biso   1.000  C
  C105     1.0000 0.53030  0.13430  0.38210  Biso   1.000  C
  C106     1.0000 0.46970  0.13430  0.11790  Biso   1.000  C
  C107     1.0000 0.03030  0.63430  0.38210  Biso   1.000  C
  C108     1.0000 0.96970  0.63430  0.11790  Biso   1.000  C
  C109     1.0000 0.46970  0.86570  0.61790  Biso   1.000  C
  C110     1.0000 0.53030  0.86570  0.88210  Biso   1.000  C
  C111     1.0000 0.96970  0.36570  0.61790  Biso   1.000  C
  C112     1.0000 0.03030  0.36570  0.88210  Biso   1.000  C
  C113     1.0000 0.57720  0.14560  0.36140  Biso   1.000  C
  C114     1.0000 0.42280  0.14560  0.13860  Biso   1.000  C
  C115     1.0000 0.07720  0.64560  0.36140  Biso   1.000  C
  C116     1.0000 0.92280  0.64560  0.13860  Biso   1.000  C
  C117     1.0000 0.42280  0.85440  0.63860  Biso   1.000  C
  C118     1.0000 0.57720  0.85440  0.86140  Biso   1.000  C
  C119     1.0000 0.92280  0.35440  0.63860  Biso   1.000  C
  C120     1.0000 0.07720  0.35440  0.86140  Biso   1.000  C
  C121     1.0000 0.62140  0.16780  0.38760  Biso   1.000  C
  C122     1.0000 0.37860  0.16780  0.11240  Biso   1.000  C
  C123     1.0000 0.12140  0.66780  0.38760  Biso   1.000  C
  C124     1.0000 0.87860  0.66780  0.11240  Biso   1.000  C
  C125     1.0000 0.37860  0.83220  0.61240  Biso   1.000  C
  C126     1.0000 0.62140  0.83220  0.88760  Biso   1.000  C
  C127     1.0000 0.87860  0.33220  0.61240  Biso   1.000  C
  C128     1.0000 0.12140  0.33220  0.88760  Biso   1.000  C
  H73      1.0000 0.65270  0.17610  0.37440  Biso   1.000  H
  H74      1.0000 0.34730  0.17610  0.12560  Biso   1.000  H
  H75      1.0000 0.15270  0.67610  0.37440  Biso   1.000  H
  H76      1.0000 0.84730  0.67610  0.12560  Biso   1.000  H
  H77      1.0000 0.34730  0.82390  0.62560  Biso   1.000  H
  H78      1.0000 0.65270  0.82390  0.87440  Biso   1.000  H
  H79      1.0000 0.84730  0.32390  0.62560  Biso   1.000  H
  H80      1.0000 0.15270  0.32390  0.87440  Biso   1.000  H
  C129     1.0000 0.48400  0.13080  0.44620  Biso   1.000  C
  C130     1.0000 0.51600  0.13080  0.05380  Biso   1.000  C
  C131     1.0000 0.98400  0.63080  0.44620  Biso   1.000  C
  C132     1.0000 0.01600  0.63080  0.05380  Biso   1.000  C
  C133     1.0000 0.51600  0.86920  0.55380  Biso   1.000  C
  C134     1.0000 0.48400  0.86920  0.94620  Biso   1.000  C
  C135     1.0000 0.01600  0.36920  0.55380  Biso   1.000  C
  C136     1.0000 0.98400  0.36920  0.94620  Biso   1.000  C
  H81      1.0000 0.47110  0.10690  0.43320  Biso   1.000  H
  H82      1.0000 0.52890  0.10690  0.06680  Biso   1.000  H
  H83      1.0000 0.97110  0.60690  0.43320  Biso   1.000  H
  H84      1.0000 0.02890  0.60690  0.06680  Biso   1.000  H
  H85      1.0000 0.52890  0.89310  0.56680  Biso   1.000  H
  H86      1.0000 0.47110  0.89310  0.93320  Biso   1.000  H
  H87      1.0000 0.02890  0.39310  0.56680  Biso   1.000  H
  H88      1.0000 0.97110  0.39310  0.93320  Biso   1.000  H
  H89      1.0000 0.50200  0.12870  0.47970  Biso   1.000  H
  H90      1.0000 0.49800  0.12870  0.02030  Biso   1.000  H
  H91      1.0000 0.00200  0.62870  0.47970  Biso   1.000  H
  H92      1.0000 0.99800  0.62870  0.02030  Biso   1.000  H
  H93      1.0000 0.49800  0.87130  0.52030  Biso   1.000  H
  H94      1.0000 0.50200  0.87130  0.97970  Biso   1.000  H
  H95      1.0000 0.99800  0.37130  0.52030  Biso   1.000  H
  H96      1.0000 0.00200  0.37130  0.97970  Biso   1.000  H
  H97      1.0000 0.44820  0.14680  0.44010  Biso   1.000  H
  H98      1.0000 0.55180  0.14680  0.05990  Biso   1.000  H
  H99      1.0000 0.94820  0.64680  0.44010  Biso   1.000  H
  H100     1.0000 0.05180  0.64680  0.05990  Biso   1.000  H
  H101     1.0000 0.55180  0.85320  0.55990  Biso   1.000  H
  H102     1.0000 0.44820  0.85320  0.94010  Biso   1.000  H
  H103     1.0000 0.05180  0.35320  0.55990  Biso   1.000  H
  H104     1.0000 0.94820  0.35320  0.94010  Biso   1.000  H
  C137     1.0000 0.57680  0.13320  0.31410  Biso   1.000  C
  C138     1.0000 0.42320  0.13320  0.18590  Biso   1.000  C
  C139     1.0000 0.07680  0.63320  0.31410  Biso   1.000  C
  C140     1.0000 0.92320  0.63320  0.18590  Biso   1.000  C
  C141     1.0000 0.42320  0.86680  0.68590  Biso   1.000  C
  C142     1.0000 0.57680  0.86680  0.81410  Biso   1.000  C
  C143     1.0000 0.92320  0.36680  0.68590  Biso   1.000  C
  C144     1.0000 0.07680  0.36680  0.81410  Biso   1.000  C
  H105     1.0000 0.61790  0.13630  0.30960  Biso   1.000  H
  H106     1.0000 0.38210  0.13630  0.19040  Biso   1.000  H
  H107     1.0000 0.11790  0.63630  0.30960  Biso   1.000  H
  H108     1.0000 0.88210  0.63630  0.19040  Biso   1.000  H
  H109     1.0000 0.38210  0.86370  0.69040  Biso   1.000  H
  H110     1.0000 0.61790  0.86370  0.80960  Biso   1.000  H
  H111     1.0000 0.88210  0.36370  0.69040  Biso   1.000  H
  H112     1.0000 0.11790  0.36370  0.80960  Biso   1.000  H
  H113     1.0000 0.56530  0.10770  0.31070  Biso   1.000  H
  H114     1.0000 0.43470  0.10770  0.18930  Biso   1.000  H
  H115     1.0000 0.06530  0.60770  0.31070  Biso   1.000  H
  H116     1.0000 0.93470  0.60770  0.18930  Biso   1.000  H
  H117     1.0000 0.43470  0.89230  0.68930  Biso   1.000  H
  H118     1.0000 0.56530  0.89230  0.81070  Biso   1.000  H
  H119     1.0000 0.93470  0.39230  0.68930  Biso   1.000  H
  H120     1.0000 0.06530  0.39230  0.81070  Biso   1.000  H
  H121     1.0000 0.54690  0.14740  0.29100  Biso   1.000  H
  H122     1.0000 0.45310  0.14740  0.20900  Biso   1.000  H
  H123     1.0000 0.04690  0.64740  0.29100  Biso   1.000  H
  H124     1.0000 0.95310  0.64740  0.20900  Biso   1.000  H
  H125     1.0000 0.45310  0.85260  0.70900  Biso   1.000  H
  H126     1.0000 0.54690  0.85260  0.79100  Biso   1.000  H
  H127     1.0000 0.95310  0.35260  0.70900  Biso   1.000  H
  H128     1.0000 0.04690  0.35260  0.79100  Biso   1.000  H
  C145     1.0000 0.14550  0.96070  0.23140  Biso   1.000  C
  C146     1.0000 0.85450  0.96070  0.26860  Biso   1.000  C
  C147     1.0000 0.64550  0.46070  0.23140  Biso   1.000  C
  C148     1.0000 0.35450  0.46070  0.26860  Biso   1.000  C
  C149     1.0000 0.85450  0.03930  0.76860  Biso   1.000  C
  C150     1.0000 0.14550  0.03930  0.73140  Biso   1.000  C
  C151     1.0000 0.35450  0.53930  0.76860  Biso   1.000  C
  C152     1.0000 0.64550  0.53930  0.73140  Biso   1.000  C
  C153     1.0000 0.09150  0.93750  0.20960  Biso   1.000  C
  C154     1.0000 0.90850  0.93750  0.29040  Biso   1.000  C
  C155     1.0000 0.59150  0.43750  0.20960  Biso   1.000  C
  C156     1.0000 0.40850  0.43750  0.29040  Biso   1.000  C
  C157     1.0000 0.90850  0.06250  0.79040  Biso   1.000  C
  C158     1.0000 0.09150  0.06250  0.70960  Biso   1.000  C
  C159     1.0000 0.40850  0.56250  0.79040  Biso   1.000  C
  C160     1.0000 0.59150  0.56250  0.70960  Biso   1.000  C
  C161     1.0000 0.10230  0.90180  0.19810  Biso   1.000  C
  C162     1.0000 0.89770  0.90180  0.30190  Biso   1.000  C
  C163     1.0000 0.60230  0.40180  0.19810  Biso   1.000  C
  C164     1.0000 0.39770  0.40180  0.30190  Biso   1.000  C
  C165     1.0000 0.89770  0.09820  0.80190  Biso   1.000  C
  C166     1.0000 0.10230  0.09820  0.69810  Biso   1.000  C
  C167     1.0000 0.39770  0.59820  0.80190  Biso   1.000  C
  C168     1.0000 0.60230  0.59820  0.69810  Biso   1.000  C
  H129     1.0000 0.14290  0.89230  0.20650  Biso   1.000  H
  H130     1.0000 0.85710  0.89230  0.29350  Biso   1.000  H
  H131     1.0000 0.64290  0.39230  0.20650  Biso   1.000  H
  H132     1.0000 0.35710  0.39230  0.29350  Biso   1.000  H
  H133     1.0000 0.85710  0.10770  0.79350  Biso   1.000  H
  H134     1.0000 0.14290  0.10770  0.70650  Biso   1.000  H
  H135     1.0000 0.35710  0.60770  0.79350  Biso   1.000  H
  H136     1.0000 0.64290  0.60770  0.70650  Biso   1.000  H
  C169     1.0000 0.05320  0.88050  0.17430  Biso   1.000  C
  C170     1.0000 0.94680  0.88050  0.32570  Biso   1.000  C
  C171     1.0000 0.55320  0.38050  0.17430  Biso   1.000  C
  C172     1.0000 0.44680  0.38050  0.32570  Biso   1.000  C
  C173     1.0000 0.94680  0.11950  0.82570  Biso   1.000  C
  C174     1.0000 0.05320  0.11950  0.67430  Biso   1.000  C
  C175     1.0000 0.44680  0.61950  0.82570  Biso   1.000  C
  C176     1.0000 0.55320  0.61950  0.67430  Biso   1.000  C
  C177     1.0000 0.99490  0.89490  0.16110  Biso   1.000  C
  C178     1.0000 0.00510  0.89490  0.33890  Biso   1.000  C
  C179     1.0000 0.49490  0.39490  0.16110  Biso   1.000  C
  C180     1.0000 0.50510  0.39490  0.33890  Biso   1.000  C
  C181     1.0000 0.00510  0.10510  0.83890  Biso   1.000  C
  C182     1.0000 0.99490  0.10510  0.66110  Biso   1.000  C
  C183     1.0000 0.50510  0.60510  0.83890  Biso   1.000  C
  C184     1.0000 0.49490  0.60510  0.66110  Biso   1.000  C
  C185     1.0000 0.98240  0.93060  0.17360  Biso   1.000  C
  C186     1.0000 0.01760  0.93060  0.32640  Biso   1.000  C
  C187     1.0000 0.48240  0.43060  0.17360  Biso   1.000  C
  C188     1.0000 0.51760  0.43060  0.32640  Biso   1.000  C
  C189     1.0000 0.01760  0.06940  0.82640  Biso   1.000  C
  C190     1.0000 0.98240  0.06940  0.67360  Biso   1.000  C
  C191     1.0000 0.51760  0.56940  0.82640  Biso   1.000  C
  C192     1.0000 0.48240  0.56940  0.67360  Biso   1.000  C
  C193     1.0000 0.03210  0.95060  0.19780  Biso   1.000  C
  C194     1.0000 0.96790  0.95060  0.30220  Biso   1.000  C
  C195     1.0000 0.53210  0.45060  0.19780  Biso   1.000  C
  C196     1.0000 0.46790  0.45060  0.30220  Biso   1.000  C
  C197     1.0000 0.96790  0.04940  0.80220  Biso   1.000  C
  C198     1.0000 0.03210  0.04940  0.69780  Biso   1.000  C
  C199     1.0000 0.46790  0.54940  0.80220  Biso   1.000  C
  C200     1.0000 0.53210  0.54940  0.69780  Biso   1.000  C
  H137     1.0000 0.02520  0.97440  0.20670  Biso   1.000  H
  H138     1.0000 0.97480  0.97440  0.29330  Biso   1.000  H
  H139     1.0000 0.52520  0.47440  0.20670  Biso   1.000  H
  H140     1.0000 0.47480  0.47440  0.29330  Biso   1.000  H
  H141     1.0000 0.97480  0.02560  0.79330  Biso   1.000  H
  H142     1.0000 0.02520  0.02560  0.70670  Biso   1.000  H
  H143     1.0000 0.47480  0.52560  0.79330  Biso   1.000  H
  H144     1.0000 0.52520  0.52560  0.70670  Biso   1.000  H
  C201     1.0000 0.06630  0.84190  0.16200  Biso   1.000  C
  C202     1.0000 0.93370  0.84190  0.33800  Biso   1.000  C
  C203     1.0000 0.56630  0.34190  0.16200  Biso   1.000  C
  C204     1.0000 0.43370  0.34190  0.33800  Biso   1.000  C
  C205     1.0000 0.93370  0.15810  0.83800  Biso   1.000  C
  C206     1.0000 0.06630  0.15810  0.66200  Biso   1.000  C
  C207     1.0000 0.43370  0.65810  0.83800  Biso   1.000  C
  C208     1.0000 0.56630  0.65810  0.66200  Biso   1.000  C
  H145     1.0000 0.10620  0.83410  0.18190  Biso   1.000  H
  H146     1.0000 0.89380  0.83410  0.31810  Biso   1.000  H
  H147     1.0000 0.60620  0.33410  0.18190  Biso   1.000  H
  H148     1.0000 0.39380  0.33410  0.31810  Biso   1.000  H
  H149     1.0000 0.89380  0.16590  0.81810  Biso   1.000  H
  H150     1.0000 0.10620  0.16590  0.68190  Biso   1.000  H
  H151     1.0000 0.39380  0.66590  0.81810  Biso   1.000  H
  H152     1.0000 0.60620  0.66590  0.68190  Biso   1.000  H
  H153     1.0000 0.06710  0.84080  0.12950  Biso   1.000  H
  H154     1.0000 0.93290  0.84080  0.37050  Biso   1.000  H
  H155     1.0000 0.56710  0.34080  0.12950  Biso   1.000  H
  H156     1.0000 0.43290  0.34080  0.37050  Biso   1.000  H
  H157     1.0000 0.93290  0.15920  0.87050  Biso   1.000  H
  H158     1.0000 0.06710  0.15920  0.62950  Biso   1.000  H
  H159     1.0000 0.43290  0.65920  0.87050  Biso   1.000  H
  H160     1.0000 0.56710  0.65920  0.62950  Biso   1.000  H
  H161     1.0000 0.03390  0.82590  0.16660  Biso   1.000  H
  H162     1.0000 0.96610  0.82590  0.33340  Biso   1.000  H
  H163     1.0000 0.53390  0.32590  0.16660  Biso   1.000  H
  H164     1.0000 0.46610  0.32590  0.33340  Biso   1.000  H
  H165     1.0000 0.96610  0.17410  0.83340  Biso   1.000  H
  H166     1.0000 0.03390  0.17410  0.66660  Biso   1.000  H
  H167     1.0000 0.46610  0.67410  0.83340  Biso   1.000  H
  H168     1.0000 0.53390  0.67410  0.66660  Biso   1.000  H
  C209     1.0000 0.91820  0.94500  0.16090  Biso   1.000  C
  C210     1.0000 0.08180  0.94500  0.33910  Biso   1.000  C
  C211     1.0000 0.41820  0.44500  0.16090  Biso   1.000  C
  C212     1.0000 0.58180  0.44500  0.33910  Biso   1.000  C
  C213     1.0000 0.08180  0.05500  0.83910  Biso   1.000  C
  C214     1.0000 0.91820  0.05500  0.66090  Biso   1.000  C
  C215     1.0000 0.58180  0.55500  0.83910  Biso   1.000  C
  C216     1.0000 0.41820  0.55500  0.66090  Biso   1.000  C
  H169     1.0000 0.91730  0.96790  0.17680  Biso   1.000  H
  H170     1.0000 0.08270  0.96790  0.32320  Biso   1.000  H
  H171     1.0000 0.41730  0.46790  0.17680  Biso   1.000  H
  H172     1.0000 0.58270  0.46790  0.32320  Biso   1.000  H
  H173     1.0000 0.08270  0.03210  0.82320  Biso   1.000  H
  H174     1.0000 0.91730  0.03210  0.67680  Biso   1.000  H
  H175     1.0000 0.58270  0.53210  0.82320  Biso   1.000  H
  H176     1.0000 0.41730  0.53210  0.67680  Biso   1.000  H
  H177     1.0000 0.89100  0.92770  0.17020  Biso   1.000  H
  H178     1.0000 0.10900  0.92770  0.32980  Biso   1.000  H
  H179     1.0000 0.39100  0.42770  0.17020  Biso   1.000  H
  H180     1.0000 0.60900  0.42770  0.32980  Biso   1.000  H
  H181     1.0000 0.10900  0.07230  0.82980  Biso   1.000  H
  H182     1.0000 0.89100  0.07230  0.67020  Biso   1.000  H
  H183     1.0000 0.60900  0.57230  0.82980  Biso   1.000  H
  H184     1.0000 0.39100  0.57230  0.67020  Biso   1.000  H
  H185     1.0000 0.90420  0.94870  0.12740  Biso   1.000  H
  H186     1.0000 0.09580  0.94870  0.37260  Biso   1.000  H
  H187     1.0000 0.40420  0.44870  0.12740  Biso   1.000  H
  H188     1.0000 0.59580  0.44870  0.37260  Biso   1.000  H
  H189     1.0000 0.09580  0.05130  0.87260  Biso   1.000  H
  H190     1.0000 0.90420  0.05130  0.62740  Biso   1.000  H
  H191     1.0000 0.59580  0.55130  0.87260  Biso   1.000  H
  H192     1.0000 0.40420  0.55130  0.62740  Biso   1.000  H
  C217     1.0000 0.81370  0.79910  0.04660  Biso   1.000  C
  C218     1.0000 0.18630  0.79910  0.45340  Biso   1.000  C
  C219     1.0000 0.31370  0.29910  0.04660  Biso   1.000  C
  C220     1.0000 0.68630  0.29910  0.45340  Biso   1.000  C
  C221     1.0000 0.18630  0.20090  0.95340  Biso   1.000  C
  C222     1.0000 0.81370  0.20090  0.54660  Biso   1.000  C
  C223     1.0000 0.68630  0.70090  0.95340  Biso   1.000  C
  C224     1.0000 0.31370  0.70090  0.54660  Biso   1.000  C
  C225     1.0000 0.85820  0.82620  0.07570  Biso   1.000  C
  C226     1.0000 0.14180  0.82620  0.42430  Biso   1.000  C
  C227     1.0000 0.35820  0.32620  0.07570  Biso   1.000  C
  C228     1.0000 0.64180  0.32620  0.42430  Biso   1.000  C
  C229     1.0000 0.14180  0.17380  0.92430  Biso   1.000  C
  C230     1.0000 0.85820  0.17380  0.57570  Biso   1.000  C
  C231     1.0000 0.64180  0.67380  0.92430  Biso   1.000  C
  C232     1.0000 0.35820  0.67380  0.57570  Biso   1.000  C
  C233     1.0000 0.86600  0.82690  0.12320  Biso   1.000  C
  C234     1.0000 0.13400  0.82690  0.37680  Biso   1.000  C
  C235     1.0000 0.36600  0.32690  0.12320  Biso   1.000  C
  C236     1.0000 0.63400  0.32690  0.37680  Biso   1.000  C
  C237     1.0000 0.13400  0.17310  0.87680  Biso   1.000  C
  C238     1.0000 0.86600  0.17310  0.62320  Biso   1.000  C
  C239     1.0000 0.63400  0.67310  0.87680  Biso   1.000  C
  C240     1.0000 0.36600  0.67310  0.62320  Biso   1.000  C
  H193     1.0000 0.84160  0.81170  0.13650  Biso   1.000  H
  H194     1.0000 0.15840  0.81170  0.36350  Biso   1.000  H
  H195     1.0000 0.34160  0.31170  0.13650  Biso   1.000  H
  H196     1.0000 0.65840  0.31170  0.36350  Biso   1.000  H
  H197     1.0000 0.15840  0.18830  0.86350  Biso   1.000  H
  H198     1.0000 0.84160  0.18830  0.63650  Biso   1.000  H
  H199     1.0000 0.65840  0.68830  0.86350  Biso   1.000  H
  H200     1.0000 0.34160  0.68830  0.63650  Biso   1.000  H
  C241     1.0000 0.90920  0.84970  0.15170  Biso   1.000  C
  C242     1.0000 0.09080  0.84970  0.34830  Biso   1.000  C
  C243     1.0000 0.40920  0.34970  0.15170  Biso   1.000  C
  C244     1.0000 0.59080  0.34970  0.34830  Biso   1.000  C
  C245     1.0000 0.09080  0.15030  0.84830  Biso   1.000  C
  C246     1.0000 0.90920  0.15030  0.65170  Biso   1.000  C
  C247     1.0000 0.59080  0.65030  0.84830  Biso   1.000  C
  C248     1.0000 0.40920  0.65030  0.65170  Biso   1.000  C
  C249     1.0000 0.94330  0.87230  0.13060  Biso   1.000  C
  C250     1.0000 0.05670  0.87230  0.36940  Biso   1.000  C
  C251     1.0000 0.44330  0.37230  0.13060  Biso   1.000  C
  C252     1.0000 0.55670  0.37230  0.36940  Biso   1.000  C
  C253     1.0000 0.05670  0.12770  0.86940  Biso   1.000  C
  C254     1.0000 0.94330  0.12770  0.63060  Biso   1.000  C
  C255     1.0000 0.55670  0.62770  0.86940  Biso   1.000  C
  C256     1.0000 0.44330  0.62770  0.63060  Biso   1.000  C
  C257     1.0000 0.93420  0.87240  0.08340  Biso   1.000  C
  C258     1.0000 0.06580  0.87240  0.41660  Biso   1.000  C
  C259     1.0000 0.43420  0.37240  0.08340  Biso   1.000  C
  C260     1.0000 0.56580  0.37240  0.41660  Biso   1.000  C
  C261     1.0000 0.06580  0.12760  0.91660  Biso   1.000  C
  C262     1.0000 0.93420  0.12760  0.58340  Biso   1.000  C
  C263     1.0000 0.56580  0.62760  0.91660  Biso   1.000  C
  C264     1.0000 0.43420  0.62760  0.58340  Biso   1.000  C
  C265     1.0000 0.89260  0.84860  0.05630  Biso   1.000  C
  C266     1.0000 0.10740  0.84860  0.44370  Biso   1.000  C
  C267     1.0000 0.39260  0.34860  0.05630  Biso   1.000  C
  C268     1.0000 0.60740  0.34860  0.44370  Biso   1.000  C
  C269     1.0000 0.10740  0.15140  0.94370  Biso   1.000  C
  C270     1.0000 0.89260  0.15140  0.55630  Biso   1.000  C
  C271     1.0000 0.60740  0.65140  0.94370  Biso   1.000  C
  C272     1.0000 0.39260  0.65140  0.55630  Biso   1.000  C
  H201     1.0000 0.88790  0.84770  0.02390  Biso   1.000  H
  H202     1.0000 0.11210  0.84770  0.47610  Biso   1.000  H
  H203     1.0000 0.38790  0.34770  0.02390  Biso   1.000  H
  H204     1.0000 0.61210  0.34770  0.47610  Biso   1.000  H
  H205     1.0000 0.11210  0.15230  0.97610  Biso   1.000  H
  H206     1.0000 0.88790  0.15230  0.52390  Biso   1.000  H
  H207     1.0000 0.61210  0.65230  0.97610  Biso   1.000  H
  H208     1.0000 0.38790  0.65230  0.52390  Biso   1.000  H
  C273     1.0000 0.91750  0.84870  0.20400  Biso   1.000  C
  C274     1.0000 0.08250  0.84870  0.29600  Biso   1.000  C
  C275     1.0000 0.41750  0.34870  0.20400  Biso   1.000  C
  C276     1.0000 0.58250  0.34870  0.29600  Biso   1.000  C
  C277     1.0000 0.08250  0.15130  0.79600  Biso   1.000  C
  C278     1.0000 0.91750  0.15130  0.70400  Biso   1.000  C
  C279     1.0000 0.58250  0.65130  0.79600  Biso   1.000  C
  C280     1.0000 0.41750  0.65130  0.70400  Biso   1.000  C
  H209     1.0000 0.92550  0.87310  0.21670  Biso   1.000  H
  H210     1.0000 0.07450  0.87310  0.28330  Biso   1.000  H
  H211     1.0000 0.42550  0.37310  0.21670  Biso   1.000  H
  H212     1.0000 0.57450  0.37310  0.28330  Biso   1.000  H
  H213     1.0000 0.07450  0.12690  0.78330  Biso   1.000  H
  H214     1.0000 0.92550  0.12690  0.71670  Biso   1.000  H
  H215     1.0000 0.57450  0.62690  0.78330  Biso   1.000  H
  H216     1.0000 0.42550  0.62690  0.71670  Biso   1.000  H
  H217     1.0000 0.95240  0.83300  0.21850  Biso   1.000  H
  H218     1.0000 0.04760  0.83300  0.28150  Biso   1.000  H
  H219     1.0000 0.45240  0.33300  0.21850  Biso   1.000  H
  H220     1.0000 0.54760  0.33300  0.28150  Biso   1.000  H
  H221     1.0000 0.04760  0.16700  0.78150  Biso   1.000  H
  H222     1.0000 0.95240  0.16700  0.71850  Biso   1.000  H
  H223     1.0000 0.54760  0.66700  0.78150  Biso   1.000  H
  H224     1.0000 0.45240  0.66700  0.71850  Biso   1.000  H
  H225     1.0000 0.88000  0.83920  0.21020  Biso   1.000  H
  H226     1.0000 0.12000  0.83920  0.28980  Biso   1.000  H
  H227     1.0000 0.38000  0.33920  0.21020  Biso   1.000  H
  H228     1.0000 0.62000  0.33920  0.28980  Biso   1.000  H
  H229     1.0000 0.12000  0.16080  0.78980  Biso   1.000  H
  H230     1.0000 0.88000  0.16080  0.71020  Biso   1.000  H
  H231     1.0000 0.62000  0.66080  0.78980  Biso   1.000  H
  H232     1.0000 0.38000  0.66080  0.71020  Biso   1.000  H
  C281     1.0000 0.97250  0.89660  0.06070  Biso   1.000  C
  C282     1.0000 0.02750  0.89660  0.43930  Biso   1.000  C
  C283     1.0000 0.47250  0.39660  0.06070  Biso   1.000  C
  C284     1.0000 0.52750  0.39660  0.43930  Biso   1.000  C
  C285     1.0000 0.02750  0.10340  0.93930  Biso   1.000  C
  C286     1.0000 0.97250  0.10340  0.56070  Biso   1.000  C
  C287     1.0000 0.52750  0.60340  0.93930  Biso   1.000  C
  C288     1.0000 0.47250  0.60340  0.56070  Biso   1.000  C
  H233     1.0000 0.97760  0.92030  0.07570  Biso   1.000  H
  H234     1.0000 0.02240  0.92030  0.42430  Biso   1.000  H
  H235     1.0000 0.47760  0.42030  0.07570  Biso   1.000  H
  H236     1.0000 0.52240  0.42030  0.42430  Biso   1.000  H
  H237     1.0000 0.02240  0.07970  0.92430  Biso   1.000  H
  H238     1.0000 0.97760  0.07970  0.57570  Biso   1.000  H
  H239     1.0000 0.52240  0.57970  0.92430  Biso   1.000  H
  H240     1.0000 0.47760  0.57970  0.57570  Biso   1.000  H
  H241     1.0000 0.95130  0.89940  0.02770  Biso   1.000  H
  H242     1.0000 0.04870  0.89940  0.47230  Biso   1.000  H
  H243     1.0000 0.45130  0.39940  0.02770  Biso   1.000  H
  H244     1.0000 0.54870  0.39940  0.47230  Biso   1.000  H
  H245     1.0000 0.04870  0.10060  0.97230  Biso   1.000  H
  H246     1.0000 0.95130  0.10060  0.52770  Biso   1.000  H
  H247     1.0000 0.54870  0.60060  0.97230  Biso   1.000  H
  H248     1.0000 0.45130  0.60060  0.52770  Biso   1.000  H
  H249     1.0000 0.01290  0.88560  0.06400  Biso   1.000  H
  H250     1.0000 0.98710  0.88560  0.43600  Biso   1.000  H
  H251     1.0000 0.51290  0.38560  0.06400  Biso   1.000  H
  H252     1.0000 0.48710  0.38560  0.43600  Biso   1.000  H
  H253     1.0000 0.98710  0.11440  0.93600  Biso   1.000  H
  H254     1.0000 0.01290  0.11440  0.56400  Biso   1.000  H
  H255     1.0000 0.48710  0.61440  0.93600  Biso   1.000  H
  H256     1.0000 0.51290  0.61440  0.56400  Biso   1.000  H
  C289     1.0000 0.24630  0.99120  0.68120  Biso   1.000  C
  C290     1.0000 0.75370  0.99120  0.81880  Biso   1.000  C
  C291     1.0000 0.74630  0.49120  0.68120  Biso   1.000  C
  C292     1.0000 0.25370  0.49120  0.81880  Biso   1.000  C
  C293     1.0000 0.75370  0.00880  0.31880  Biso   1.000  C
  C294     1.0000 0.24630  0.00880  0.18120  Biso   1.000  C
  C295     1.0000 0.25370  0.50880  0.31880  Biso   1.000  C
  C296     1.0000 0.74630  0.50880  0.18120  Biso   1.000  C
  C297     1.0000 0.24770  0.98770  0.63200  Biso   1.000  C
  C298     1.0000 0.75230  0.98770  0.86800  Biso   1.000  C
  C299     1.0000 0.74770  0.48770  0.63200  Biso   1.000  C
  C300     1.0000 0.25230  0.48770  0.86800  Biso   1.000  C
  C301     1.0000 0.75230  0.01230  0.36800  Biso   1.000  C
  C302     1.0000 0.24770  0.01230  0.13200  Biso   1.000  C
  C303     1.0000 0.25230  0.51230  0.36800  Biso   1.000  C
  C304     1.0000 0.74770  0.51230  0.13200  Biso   1.000  C
  C305     1.0000 0.20130  0.96940  0.60020  Biso   1.000  C
  C306     1.0000 0.79870  0.96940  0.89980  Biso   1.000  C
  C307     1.0000 0.70130  0.46940  0.60020  Biso   1.000  C
  C308     1.0000 0.29870  0.46940  0.89980  Biso   1.000  C
  C309     1.0000 0.79870  0.03060  0.39980  Biso   1.000  C
  C310     1.0000 0.20130  0.03060  0.10020  Biso   1.000  C
  C311     1.0000 0.29870  0.53060  0.39980  Biso   1.000  C
  C312     1.0000 0.70130  0.53060  0.10020  Biso   1.000  C
  H257     1.0000 0.16980  0.95770  0.61040  Biso   1.000  H
  H258     1.0000 0.83020  0.95770  0.88960  Biso   1.000  H
  H259     1.0000 0.66980  0.45770  0.61040  Biso   1.000  H
  H260     1.0000 0.33020  0.45770  0.88960  Biso   1.000  H
  H261     1.0000 0.83020  0.04230  0.38960  Biso   1.000  H
  H262     1.0000 0.16980  0.04230  0.11040  Biso   1.000  H
  H263     1.0000 0.33020  0.54230  0.38960  Biso   1.000  H
  H264     1.0000 0.66980  0.54230  0.11040  Biso   1.000  H
  C313     1.0000 0.20020  0.96780  0.55470  Biso   1.000  C
  C314     1.0000 0.79980  0.96780  0.94530  Biso   1.000  C
  C315     1.0000 0.70020  0.46780  0.55470  Biso   1.000  C
  C316     1.0000 0.29980  0.46780  0.94530  Biso   1.000  C
  C317     1.0000 0.79980  0.03220  0.44530  Biso   1.000  C
  C318     1.0000 0.20020  0.03220  0.05470  Biso   1.000  C
  C319     1.0000 0.29980  0.53220  0.44530  Biso   1.000  C
  C320     1.0000 0.70020  0.53220  0.05470  Biso   1.000  C
  C321     1.0000 0.24660  0.98490  0.53910  Biso   1.000  C
  C322     1.0000 0.75340  0.98490  0.96090  Biso   1.000  C
  C323     1.0000 0.74660  0.48490  0.53910  Biso   1.000  C
  C324     1.0000 0.25340  0.48490  0.96090  Biso   1.000  C
  C325     1.0000 0.75340  0.01510  0.46090  Biso   1.000  C
  C326     1.0000 0.24660  0.01510  0.03910  Biso   1.000  C
  C327     1.0000 0.25340  0.51510  0.46090  Biso   1.000  C
  C328     1.0000 0.74660  0.51510  0.03910  Biso   1.000  C
  C329     1.0000 0.29450  0.00100  0.57050  Biso   1.000  C
  C330     1.0000 0.70550  0.00100  0.92950  Biso   1.000  C
  C331     1.0000 0.79450  0.50100  0.57050  Biso   1.000  C
  C332     1.0000 0.20550  0.50100  0.92950  Biso   1.000  C
  C333     1.0000 0.70550  0.99900  0.42950  Biso   1.000  C
  C334     1.0000 0.29450  0.99900  0.07050  Biso   1.000  C
  C335     1.0000 0.20550  0.49900  0.42950  Biso   1.000  C
  C336     1.0000 0.79450  0.49900  0.07050  Biso   1.000  C
  C337     1.0000 0.29610  0.00210  0.61730  Biso   1.000  C
  C338     1.0000 0.70390  0.00210  0.88270  Biso   1.000  C
  C339     1.0000 0.79610  0.50210  0.61730  Biso   1.000  C
  C340     1.0000 0.20390  0.50210  0.88270  Biso   1.000  C
  C341     1.0000 0.70390  0.99790  0.38270  Biso   1.000  C
  C342     1.0000 0.29610  0.99790  0.11730  Biso   1.000  C
  C343     1.0000 0.20390  0.49790  0.38270  Biso   1.000  C
  C344     1.0000 0.79610  0.49790  0.11730  Biso   1.000  C
  H265     1.0000 0.33020  0.01270  0.63910  Biso   1.000  H
  H266     1.0000 0.66980  0.01270  0.86090  Biso   1.000  H
  H267     1.0000 0.83020  0.51270  0.63910  Biso   1.000  H
  H268     1.0000 0.16980  0.51270  0.86090  Biso   1.000  H
  H269     1.0000 0.66980  0.98730  0.36090  Biso   1.000  H
  H270     1.0000 0.33020  0.98730  0.13910  Biso   1.000  H
  H271     1.0000 0.16980  0.48730  0.36090  Biso   1.000  H
  H272     1.0000 0.83020  0.48730  0.13910  Biso   1.000  H
  C345     1.0000 0.14790  0.94860  0.52060  Biso   1.000  C
  C346     1.0000 0.85210  0.94860  0.97940  Biso   1.000  C
  C347     1.0000 0.64790  0.44860  0.52060  Biso   1.000  C
  C348     1.0000 0.35210  0.44860  0.97940  Biso   1.000  C
  C349     1.0000 0.85210  0.05140  0.47940  Biso   1.000  C
  C350     1.0000 0.14790  0.05140  0.02060  Biso   1.000  C
  C351     1.0000 0.35210  0.55140  0.47940  Biso   1.000  C
  C352     1.0000 0.64790  0.55140  0.02060  Biso   1.000  C
  H273     1.0000 0.11610  0.94220  0.53590  Biso   1.000  H
  H274     1.0000 0.88390  0.94220  0.96410  Biso   1.000  H
  H275     1.0000 0.61610  0.44220  0.53590  Biso   1.000  H
  H276     1.0000 0.38390  0.44220  0.96410  Biso   1.000  H
  H277     1.0000 0.88390  0.05780  0.46410  Biso   1.000  H
  H278     1.0000 0.11610  0.05780  0.03590  Biso   1.000  H
  H279     1.0000 0.38390  0.55780  0.46410  Biso   1.000  H
  H280     1.0000 0.61610  0.55780  0.03590  Biso   1.000  H
  H281     1.0000 0.13020  0.96440  0.49430  Biso   1.000  H
  H282     1.0000 0.86980  0.96440  0.00570  Biso   1.000  H
  H283     1.0000 0.63020  0.46440  0.49430  Biso   1.000  H
  H284     1.0000 0.36980  0.46440  0.00570  Biso   1.000  H
  H285     1.0000 0.86980  0.03560  0.50570  Biso   1.000  H
  H286     1.0000 0.13020  0.03560  0.99430  Biso   1.000  H
  H287     1.0000 0.36980  0.53560  0.50570  Biso   1.000  H
  H288     1.0000 0.63020  0.53560  0.99430  Biso   1.000  H
  H289     1.0000 0.16360  0.92670  0.50960  Biso   1.000  H
  H290     1.0000 0.83640  0.92670  0.99040  Biso   1.000  H
  H291     1.0000 0.66360  0.42670  0.50960  Biso   1.000  H
  H292     1.0000 0.33640  0.42670  0.99040  Biso   1.000  H
  H293     1.0000 0.83640  0.07330  0.49040  Biso   1.000  H
  H294     1.0000 0.16360  0.07330  0.00960  Biso   1.000  H
  H295     1.0000 0.33640  0.57330  0.49040  Biso   1.000  H
  H296     1.0000 0.66360  0.57330  0.00960  Biso   1.000  H
  C353     1.0000 0.34860  0.01710  0.55560  Biso   1.000  C
  C354     1.0000 0.65140  0.01710  0.94440  Biso   1.000  C
  C355     1.0000 0.84860  0.51710  0.55560  Biso   1.000  C
  C356     1.0000 0.15140  0.51710  0.94440  Biso   1.000  C
  C357     1.0000 0.65140  0.98290  0.44440  Biso   1.000  C
  C358     1.0000 0.34860  0.98290  0.05560  Biso   1.000  C
  C359     1.0000 0.15140  0.48290  0.44440  Biso   1.000  C
  C360     1.0000 0.84860  0.48290  0.05560  Biso   1.000  C
  H297     1.0000 0.34880  0.00740  0.52530  Biso   1.000  H
  H298     1.0000 0.65120  0.00740  0.97470  Biso   1.000  H
  H299     1.0000 0.84880  0.50740  0.52530  Biso   1.000  H
  H300     1.0000 0.15120  0.50740  0.97470  Biso   1.000  H
  H301     1.0000 0.65120  0.99260  0.47470  Biso   1.000  H
  H302     1.0000 0.34880  0.99260  0.02530  Biso   1.000  H
  H303     1.0000 0.15120  0.49260  0.47470  Biso   1.000  H
  H304     1.0000 0.84880  0.49260  0.02530  Biso   1.000  H
  H305     1.0000 0.34430  0.04330  0.55370  Biso   1.000  H
  H306     1.0000 0.65570  0.04330  0.94630  Biso   1.000  H
  H307     1.0000 0.84430  0.54330  0.55370  Biso   1.000  H
  H308     1.0000 0.15570  0.54330  0.94630  Biso   1.000  H
  H309     1.0000 0.65570  0.95670  0.44630  Biso   1.000  H
  H310     1.0000 0.34430  0.95670  0.05370  Biso   1.000  H
  H311     1.0000 0.15570  0.45670  0.44630  Biso   1.000  H
  H312     1.0000 0.84430  0.45670  0.05370  Biso   1.000  H
  H313     1.0000 0.38720  0.01080  0.57840  Biso   1.000  H
  H314     1.0000 0.61280  0.01080  0.92160  Biso   1.000  H
  H315     1.0000 0.88720  0.51080  0.57840  Biso   1.000  H
  H316     1.0000 0.11280  0.51080  0.92160  Biso   1.000  H
  H317     1.0000 0.61280  0.98920  0.42160  Biso   1.000  H
  H318     1.0000 0.38720  0.98920  0.07840  Biso   1.000  H
  H319     1.0000 0.11280  0.48920  0.42160  Biso   1.000  H
  H320     1.0000 0.88720  0.48920  0.07840  Biso   1.000  H
  C361     1.0000 0.23500  0.99220  0.34490  Biso   1.000  C
  C362     1.0000 0.76500  0.99220  0.15510  Biso   1.000  C
  C363     1.0000 0.73500  0.49220  0.34490  Biso   1.000  C
  C364     1.0000 0.26500  0.49220  0.15510  Biso   1.000  C
  C365     1.0000 0.76500  0.00780  0.65510  Biso   1.000  C
  C366     1.0000 0.23500  0.00780  0.84490  Biso   1.000  C
  C367     1.0000 0.26500  0.50780  0.65510  Biso   1.000  C
  C368     1.0000 0.73500  0.50780  0.84490  Biso   1.000  C
  C369     1.0000 0.23560  0.98850  0.39510  Biso   1.000  C
  C370     1.0000 0.76440  0.98850  0.10490  Biso   1.000  C
  C371     1.0000 0.73560  0.48850  0.39510  Biso   1.000  C
  C372     1.0000 0.26440  0.48850  0.10490  Biso   1.000  C
  C373     1.0000 0.76440  0.01150  0.60490  Biso   1.000  C
  C374     1.0000 0.23560  0.01150  0.89510  Biso   1.000  C
  C375     1.0000 0.26440  0.51150  0.60490  Biso   1.000  C
  C376     1.0000 0.73560  0.51150  0.89510  Biso   1.000  C
  C377     1.0000 0.21050  0.01610  0.41470  Biso   1.000  C
  C378     1.0000 0.78950  0.01610  0.08530  Biso   1.000  C
  C379     1.0000 0.71050  0.51610  0.41470  Biso   1.000  C
  C380     1.0000 0.28950  0.51610  0.08530  Biso   1.000  C
  C381     1.0000 0.78950  0.98390  0.58530  Biso   1.000  C
  C382     1.0000 0.21050  0.98390  0.91470  Biso   1.000  C
  C383     1.0000 0.28950  0.48390  0.58530  Biso   1.000  C
  C384     1.0000 0.71050  0.48390  0.91470  Biso   1.000  C
  H321     1.0000 0.19080  0.03580  0.39640  Biso   1.000  H
  H322     1.0000 0.80920  0.03580  0.10360  Biso   1.000  H
  H323     1.0000 0.69080  0.53580  0.39640  Biso   1.000  H
  H324     1.0000 0.30920  0.53580  0.10360  Biso   1.000  H
  H325     1.0000 0.80920  0.96420  0.60360  Biso   1.000  H
  H326     1.0000 0.19080  0.96420  0.89640  Biso   1.000  H
  H327     1.0000 0.30920  0.46420  0.60360  Biso   1.000  H
  H328     1.0000 0.69080  0.46420  0.89640  Biso   1.000  H
  C385     1.0000 0.21440  0.01460  0.46280  Biso   1.000  C
  C386     1.0000 0.78560  0.01460  0.03720  Biso   1.000  C
  C387     1.0000 0.71440  0.51460  0.46280  Biso   1.000  C
  C388     1.0000 0.28560  0.51460  0.03720  Biso   1.000  C
  C389     1.0000 0.78560  0.98540  0.53720  Biso   1.000  C
  C390     1.0000 0.21440  0.98540  0.96280  Biso   1.000  C
  C391     1.0000 0.28560  0.48540  0.53720  Biso   1.000  C
  C392     1.0000 0.71440  0.48540  0.96280  Biso   1.000  C
  C393     1.0000 0.24330  0.98530  0.48910  Biso   1.000  C
  C394     1.0000 0.75670  0.98530  0.01090  Biso   1.000  C
  C395     1.0000 0.74330  0.48530  0.48910  Biso   1.000  C
  C396     1.0000 0.25670  0.48530  0.01090  Biso   1.000  C
  C397     1.0000 0.75670  0.01470  0.51090  Biso   1.000  C
  C398     1.0000 0.24330  0.01470  0.98910  Biso   1.000  C
  C399     1.0000 0.25670  0.51470  0.51090  Biso   1.000  C
  C400     1.0000 0.74330  0.51470  0.98910  Biso   1.000  C
  C401     1.0000 0.26780  0.95790  0.46780  Biso   1.000  C
  C402     1.0000 0.73220  0.95790  0.03220  Biso   1.000  C
  C403     1.0000 0.76780  0.45790  0.46780  Biso   1.000  C
  C404     1.0000 0.23220  0.45790  0.03220  Biso   1.000  C
  C405     1.0000 0.73220  0.04210  0.53220  Biso   1.000  C
  C406     1.0000 0.26780  0.04210  0.96780  Biso   1.000  C
  C407     1.0000 0.23220  0.54210  0.53220  Biso   1.000  C
  C408     1.0000 0.76780  0.54210  0.96780  Biso   1.000  C
  C409     1.0000 0.26270  0.95930  0.42060  Biso   1.000  C
  C410     1.0000 0.73730  0.95930  0.07940  Biso   1.000  C
  C411     1.0000 0.76270  0.45930  0.42060  Biso   1.000  C
  C412     1.0000 0.23730  0.45930  0.07940  Biso   1.000  C
  C413     1.0000 0.73730  0.04070  0.57940  Biso   1.000  C
  C414     1.0000 0.26270  0.04070  0.92060  Biso   1.000  C
  C415     1.0000 0.23730  0.54070  0.57940  Biso   1.000  C
  C416     1.0000 0.76270  0.54070  0.92060  Biso   1.000  C
  H329     1.0000 0.27790  0.94010  0.40600  Biso   1.000  H
  H330     1.0000 0.72210  0.94010  0.09400  Biso   1.000  H
  H331     1.0000 0.77790  0.44010  0.40600  Biso   1.000  H
  H332     1.0000 0.22210  0.44010  0.09400  Biso   1.000  H
  H333     1.0000 0.72210  0.05990  0.59400  Biso   1.000  H
  H334     1.0000 0.27790  0.05990  0.90600  Biso   1.000  H
  H335     1.0000 0.22210  0.55990  0.59400  Biso   1.000  H
  H336     1.0000 0.77790  0.55990  0.90600  Biso   1.000  H
  C417     1.0000 0.18910  0.04520  0.48490  Biso   1.000  C
  C418     1.0000 0.81090  0.04520  0.01510  Biso   1.000  C
  C419     1.0000 0.68910  0.54520  0.48490  Biso   1.000  C
  C420     1.0000 0.31090  0.54520  0.01510  Biso   1.000  C
  C421     1.0000 0.81090  0.95480  0.51510  Biso   1.000  C
  C422     1.0000 0.18910  0.95480  0.98490  Biso   1.000  C
  C423     1.0000 0.31090  0.45480  0.51510  Biso   1.000  C
  C424     1.0000 0.68910  0.45480  0.98490  Biso   1.000  C
  H337     1.0000 0.21700  0.05030  0.51550  Biso   1.000  H
  H338     1.0000 0.78300  0.05030  0.98450  Biso   1.000  H
  H339     1.0000 0.71700  0.55030  0.51550  Biso   1.000  H
  H340     1.0000 0.28300  0.55030  0.98450  Biso   1.000  H
  H341     1.0000 0.78300  0.94970  0.48450  Biso   1.000  H
  H342     1.0000 0.21700  0.94970  0.01550  Biso   1.000  H
  H343     1.0000 0.28300  0.44970  0.48450  Biso   1.000  H
  H344     1.0000 0.71700  0.44970  0.01550  Biso   1.000  H
  H345     1.0000 0.14850  0.03860  0.48840  Biso   1.000  H
  H346     1.0000 0.85150  0.03860  0.01160  Biso   1.000  H
  H347     1.0000 0.64850  0.53860  0.48840  Biso   1.000  H
  H348     1.0000 0.35150  0.53860  0.01160  Biso   1.000  H
  H349     1.0000 0.85150  0.96140  0.51160  Biso   1.000  H
  H350     1.0000 0.14850  0.96140  0.98840  Biso   1.000  H
  H351     1.0000 0.35150  0.46140  0.51160  Biso   1.000  H
  H352     1.0000 0.64850  0.46140  0.98840  Biso   1.000  H
  H353     1.0000 0.18530  0.06670  0.46540  Biso   1.000  H
  H354     1.0000 0.81470  0.06670  0.03460  Biso   1.000  H
  H355     1.0000 0.68530  0.56670  0.46540  Biso   1.000  H
  H356     1.0000 0.31470  0.56670  0.03460  Biso   1.000  H
  H357     1.0000 0.81470  0.93330  0.53460  Biso   1.000  H
  H358     1.0000 0.18530  0.93330  0.96540  Biso   1.000  H
  H359     1.0000 0.31470  0.43330  0.53460  Biso   1.000  H
  H360     1.0000 0.68530  0.43330  0.96540  Biso   1.000  H
  C425     1.0000 0.29700  0.92450  0.49540  Biso   1.000  C
  C426     1.0000 0.70300  0.92450  0.00460  Biso   1.000  C
  C427     1.0000 0.79700  0.42450  0.49540  Biso   1.000  C
  C428     1.0000 0.20300  0.42450  0.00460  Biso   1.000  C
  C429     1.0000 0.70300  0.07550  0.50460  Biso   1.000  C
  C430     1.0000 0.29700  0.07550  0.99540  Biso   1.000  C
  C431     1.0000 0.20300  0.57550  0.50460  Biso   1.000  C
  C432     1.0000 0.79700  0.57550  0.99540  Biso   1.000  C
  H361     1.0000 0.32510  0.91300  0.47980  Biso   1.000  H
  H362     1.0000 0.67490  0.91300  0.02020  Biso   1.000  H
  H363     1.0000 0.82510  0.41300  0.47980  Biso   1.000  H
  H364     1.0000 0.17490  0.41300  0.02020  Biso   1.000  H
  H365     1.0000 0.67490  0.08700  0.52020  Biso   1.000  H
  H366     1.0000 0.32510  0.08700  0.97980  Biso   1.000  H
  H367     1.0000 0.17490  0.58700  0.52020  Biso   1.000  H
  H368     1.0000 0.82510  0.58700  0.97980  Biso   1.000  H
  H369     1.0000 0.26460  0.90750  0.49730  Biso   1.000  H
  H370     1.0000 0.73540  0.90750  0.00270  Biso   1.000  H
  H371     1.0000 0.76460  0.40750  0.49730  Biso   1.000  H
  H372     1.0000 0.23540  0.40750  0.00270  Biso   1.000  H
  H373     1.0000 0.73540  0.09250  0.50270  Biso   1.000  H
  H374     1.0000 0.26460  0.09250  0.99730  Biso   1.000  H
  H375     1.0000 0.23540  0.59250  0.50270  Biso   1.000  H
  H376     1.0000 0.76460  0.59250  0.99730  Biso   1.000  H
  H377     1.0000 0.32000  0.93180  0.52670  Biso   1.000  H
  H378     1.0000 0.68000  0.93180  0.97330  Biso   1.000  H
  H379     1.0000 0.82000  0.43180  0.52670  Biso   1.000  H
  H380     1.0000 0.18000  0.43180  0.97330  Biso   1.000  H
  H381     1.0000 0.68000  0.06820  0.47330  Biso   1.000  H
  H382     1.0000 0.32000  0.06820  0.02670  Biso   1.000  H
  H383     1.0000 0.18000  0.56820  0.47330  Biso   1.000  H
  H384     1.0000 0.82000  0.56820  0.02670  Biso   1.000  H
  C433     1.0000 0.34280  0.91920  0.25660  Biso   1.000  C
  C434     1.0000 0.65720  0.91920  0.24340  Biso   1.000  C
  C435     1.0000 0.84280  0.41920  0.25660  Biso   1.000  C
  C436     1.0000 0.15720  0.41920  0.24340  Biso   1.000  C
  C437     1.0000 0.65720  0.08080  0.74340  Biso   1.000  C
  C438     1.0000 0.34280  0.08080  0.75660  Biso   1.000  C
  C439     1.0000 0.15720  0.58080  0.74340  Biso   1.000  C
  C440     1.0000 0.84280  0.58080  0.75660  Biso   1.000  C
  C441     1.0000 0.40080  0.86260  0.29030  Biso   1.000  C
  C442     1.0000 0.59920  0.86260  0.20970  Biso   1.000  C
  C443     1.0000 0.90080  0.36260  0.29030  Biso   1.000  C
  C444     1.0000 0.09920  0.36260  0.20970  Biso   1.000  C
  C445     1.0000 0.59920  0.13740  0.70970  Biso   1.000  C
  C446     1.0000 0.40080  0.13740  0.79030  Biso   1.000  C
  C447     1.0000 0.09920  0.63740  0.70970  Biso   1.000  C
  C448     1.0000 0.90080  0.63740  0.79030  Biso   1.000  C
  C449     1.0000 0.42920  0.88810  0.21140  Biso   1.000  C
  C450     1.0000 0.57080  0.88810  0.28860  Biso   1.000  C
  C451     1.0000 0.92920  0.38810  0.21140  Biso   1.000  C
  C452     1.0000 0.07080  0.38810  0.28860  Biso   1.000  C
  C453     1.0000 0.57080  0.11190  0.78860  Biso   1.000  C
  C454     1.0000 0.42920  0.11190  0.71140  Biso   1.000  C
  C455     1.0000 0.07080  0.61190  0.78860  Biso   1.000  C
  C456     1.0000 0.92920  0.61190  0.71140  Biso   1.000  C
  C457     1.0000 0.15520  0.09340  0.26990  Biso   1.000  C
  C458     1.0000 0.84480  0.09340  0.23010  Biso   1.000  C
  C459     1.0000 0.65520  0.59340  0.26990  Biso   1.000  C
  C460     1.0000 0.34480  0.59340  0.23010  Biso   1.000  C
  C461     1.0000 0.84480  0.90660  0.73010  Biso   1.000  C
  C462     1.0000 0.15520  0.90660  0.76990  Biso   1.000  C
  C463     1.0000 0.34480  0.40660  0.73010  Biso   1.000  C
  C464     1.0000 0.65520  0.40660  0.76990  Biso   1.000  C
  C465     1.0000 0.17440  0.16370  0.28100  Biso   1.000  C
  C466     1.0000 0.82560  0.16370  0.21900  Biso   1.000  C
  C467     1.0000 0.67440  0.66370  0.28100  Biso   1.000  C
  C468     1.0000 0.32560  0.66370  0.21900  Biso   1.000  C
  C469     1.0000 0.82560  0.83630  0.71900  Biso   1.000  C
  C470     1.0000 0.17440  0.83630  0.78100  Biso   1.000  C
  C471     1.0000 0.32560  0.33630  0.71900  Biso   1.000  C
  C472     1.0000 0.67440  0.33630  0.78100  Biso   1.000  C
  C473     1.0000 0.09280  0.13580  0.22300  Biso   1.000  C
  C474     1.0000 0.90720  0.13580  0.27700  Biso   1.000  C
  C475     1.0000 0.59280  0.63580  0.22300  Biso   1.000  C
  C476     1.0000 0.40720  0.63580  0.27700  Biso   1.000  C
  C477     1.0000 0.90720  0.86420  0.77700  Biso   1.000  C
  C478     1.0000 0.09280  0.86420  0.72300  Biso   1.000  C
  C479     1.0000 0.40720  0.36420  0.77700  Biso   1.000  C
  C480     1.0000 0.59280  0.36420  0.72300  Biso   1.000  C
  C481     1.0000 0.86680  0.25320  0.41980  Biso   1.000  C
  C482     1.0000 0.13320  0.25320  0.08020  Biso   1.000  C
  C483     1.0000 0.36680  0.75320  0.41980  Biso   1.000  C
  C484     1.0000 0.63320  0.75320  0.08020  Biso   1.000  C
  C485     1.0000 0.13320  0.74680  0.58020  Biso   1.000  C
  C486     1.0000 0.86680  0.74680  0.91980  Biso   1.000  C
  C487     1.0000 0.63320  0.24680  0.58020  Biso   1.000  C
  C488     1.0000 0.36680  0.24680  0.91980  Biso   1.000  C
  C489     1.0000 0.95420  0.29280  0.39550  Biso   1.000  C
  C490     1.0000 0.04580  0.29280  0.10450  Biso   1.000  C
  C491     1.0000 0.45420  0.79280  0.39550  Biso   1.000  C
  C492     1.0000 0.54580  0.79280  0.10450  Biso   1.000  C
  C493     1.0000 0.04580  0.70720  0.60450  Biso   1.000  C
  C494     1.0000 0.95420  0.70720  0.89550  Biso   1.000  C
  C495     1.0000 0.54580  0.20720  0.60450  Biso   1.000  C
  C496     1.0000 0.45420  0.20720  0.89550  Biso   1.000  C
  C497     1.0000 0.87790  0.22770  0.34100  Biso   1.000  C
  C498     1.0000 0.12210  0.22770  0.15900  Biso   1.000  C
  C499     1.0000 0.37790  0.72770  0.34100  Biso   1.000  C
  C500     1.0000 0.62210  0.72770  0.15900  Biso   1.000  C
  C501     1.0000 0.12210  0.77230  0.65900  Biso   1.000  C
  C502     1.0000 0.87790  0.77230  0.84100  Biso   1.000  C
  C503     1.0000 0.62210  0.27230  0.65900  Biso   1.000  C
  C504     1.0000 0.37790  0.27230  0.84100  Biso   1.000  C
  N1       1.0000 0.39490  0.88590  0.25410  Biso   1.000  N
  N2       1.0000 0.60510  0.88590  0.24590  Biso   1.000  N
  N3       1.0000 0.89490  0.38590  0.25410  Biso   1.000  N
  N4       1.0000 0.10510  0.38590  0.24590  Biso   1.000  N
  N5       1.0000 0.60510  0.11410  0.74590  Biso   1.000  N
  N6       1.0000 0.39490  0.11410  0.75410  Biso   1.000  N
  N7       1.0000 0.10510  0.61410  0.74590  Biso   1.000  N
  N8       1.0000 0.89490  0.61410  0.75410  Biso   1.000  N
  N9       1.0000 0.13920  0.13650  0.26280  Biso   1.000  N
  N10      1.0000 0.86080  0.13650  0.23720  Biso   1.000  N
  N11      1.0000 0.63920  0.63650  0.26280  Biso   1.000  N
  N12      1.0000 0.36080  0.63650  0.23720  Biso   1.000  N
  N13      1.0000 0.86080  0.86350  0.73720  Biso   1.000  N
  N14      1.0000 0.13920  0.86350  0.76280  Biso   1.000  N
  N15      1.0000 0.36080  0.36350  0.73720  Biso   1.000  N
  N16      1.0000 0.63920  0.36350  0.76280  Biso   1.000  N
  N17      1.0000 0.90490  0.25340  0.38280  Biso   1.000  N
  N18      1.0000 0.09510  0.25340  0.11720  Biso   1.000  N
  N19      1.0000 0.40490  0.75340  0.38280  Biso   1.000  N
  N20      1.0000 0.59510  0.75340  0.11720  Biso   1.000  N
  N21      1.0000 0.09510  0.74660  0.61720  Biso   1.000  N
  N22      1.0000 0.90490  0.74660  0.88280  Biso   1.000  N
  N23      1.0000 0.59510  0.24660  0.61720  Biso   1.000  N
  N24      1.0000 0.40490  0.24660  0.88280  Biso   1.000  N
  O1       1.0000 0.34060  0.00730  0.29570  Biso   1.000  O
  O2       1.0000 0.65940  0.00730  0.20430  Biso   1.000  O
  O3       1.0000 0.84060  0.50730  0.29570  Biso   1.000  O
  O4       1.0000 0.15940  0.50730  0.20430  Biso   1.000  O
  O5       1.0000 0.65940  0.99270  0.70430  Biso   1.000  O
  O6       1.0000 0.34060  0.99270  0.79570  Biso   1.000  O
  O7       1.0000 0.15940  0.49270  0.70430  Biso   1.000  O
  O8       1.0000 0.84060  0.49270  0.79570  Biso   1.000  O
  O9       1.0000 0.27840  0.05490  0.27430  Biso   1.000  O
  O10      1.0000 0.72160  0.05490  0.22570  Biso   1.000  O
  O11      1.0000 0.77840  0.55490  0.27430  Biso   1.000  O
  O12      1.0000 0.22160  0.55490  0.22570  Biso   1.000  O
  O13      1.0000 0.72160  0.94510  0.72570  Biso   1.000  O
  O14      1.0000 0.27840  0.94510  0.77430  Biso   1.000  O
  O15      1.0000 0.22160  0.44510  0.72570  Biso   1.000  O
  O16      1.0000 0.77840  0.44510  0.77430  Biso   1.000  O
  O17      1.0000 0.19810  0.94730  0.23850  Biso   1.000  O
  O18      1.0000 0.80190  0.94730  0.26150  Biso   1.000  O
  O19      1.0000 0.69810  0.44730  0.23850  Biso   1.000  O
  O20      1.0000 0.30190  0.44730  0.26150  Biso   1.000  O
  O21      1.0000 0.80190  0.05270  0.76150  Biso   1.000  O
  O22      1.0000 0.19810  0.05270  0.73850  Biso   1.000  O
  O23      1.0000 0.30190  0.55270  0.76150  Biso   1.000  O
  O24      1.0000 0.69810  0.55270  0.73850  Biso   1.000  O
  O25      1.0000 0.13350  0.99300  0.24110  Biso   1.000  O
  O26      1.0000 0.86650  0.99300  0.25890  Biso   1.000  O
  O27      1.0000 0.63350  0.49300  0.24110  Biso   1.000  O
  O28      1.0000 0.36650  0.49300  0.25890  Biso   1.000  O
  O29      1.0000 0.86650  0.00700  0.75890  Biso   1.000  O
  O30      1.0000 0.13350  0.00700  0.74110  Biso   1.000  O
  O31      1.0000 0.36650  0.50700  0.75890  Biso   1.000  O
  O32      1.0000 0.63350  0.50700  0.74110  Biso   1.000  O
  O33      1.0000 0.28210  0.01350  0.70590  Biso   1.000  O
  O34      1.0000 0.71790  0.01350  0.79410  Biso   1.000  O
  O35      1.0000 0.78210  0.51350  0.70590  Biso   1.000  O
  O36      1.0000 0.21790  0.51350  0.79410  Biso   1.000  O
  O37      1.0000 0.71790  0.98650  0.29410  Biso   1.000  O
  O38      1.0000 0.28210  0.98650  0.20590  Biso   1.000  O
  O39      1.0000 0.21790  0.48650  0.29410  Biso   1.000  O
  O40      1.0000 0.78210  0.48650  0.20590  Biso   1.000  O
  O41      1.0000 0.20630  0.97310  0.69330  Biso   1.000  O
  O42      1.0000 0.79370  0.97310  0.80670  Biso   1.000  O
  O43      1.0000 0.70630  0.47310  0.69330  Biso   1.000  O
  O44      1.0000 0.29370  0.47310  0.80670  Biso   1.000  O
  O45      1.0000 0.79370  0.02690  0.30670  Biso   1.000  O
  O46      1.0000 0.20630  0.02690  0.19330  Biso   1.000  O
  O47      1.0000 0.29370  0.52690  0.30670  Biso   1.000  O
  O48      1.0000 0.70630  0.52690  0.19330  Biso   1.000  O
  O49      1.0000 0.26000  0.96680  0.32790  Biso   1.000  O
  O50      1.0000 0.74000  0.96680  0.17210  Biso   1.000  O
  O51      1.0000 0.76000  0.46680  0.32790  Biso   1.000  O
  O52      1.0000 0.24000  0.46680  0.17210  Biso   1.000  O
  O53      1.0000 0.74000  0.03320  0.67210  Biso   1.000  O
  O54      1.0000 0.26000  0.03320  0.82790  Biso   1.000  O
  O55      1.0000 0.24000  0.53320  0.67210  Biso   1.000  O
  O56      1.0000 0.76000  0.53320  0.82790  Biso   1.000  O
  O57      1.0000 0.20970  0.01950  0.32330  Biso   1.000  O
  O58      1.0000 0.79030  0.01950  0.17670  Biso   1.000  O
  O59      1.0000 0.70970  0.51950  0.32330  Biso   1.000  O
  O60      1.0000 0.29030  0.51950  0.17670  Biso   1.000  O
  O61      1.0000 0.79030  0.98050  0.67670  Biso   1.000  O
  O62      1.0000 0.20970  0.98050  0.82330  Biso   1.000  O
  O63      1.0000 0.29030  0.48050  0.67670  Biso   1.000  O
  O64      1.0000 0.70970  0.48050  0.82330  Biso   1.000  O
  O65      1.0000 0.82390  0.79150  0.00760  Biso   1.000  O
  O66      1.0000 0.17610  0.79150  0.49240  Biso   1.000  O
  O67      1.0000 0.32390  0.29150  0.00760  Biso   1.000  O
  O68      1.0000 0.67610  0.29150  0.49240  Biso   1.000  O
  O69      1.0000 0.17610  0.20850  0.99240  Biso   1.000  O
  O70      1.0000 0.82390  0.20850  0.50760  Biso   1.000  O
  O71      1.0000 0.67610  0.70850  0.99240  Biso   1.000  O
  O72      1.0000 0.32390  0.70850  0.50760  Biso   1.000  O
  O73      1.0000 0.77560  0.78490  0.06400  Biso   1.000  O
  O74      1.0000 0.22440  0.78490  0.43600  Biso   1.000  O
  O75      1.0000 0.27560  0.28490  0.06400  Biso   1.000  O
  O76      1.0000 0.72440  0.28490  0.43600  Biso   1.000  O
  O77      1.0000 0.22440  0.21510  0.93600  Biso   1.000  O
  O78      1.0000 0.77560  0.21510  0.56400  Biso   1.000  O
  O79      1.0000 0.72440  0.71510  0.93600  Biso   1.000  O
  O80      1.0000 0.27560  0.71510  0.56400  Biso   1.000  O
  O81      1.0000 0.71510  0.21240  0.43870  Biso   1.000  O
  O82      1.0000 0.28490  0.21240  0.06130  Biso   1.000  O
  O83      1.0000 0.21510  0.71240  0.43870  Biso   1.000  O
  O84      1.0000 0.78490  0.71240  0.06130  Biso   1.000  O
  O85      1.0000 0.28490  0.78760  0.56130  Biso   1.000  O
  O86      1.0000 0.71510  0.78760  0.93870  Biso   1.000  O
  O87      1.0000 0.78490  0.28760  0.56130  Biso   1.000  O
  O88      1.0000 0.21510  0.28760  0.93870  Biso   1.000  O
  O89      1.0000 0.66610  0.21760  0.49450  Biso   1.000  O
  O90      1.0000 0.33390  0.21760  0.00550  Biso   1.000  O
  O91      1.0000 0.16610  0.71760  0.49450  Biso   1.000  O
  O92      1.0000 0.83390  0.71760  0.00550  Biso   1.000  O
  O93      1.0000 0.33390  0.78240  0.50550  Biso   1.000  O
  O94      1.0000 0.66610  0.78240  0.99450  Biso   1.000  O
  O95      1.0000 0.83390  0.28240  0.50550  Biso   1.000  O
  O96      1.0000 0.16610  0.28240  0.99450  Biso   1.000  O
  O97      1.0000 0.33310  0.92730  0.27540  Biso   1.000  O
  O98      1.0000 0.66690  0.92730  0.22460  Biso   1.000  O
  O99      1.0000 0.83310  0.42730  0.27540  Biso   1.000  O
  O100     1.0000 0.16690  0.42730  0.22460  Biso   1.000  O
  O101     1.0000 0.66690  0.07270  0.72460  Biso   1.000  O
  O102     1.0000 0.33310  0.07270  0.77540  Biso   1.000  O
  O103     1.0000 0.16690  0.57270  0.72460  Biso   1.000  O
  O104     1.0000 0.83310  0.57270  0.77540  Biso   1.000  O
  O105     1.0000 0.14730  0.07500  0.25020  Biso   1.000  O
  O106     1.0000 0.85270  0.07500  0.24980  Biso   1.000  O
  O107     1.0000 0.64730  0.57500  0.25020  Biso   1.000  O
  O108     1.0000 0.35270  0.57500  0.24980  Biso   1.000  O
  O109     1.0000 0.85270  0.92500  0.74980  Biso   1.000  O
  O110     1.0000 0.14730  0.92500  0.75020  Biso   1.000  O
  O111     1.0000 0.35270  0.42500  0.74980  Biso   1.000  O
  O112     1.0000 0.64730  0.42500  0.75020  Biso   1.000  O
  O113     1.0000 0.82910  0.24100  0.41660  Biso   1.000  O
  O114     1.0000 0.17090  0.24100  0.08340  Biso   1.000  O
  O115     1.0000 0.32910  0.74100  0.41660  Biso   1.000  O
  O116     1.0000 0.67090  0.74100  0.08340  Biso   1.000  O
  O117     1.0000 0.17090  0.75900  0.58340  Biso   1.000  O
  O118     1.0000 0.82910  0.75900  0.91660  Biso   1.000  O
  O119     1.0000 0.67090  0.25900  0.58340  Biso   1.000  O
  O120     1.0000 0.32910  0.25900  0.91660  Biso   1.000  O
  Cu1      1.0000 0.27527  0.97254  0.26741  Biso   1.000  Cu
  Cu2      1.0000 0.72473  0.97254  0.23259  Biso   1.000  Cu
  Cu3      1.0000 0.77527  0.47254  0.26741  Biso   1.000  Cu
  Cu4      1.0000 0.22473  0.47254  0.23259  Biso   1.000  Cu
  Cu5      1.0000 0.72473  0.02746  0.73259  Biso   1.000  Cu
  Cu6      1.0000 0.27527  0.02746  0.76741  Biso   1.000  Cu
  Cu7      1.0000 0.22473  0.52746  0.73259  Biso   1.000  Cu
  Cu8      1.0000 0.77527  0.52746  0.76741  Biso   1.000  Cu
  Cu9      1.0000 0.20144  0.02785  0.25754  Biso   1.000  Cu
  Cu10     1.0000 0.79856  0.02785  0.24246  Biso   1.000  Cu
  Cu11     1.0000 0.70144  0.52785  0.25754  Biso   1.000  Cu
  Cu12     1.0000 0.29856  0.52785  0.24246  Biso   1.000  Cu
  Cu13     1.0000 0.79856  0.97215  0.74246  Biso   1.000  Cu
  Cu14     1.0000 0.20144  0.97215  0.75754  Biso   1.000  Cu
  Cu15     1.0000 0.29856  0.47215  0.74246  Biso   1.000  Cu
  Cu16     1.0000 0.70144  0.47215  0.75754  Biso   1.000  Cu
  Cu17     1.0000 0.77892  0.24664  0.46770  Biso   1.000  Cu
  Cu18     1.0000 0.22108  0.24664  0.03230  Biso   1.000  Cu
  Cu19     1.0000 0.27892  0.74664  0.46770  Biso   1.000  Cu
  Cu20     1.0000 0.72108  0.74664  0.03230  Biso   1.000  Cu
  Cu21     1.0000 0.22108  0.75336  0.53230  Biso   1.000  Cu
  Cu22     1.0000 0.77892  0.75336  0.96770  Biso   1.000  Cu
  Cu23     1.0000 0.72108  0.25336  0.53230  Biso   1.000  Cu
  Cu24     1.0000 0.27892  0.25336  0.96770  Biso   1.000  Cu
