data_image0
_cell_length_a       19.736
_cell_length_b       33.437
_cell_length_c       19.734
_cell_angle_alpha    90
_cell_angle_beta     97.065
_cell_angle_gamma    90

_symmetry_space_group_name_H-M    "P 1"
_symmetry_int_tables_number       1

loop_
  _symmetry_equiv_pos_as_xyz
  'x, y, z'

loop_
  _atom_site_label
  _atom_site_occupancy
  _atom_site_fract_x
  _atom_site_fract_y
  _atom_site_fract_z
  _atom_site_thermal_displace_type
  _atom_site_B_iso_or_equiv
  _atom_site_type_symbol
  C1       1.0000 0.29650  0.58616  0.69230  Biso   1.000  C
  C2       1.0000 0.70350  0.58616  0.80770  Biso   1.000  C
  C3       1.0000 0.79650  0.08616  0.69230  Biso   1.000  C
  C4       1.0000 0.20350  0.08616  0.80770  Biso   1.000  C
  C5       1.0000 0.70350  0.41384  0.30770  Biso   1.000  C
  C6       1.0000 0.29650  0.41384  0.19230  Biso   1.000  C
  C7       1.0000 0.20350  0.91384  0.30770  Biso   1.000  C
  C8       1.0000 0.79650  0.91384  0.19230  Biso   1.000  C
  H1       1.0000 0.32542  0.56417  0.69318  Biso   1.000  H
  H2       1.0000 0.67458  0.56417  0.80682  Biso   1.000  H
  H3       1.0000 0.82542  0.06417  0.69318  Biso   1.000  H
  H4       1.0000 0.17458  0.06417  0.80682  Biso   1.000  H
  H5       1.0000 0.67458  0.43583  0.30682  Biso   1.000  H
  H6       1.0000 0.32542  0.43583  0.19318  Biso   1.000  H
  H7       1.0000 0.17458  0.93583  0.30682  Biso   1.000  H
  H8       1.0000 0.82542  0.93583  0.19318  Biso   1.000  H
  C9       1.0000 0.31020  0.61800  0.74010  Biso   1.000  C
  C10      1.0000 0.68980  0.61800  0.75990  Biso   1.000  C
  C11      1.0000 0.81020  0.11800  0.74010  Biso   1.000  C
  C12      1.0000 0.18980  0.11800  0.75990  Biso   1.000  C
  C13      1.0000 0.68980  0.38200  0.25990  Biso   1.000  C
  C14      1.0000 0.31020  0.38200  0.24010  Biso   1.000  C
  C15      1.0000 0.18980  0.88200  0.25990  Biso   1.000  C
  C16      1.0000 0.81020  0.88200  0.24010  Biso   1.000  C
  H9       1.0000 0.34806  0.61686  0.77310  Biso   1.000  H
  H10      1.0000 0.65194  0.61686  0.72690  Biso   1.000  H
  H11      1.0000 0.84806  0.11686  0.77310  Biso   1.000  H
  H12      1.0000 0.15194  0.11686  0.72690  Biso   1.000  H
  H13      1.0000 0.65194  0.38314  0.22690  Biso   1.000  H
  H14      1.0000 0.34806  0.38314  0.27310  Biso   1.000  H
  H15      1.0000 0.15194  0.88314  0.22690  Biso   1.000  H
  H16      1.0000 0.84806  0.88314  0.27310  Biso   1.000  H
  C17      1.0000 0.26700  0.65035  0.73710  Biso   1.000  C
  C18      1.0000 0.73300  0.65035  0.76290  Biso   1.000  C
  C19      1.0000 0.76700  0.15035  0.73710  Biso   1.000  C
  C20      1.0000 0.23300  0.15035  0.76290  Biso   1.000  C
  C21      1.0000 0.73300  0.34965  0.26290  Biso   1.000  C
  C22      1.0000 0.26700  0.34965  0.23710  Biso   1.000  C
  C23      1.0000 0.23300  0.84965  0.26290  Biso   1.000  C
  C24      1.0000 0.76700  0.84965  0.23710  Biso   1.000  C
  H17      1.0000 0.27634  0.67110  0.76819  Biso   1.000  H
  H18      1.0000 0.72366  0.67110  0.73181  Biso   1.000  H
  H19      1.0000 0.77634  0.17110  0.76819  Biso   1.000  H
  H20      1.0000 0.22366  0.17110  0.73181  Biso   1.000  H
  H21      1.0000 0.72366  0.32890  0.23181  Biso   1.000  H
  H22      1.0000 0.27634  0.32890  0.26819  Biso   1.000  H
  H23      1.0000 0.22366  0.82890  0.23181  Biso   1.000  H
  H24      1.0000 0.77634  0.82890  0.26819  Biso   1.000  H
  C25      1.0000 0.21040  0.65282  0.68920  Biso   1.000  C
  C26      1.0000 0.78960  0.65282  0.81080  Biso   1.000  C
  C27      1.0000 0.71040  0.15282  0.68920  Biso   1.000  C
  C28      1.0000 0.28960  0.15282  0.81080  Biso   1.000  C
  C29      1.0000 0.78960  0.34718  0.31080  Biso   1.000  C
  C30      1.0000 0.21040  0.34718  0.18920  Biso   1.000  C
  C31      1.0000 0.28960  0.84718  0.31080  Biso   1.000  C
  C32      1.0000 0.71040  0.84718  0.18920  Biso   1.000  C
  H25      1.0000 0.18169  0.67494  0.68801  Biso   1.000  H
  H26      1.0000 0.81831  0.67494  0.81199  Biso   1.000  H
  H27      1.0000 0.68169  0.17494  0.68801  Biso   1.000  H
  H28      1.0000 0.31831  0.17494  0.81199  Biso   1.000  H
  H29      1.0000 0.81831  0.32506  0.31199  Biso   1.000  H
  H30      1.0000 0.18169  0.32506  0.18801  Biso   1.000  H
  H31      1.0000 0.31831  0.82506  0.31199  Biso   1.000  H
  H32      1.0000 0.68169  0.82506  0.18801  Biso   1.000  H
  C33      1.0000 0.19650  0.62194  0.64260  Biso   1.000  C
  C34      1.0000 0.80350  0.62194  0.85740  Biso   1.000  C
  C35      1.0000 0.69650  0.12194  0.64260  Biso   1.000  C
  C36      1.0000 0.30350  0.12194  0.85740  Biso   1.000  C
  C37      1.0000 0.80350  0.37806  0.35740  Biso   1.000  C
  C38      1.0000 0.19650  0.37806  0.14260  Biso   1.000  C
  C39      1.0000 0.30350  0.87806  0.35740  Biso   1.000  C
  C40      1.0000 0.69650  0.87806  0.14260  Biso   1.000  C
  C41      1.0000 0.13880  0.62163  0.58970  Biso   1.000  C
  C42      1.0000 0.86120  0.62163  0.91030  Biso   1.000  C
  C43      1.0000 0.63880  0.12163  0.58970  Biso   1.000  C
  C44      1.0000 0.36120  0.12163  0.91030  Biso   1.000  C
  C45      1.0000 0.86120  0.37837  0.41030  Biso   1.000  C
  C46      1.0000 0.13880  0.37837  0.08970  Biso   1.000  C
  C47      1.0000 0.36120  0.87837  0.41030  Biso   1.000  C
  C48      1.0000 0.63880  0.87837  0.08970  Biso   1.000  C
  C49      1.0000 0.09160  0.65208  0.58170  Biso   1.000  C
  C50      1.0000 0.90840  0.65208  0.91830  Biso   1.000  C
  C51      1.0000 0.59160  0.15208  0.58170  Biso   1.000  C
  C52      1.0000 0.40840  0.15208  0.91830  Biso   1.000  C
  C53      1.0000 0.90840  0.34792  0.41830  Biso   1.000  C
  C54      1.0000 0.09160  0.34792  0.08170  Biso   1.000  C
  C55      1.0000 0.40840  0.84792  0.41830  Biso   1.000  C
  C56      1.0000 0.59160  0.84792  0.08170  Biso   1.000  C
  H33      1.0000 0.09366  0.67320  0.61258  Biso   1.000  H
  H34      1.0000 0.90634  0.67320  0.88742  Biso   1.000  H
  H35      1.0000 0.59366  0.17320  0.61258  Biso   1.000  H
  H36      1.0000 0.40634  0.17320  0.88742  Biso   1.000  H
  H37      1.0000 0.90634  0.32680  0.38742  Biso   1.000  H
  H38      1.0000 0.09366  0.32680  0.11258  Biso   1.000  H
  H39      1.0000 0.40634  0.82680  0.38742  Biso   1.000  H
  H40      1.0000 0.59366  0.82680  0.11258  Biso   1.000  H
  C57      1.0000 0.04060  0.65052  0.52650  Biso   1.000  C
  C58      1.0000 0.95940  0.65052  0.97350  Biso   1.000  C
  C59      1.0000 0.54060  0.15052  0.52650  Biso   1.000  C
  C60      1.0000 0.45940  0.15052  0.97350  Biso   1.000  C
  C61      1.0000 0.95940  0.34948  0.47350  Biso   1.000  C
  C62      1.0000 0.04060  0.34948  0.02650  Biso   1.000  C
  C63      1.0000 0.45940  0.84948  0.47350  Biso   1.000  C
  C64      1.0000 0.54060  0.84948  0.02650  Biso   1.000  C
  H41      1.0000 0.00830  0.67086  0.52033  Biso   1.000  H
  H42      1.0000 0.99170  0.67086  0.97967  Biso   1.000  H
  H43      1.0000 0.50830  0.17086  0.52033  Biso   1.000  H
  H44      1.0000 0.49170  0.17086  0.97967  Biso   1.000  H
  H45      1.0000 0.99170  0.32914  0.47967  Biso   1.000  H
  H46      1.0000 0.00830  0.32914  0.02033  Biso   1.000  H
  H47      1.0000 0.49170  0.82914  0.47967  Biso   1.000  H
  H48      1.0000 0.50830  0.82914  0.02033  Biso   1.000  H
  C65      1.0000 0.03740  0.61991  0.48170  Biso   1.000  C
  C66      1.0000 0.96260  0.61991  0.01830  Biso   1.000  C
  C67      1.0000 0.53740  0.11991  0.48170  Biso   1.000  C
  C68      1.0000 0.46260  0.11991  0.01830  Biso   1.000  C
  C69      1.0000 0.96260  0.38009  0.51830  Biso   1.000  C
  C70      1.0000 0.03740  0.38009  0.98170  Biso   1.000  C
  C71      1.0000 0.46260  0.88009  0.51830  Biso   1.000  C
  C72      1.0000 0.53740  0.88009  0.98170  Biso   1.000  C
  H49      1.0000 0.00246  0.61909  0.44553  Biso   1.000  H
  H50      1.0000 0.99754  0.61909  0.05447  Biso   1.000  H
  H51      1.0000 0.50246  0.11909  0.44553  Biso   1.000  H
  H52      1.0000 0.49754  0.11909  0.05447  Biso   1.000  H
  H53      1.0000 0.99754  0.38091  0.55447  Biso   1.000  H
  H54      1.0000 0.00246  0.38091  0.94553  Biso   1.000  H
  H55      1.0000 0.49754  0.88091  0.55447  Biso   1.000  H
  H56      1.0000 0.50246  0.88091  0.94553  Biso   1.000  H
  C73      1.0000 0.08600  0.58952  0.48920  Biso   1.000  C
  C74      1.0000 0.91400  0.58952  0.01080  Biso   1.000  C
  C75      1.0000 0.58600  0.08952  0.48920  Biso   1.000  C
  C76      1.0000 0.41400  0.08952  0.01080  Biso   1.000  C
  C77      1.0000 0.91400  0.41048  0.51080  Biso   1.000  C
  C78      1.0000 0.08600  0.41048  0.98920  Biso   1.000  C
  C79      1.0000 0.41400  0.91048  0.51080  Biso   1.000  C
  C80      1.0000 0.58600  0.91048  0.98920  Biso   1.000  C
  H57      1.0000 0.08486  0.56903  0.45721  Biso   1.000  H
  H58      1.0000 0.91514  0.56903  0.04279  Biso   1.000  H
  H59      1.0000 0.58486  0.06903  0.45721  Biso   1.000  H
  H60      1.0000 0.41514  0.06903  0.04279  Biso   1.000  H
  H61      1.0000 0.91514  0.43097  0.54279  Biso   1.000  H
  H62      1.0000 0.08486  0.43097  0.95721  Biso   1.000  H
  H63      1.0000 0.41514  0.93097  0.54279  Biso   1.000  H
  H64      1.0000 0.58486  0.93097  0.95721  Biso   1.000  H
  C81      1.0000 0.23840  0.59000  0.33750  Biso   1.000  C
  C82      1.0000 0.76160  0.59000  0.16250  Biso   1.000  C
  C83      1.0000 0.73840  0.09000  0.33750  Biso   1.000  C
  C84      1.0000 0.26160  0.09000  0.16250  Biso   1.000  C
  C85      1.0000 0.76160  0.41000  0.66250  Biso   1.000  C
  C86      1.0000 0.23840  0.41000  0.83750  Biso   1.000  C
  C87      1.0000 0.26160  0.91000  0.66250  Biso   1.000  C
  C88      1.0000 0.73840  0.91000  0.83750  Biso   1.000  C
  H65      1.0000 0.20688  0.56924  0.33630  Biso   1.000  H
  H66      1.0000 0.79312  0.56924  0.16370  Biso   1.000  H
  H67      1.0000 0.70688  0.06924  0.33630  Biso   1.000  H
  H68      1.0000 0.29312  0.06924  0.16370  Biso   1.000  H
  H69      1.0000 0.79312  0.43076  0.66370  Biso   1.000  H
  H70      1.0000 0.20688  0.43076  0.83630  Biso   1.000  H
  H71      1.0000 0.29312  0.93076  0.66370  Biso   1.000  H
  H72      1.0000 0.70688  0.93076  0.83630  Biso   1.000  H
  C89      1.0000 0.23050  0.61989  0.28850  Biso   1.000  C
  C90      1.0000 0.76950  0.61989  0.21150  Biso   1.000  C
  C91      1.0000 0.73050  0.11989  0.28850  Biso   1.000  C
  C92      1.0000 0.26950  0.11989  0.21150  Biso   1.000  C
  C93      1.0000 0.76950  0.38011  0.71150  Biso   1.000  C
  C94      1.0000 0.23050  0.38011  0.78850  Biso   1.000  C
  C95      1.0000 0.26950  0.88011  0.71150  Biso   1.000  C
  C96      1.0000 0.73050  0.88011  0.78850  Biso   1.000  C
  H73      1.0000 0.19443  0.61873  0.25349  Biso   1.000  H
  H74      1.0000 0.80557  0.61873  0.24651  Biso   1.000  H
  H75      1.0000 0.69443  0.11873  0.25349  Biso   1.000  H
  H76      1.0000 0.30557  0.11873  0.24651  Biso   1.000  H
  H77      1.0000 0.80557  0.38127  0.74651  Biso   1.000  H
  H78      1.0000 0.19443  0.38127  0.75349  Biso   1.000  H
  H79      1.0000 0.30557  0.88127  0.74651  Biso   1.000  H
  H80      1.0000 0.69443  0.88127  0.75349  Biso   1.000  H
  C97      1.0000 0.27600  0.65136  0.29130  Biso   1.000  C
  C98      1.0000 0.72400  0.65136  0.20870  Biso   1.000  C
  C99      1.0000 0.77600  0.15136  0.29130  Biso   1.000  C
  C100     1.0000 0.22400  0.15136  0.20870  Biso   1.000  C
  C101     1.0000 0.72400  0.34864  0.70870  Biso   1.000  C
  C102     1.0000 0.27600  0.34864  0.79130  Biso   1.000  C
  C103     1.0000 0.22400  0.84864  0.70870  Biso   1.000  C
  C104     1.0000 0.77600  0.84864  0.79130  Biso   1.000  C
  H81      1.0000 0.26991  0.67177  0.25914  Biso   1.000  H
  H82      1.0000 0.73009  0.67177  0.24086  Biso   1.000  H
  H83      1.0000 0.76991  0.17177  0.25914  Biso   1.000  H
  H84      1.0000 0.23009  0.17177  0.24086  Biso   1.000  H
  H85      1.0000 0.73009  0.32823  0.74086  Biso   1.000  H
  H86      1.0000 0.26991  0.32823  0.75914  Biso   1.000  H
  H87      1.0000 0.23009  0.82823  0.74086  Biso   1.000  H
  H88      1.0000 0.76991  0.82823  0.75914  Biso   1.000  H
  C105     1.0000 0.33170  0.65243  0.34320  Biso   1.000  C
  C106     1.0000 0.66830  0.65243  0.15680  Biso   1.000  C
  C107     1.0000 0.83170  0.15243  0.34320  Biso   1.000  C
  C108     1.0000 0.16830  0.15243  0.15680  Biso   1.000  C
  C109     1.0000 0.66830  0.34757  0.65680  Biso   1.000  C
  C110     1.0000 0.33170  0.34757  0.84320  Biso   1.000  C
  C111     1.0000 0.16830  0.84757  0.65680  Biso   1.000  C
  C112     1.0000 0.83170  0.84757  0.84320  Biso   1.000  C
  H89      1.0000 0.36325  0.67318  0.34486  Biso   1.000  H
  H90      1.0000 0.63675  0.67318  0.15514  Biso   1.000  H
  H91      1.0000 0.86325  0.17318  0.34486  Biso   1.000  H
  H92      1.0000 0.13675  0.17318  0.15514  Biso   1.000  H
  H93      1.0000 0.63675  0.32682  0.65514  Biso   1.000  H
  H94      1.0000 0.36325  0.32682  0.84486  Biso   1.000  H
  H95      1.0000 0.13675  0.82682  0.65514  Biso   1.000  H
  H96      1.0000 0.86325  0.82682  0.84486  Biso   1.000  H
  C113     1.0000 0.33910  0.62251  0.39130  Biso   1.000  C
  C114     1.0000 0.66090  0.62251  0.10870  Biso   1.000  C
  C115     1.0000 0.83910  0.12251  0.39130  Biso   1.000  C
  C116     1.0000 0.16090  0.12251  0.10870  Biso   1.000  C
  C117     1.0000 0.66090  0.37749  0.60870  Biso   1.000  C
  C118     1.0000 0.33910  0.37749  0.89130  Biso   1.000  C
  C119     1.0000 0.16090  0.87749  0.60870  Biso   1.000  C
  C120     1.0000 0.83910  0.87749  0.89130  Biso   1.000  C
  C121     1.0000 0.39380  0.62242  0.44560  Biso   1.000  C
  C122     1.0000 0.60620  0.62242  0.05440  Biso   1.000  C
  C123     1.0000 0.89380  0.12242  0.44560  Biso   1.000  C
  C124     1.0000 0.10620  0.12242  0.05440  Biso   1.000  C
  C125     1.0000 0.60620  0.37758  0.55440  Biso   1.000  C
  C126     1.0000 0.39380  0.37758  0.94560  Biso   1.000  C
  C127     1.0000 0.10620  0.87758  0.55440  Biso   1.000  C
  C128     1.0000 0.89380  0.87758  0.94560  Biso   1.000  C
  C129     1.0000 0.44230  0.65251  0.46210  Biso   1.000  C
  C130     1.0000 0.55770  0.65251  0.03790  Biso   1.000  C
  C131     1.0000 0.94230  0.15251  0.46210  Biso   1.000  C
  C132     1.0000 0.05770  0.15251  0.03790  Biso   1.000  C
  C133     1.0000 0.55770  0.34749  0.53790  Biso   1.000  C
  C134     1.0000 0.44230  0.34749  0.96210  Biso   1.000  C
  C135     1.0000 0.05770  0.84749  0.53790  Biso   1.000  C
  C136     1.0000 0.94230  0.84749  0.96210  Biso   1.000  C
  H97      1.0000 0.44415  0.67452  0.43355  Biso   1.000  H
  H98      1.0000 0.55585  0.67452  0.06645  Biso   1.000  H
  H99      1.0000 0.94415  0.17452  0.43355  Biso   1.000  H
  H100     1.0000 0.05585  0.17452  0.06645  Biso   1.000  H
  H101     1.0000 0.55585  0.32548  0.56645  Biso   1.000  H
  H102     1.0000 0.44415  0.32548  0.93355  Biso   1.000  H
  H103     1.0000 0.05585  0.82548  0.56645  Biso   1.000  H
  H104     1.0000 0.94415  0.82548  0.93355  Biso   1.000  H
  C137     1.0000 0.48710  0.64925  0.52080  Biso   1.000  C
  C138     1.0000 0.51290  0.64925  0.97920  Biso   1.000  C
  C139     1.0000 0.98710  0.14925  0.52080  Biso   1.000  C
  C140     1.0000 0.01290  0.14925  0.97920  Biso   1.000  C
  C141     1.0000 0.51290  0.35075  0.47920  Biso   1.000  C
  C142     1.0000 0.48710  0.35075  0.02080  Biso   1.000  C
  C143     1.0000 0.01290  0.85075  0.47920  Biso   1.000  C
  C144     1.0000 0.98710  0.85075  0.02080  Biso   1.000  C
  H105     1.0000 0.51871  0.66954  0.53209  Biso   1.000  H
  H106     1.0000 0.48129  0.66954  0.96791  Biso   1.000  H
  H107     1.0000 0.01871  0.16954  0.53209  Biso   1.000  H
  H108     1.0000 0.98129  0.16954  0.96791  Biso   1.000  H
  H109     1.0000 0.48129  0.33046  0.46791  Biso   1.000  H
  H110     1.0000 0.51871  0.33046  0.03209  Biso   1.000  H
  H111     1.0000 0.98129  0.83046  0.46791  Biso   1.000  H
  H112     1.0000 0.01871  0.83046  0.03209  Biso   1.000  H
  C145     1.0000 0.48630  0.61723  0.56250  Biso   1.000  C
  C146     1.0000 0.51370  0.61723  0.93750  Biso   1.000  C
  C147     1.0000 0.98630  0.11723  0.56250  Biso   1.000  C
  C148     1.0000 0.01370  0.11723  0.93750  Biso   1.000  C
  C149     1.0000 0.51370  0.38277  0.43750  Biso   1.000  C
  C150     1.0000 0.48630  0.38277  0.06250  Biso   1.000  C
  C151     1.0000 0.01370  0.88277  0.43750  Biso   1.000  C
  C152     1.0000 0.98630  0.88277  0.06250  Biso   1.000  C
  H113     1.0000 0.51700  0.61552  0.60210  Biso   1.000  H
  H114     1.0000 0.48300  0.61552  0.89790  Biso   1.000  H
  H115     1.0000 0.01700  0.11552  0.60210  Biso   1.000  H
  H116     1.0000 0.98300  0.11552  0.89790  Biso   1.000  H
  H117     1.0000 0.48300  0.38448  0.39790  Biso   1.000  H
  H118     1.0000 0.51700  0.38448  0.10210  Biso   1.000  H
  H119     1.0000 0.98300  0.88448  0.39790  Biso   1.000  H
  H120     1.0000 0.01700  0.88448  0.10210  Biso   1.000  H
  C153     1.0000 0.43840  0.58637  0.54510  Biso   1.000  C
  C154     1.0000 0.56160  0.58637  0.95490  Biso   1.000  C
  C155     1.0000 0.93840  0.08637  0.54510  Biso   1.000  C
  C156     1.0000 0.06160  0.08637  0.95490  Biso   1.000  C
  C157     1.0000 0.56160  0.41363  0.45490  Biso   1.000  C
  C158     1.0000 0.43840  0.41363  0.04510  Biso   1.000  C
  C159     1.0000 0.06160  0.91363  0.45490  Biso   1.000  C
  C160     1.0000 0.93840  0.91363  0.04510  Biso   1.000  C
  H121     1.0000 0.43752  0.56395  0.57289  Biso   1.000  H
  H122     1.0000 0.56248  0.56395  0.92711  Biso   1.000  H
  H123     1.0000 0.93752  0.06395  0.57289  Biso   1.000  H
  H124     1.0000 0.06248  0.06395  0.92711  Biso   1.000  H
  H125     1.0000 0.56248  0.43605  0.42711  Biso   1.000  H
  H126     1.0000 0.43752  0.43605  0.07289  Biso   1.000  H
  H127     1.0000 0.06248  0.93605  0.42711  Biso   1.000  H
  H128     1.0000 0.93752  0.93605  0.07289  Biso   1.000  H
  C161     1.0000 0.23780  0.47257  0.66730  Biso   1.000  C
  C162     1.0000 0.76220  0.47257  0.83270  Biso   1.000  C
  C163     1.0000 0.73780  0.97257  0.66730  Biso   1.000  C
  C164     1.0000 0.26220  0.97257  0.83270  Biso   1.000  C
  C165     1.0000 0.76220  0.52743  0.33270  Biso   1.000  C
  C166     1.0000 0.23780  0.52743  0.16730  Biso   1.000  C
  C167     1.0000 0.26220  0.02743  0.33270  Biso   1.000  C
  C168     1.0000 0.73780  0.02743  0.16730  Biso   1.000  C
  H129     1.0000 0.19507  0.46673  0.64038  Biso   1.000  H
  H130     1.0000 0.80493  0.46673  0.85962  Biso   1.000  H
  H131     1.0000 0.69507  0.96673  0.64038  Biso   1.000  H
  H132     1.0000 0.30493  0.96673  0.85962  Biso   1.000  H
  H133     1.0000 0.80493  0.53327  0.35962  Biso   1.000  H
  H134     1.0000 0.19507  0.53327  0.14038  Biso   1.000  H
  H135     1.0000 0.30493  0.03327  0.35962  Biso   1.000  H
  H136     1.0000 0.69507  0.03327  0.14038  Biso   1.000  H
  H137     1.0000 0.23367  0.49682  0.69249  Biso   1.000  H
  H138     1.0000 0.76633  0.49682  0.80751  Biso   1.000  H
  H139     1.0000 0.73367  0.99682  0.69249  Biso   1.000  H
  H140     1.0000 0.26633  0.99682  0.80751  Biso   1.000  H
  H141     1.0000 0.76633  0.50318  0.30751  Biso   1.000  H
  H142     1.0000 0.23367  0.50318  0.19249  Biso   1.000  H
  H143     1.0000 0.26633  0.00318  0.30751  Biso   1.000  H
  H144     1.0000 0.73367  0.00318  0.19249  Biso   1.000  H
  H145     1.0000 0.24985  0.45097  0.69851  Biso   1.000  H
  H146     1.0000 0.75015  0.45097  0.80149  Biso   1.000  H
  H147     1.0000 0.74985  0.95097  0.69851  Biso   1.000  H
  H148     1.0000 0.25015  0.95097  0.80149  Biso   1.000  H
  H149     1.0000 0.75015  0.54903  0.30149  Biso   1.000  H
  H150     1.0000 0.24985  0.54903  0.19851  Biso   1.000  H
  H151     1.0000 0.25015  0.04903  0.30149  Biso   1.000  H
  H152     1.0000 0.74985  0.04903  0.19851  Biso   1.000  H
  C169     1.0000 0.29190  0.47750  0.62150  Biso   1.000  C
  C170     1.0000 0.70810  0.47750  0.87850  Biso   1.000  C
  C171     1.0000 0.79190  0.97750  0.62150  Biso   1.000  C
  C172     1.0000 0.20810  0.97750  0.87850  Biso   1.000  C
  C173     1.0000 0.70810  0.52250  0.37850  Biso   1.000  C
  C174     1.0000 0.29190  0.52250  0.12150  Biso   1.000  C
  C175     1.0000 0.20810  0.02250  0.37850  Biso   1.000  C
  C176     1.0000 0.79190  0.02250  0.12150  Biso   1.000  C
  C177     1.0000 0.34510  0.45540  0.59810  Biso   1.000  C
  C178     1.0000 0.65490  0.45540  0.90190  Biso   1.000  C
  C179     1.0000 0.84510  0.95540  0.59810  Biso   1.000  C
  C180     1.0000 0.15490  0.95540  0.90190  Biso   1.000  C
  C181     1.0000 0.65490  0.54460  0.40190  Biso   1.000  C
  C182     1.0000 0.34510  0.54460  0.09810  Biso   1.000  C
  C183     1.0000 0.15490  0.04460  0.40190  Biso   1.000  C
  C184     1.0000 0.84510  0.04460  0.09810  Biso   1.000  C
  C185     1.0000 0.37270  0.47857  0.54770  Biso   1.000  C
  C186     1.0000 0.62730  0.47857  0.95230  Biso   1.000  C
  C187     1.0000 0.87270  0.97857  0.54770  Biso   1.000  C
  C188     1.0000 0.12730  0.97857  0.95230  Biso   1.000  C
  C189     1.0000 0.62730  0.52143  0.45230  Biso   1.000  C
  C190     1.0000 0.37270  0.52143  0.04770  Biso   1.000  C
  C191     1.0000 0.12730  0.02143  0.45230  Biso   1.000  C
  C192     1.0000 0.87270  0.02143  0.04770  Biso   1.000  C
  C193     1.0000 0.42290  0.46947  0.49740  Biso   1.000  C
  C194     1.0000 0.57710  0.46947  0.00260  Biso   1.000  C
  C195     1.0000 0.92290  0.96947  0.49740  Biso   1.000  C
  C196     1.0000 0.07710  0.96947  0.00260  Biso   1.000  C
  C197     1.0000 0.57710  0.53053  0.50260  Biso   1.000  C
  C198     1.0000 0.42290  0.53053  0.99740  Biso   1.000  C
  C199     1.0000 0.07710  0.03053  0.50260  Biso   1.000  C
  C200     1.0000 0.92290  0.03053  0.99740  Biso   1.000  C
  H153     1.0000 0.42734  0.49245  0.46917  Biso   1.000  H
  H154     1.0000 0.57266  0.49245  0.03083  Biso   1.000  H
  H155     1.0000 0.92734  0.99245  0.46917  Biso   1.000  H
  H156     1.0000 0.07266  0.99245  0.03083  Biso   1.000  H
  H157     1.0000 0.57266  0.50755  0.53083  Biso   1.000  H
  H158     1.0000 0.42734  0.50755  0.96917  Biso   1.000  H
  H159     1.0000 0.07266  0.00755  0.53083  Biso   1.000  H
  H160     1.0000 0.92734  0.00755  0.96917  Biso   1.000  H
  H161     1.0000 0.40652  0.44721  0.46933  Biso   1.000  H
  H162     1.0000 0.59348  0.44721  0.03067  Biso   1.000  H
  H163     1.0000 0.90652  0.94721  0.46933  Biso   1.000  H
  H164     1.0000 0.09348  0.94721  0.03067  Biso   1.000  H
  H165     1.0000 0.59348  0.55279  0.53067  Biso   1.000  H
  H166     1.0000 0.40652  0.55279  0.96933  Biso   1.000  H
  H167     1.0000 0.09348  0.05279  0.53067  Biso   1.000  H
  H168     1.0000 0.90652  0.05279  0.96933  Biso   1.000  H
  H169     1.0000 0.46654  0.46298  0.52198  Biso   1.000  H
  H170     1.0000 0.53346  0.46298  0.97802  Biso   1.000  H
  H171     1.0000 0.96654  0.96298  0.52198  Biso   1.000  H
  H172     1.0000 0.03346  0.96298  0.97802  Biso   1.000  H
  H173     1.0000 0.53346  0.53702  0.47802  Biso   1.000  H
  H174     1.0000 0.46654  0.53702  0.02198  Biso   1.000  H
  H175     1.0000 0.03346  0.03702  0.47802  Biso   1.000  H
  H176     1.0000 0.96654  0.03702  0.02198  Biso   1.000  H
  C201     1.0000 0.36920  0.41534  0.62220  Biso   1.000  C
  C202     1.0000 0.63080  0.41534  0.87780  Biso   1.000  C
  C203     1.0000 0.86920  0.91534  0.62220  Biso   1.000  C
  C204     1.0000 0.13080  0.91534  0.87780  Biso   1.000  C
  C205     1.0000 0.63080  0.58466  0.37780  Biso   1.000  C
  C206     1.0000 0.36920  0.58466  0.12220  Biso   1.000  C
  C207     1.0000 0.13080  0.08466  0.37780  Biso   1.000  C
  C208     1.0000 0.86920  0.08466  0.12220  Biso   1.000  C
  C209     1.0000 0.32160  0.38534  0.62830  Biso   1.000  C
  C210     1.0000 0.67840  0.38534  0.87170  Biso   1.000  C
  C211     1.0000 0.82160  0.88534  0.62830  Biso   1.000  C
  C212     1.0000 0.17840  0.88534  0.87170  Biso   1.000  C
  C213     1.0000 0.67840  0.61466  0.37170  Biso   1.000  C
  C214     1.0000 0.32160  0.61466  0.12830  Biso   1.000  C
  C215     1.0000 0.17840  0.11466  0.37170  Biso   1.000  C
  C216     1.0000 0.82160  0.11466  0.12830  Biso   1.000  C
  H177     1.0000 0.27511  0.39071  0.61953  Biso   1.000  H
  H178     1.0000 0.72489  0.39071  0.88047  Biso   1.000  H
  H179     1.0000 0.77511  0.89071  0.61953  Biso   1.000  H
  H180     1.0000 0.22489  0.89071  0.88047  Biso   1.000  H
  H181     1.0000 0.72489  0.60929  0.38047  Biso   1.000  H
  H182     1.0000 0.27511  0.60929  0.11953  Biso   1.000  H
  H183     1.0000 0.22489  0.10929  0.38047  Biso   1.000  H
  H184     1.0000 0.77511  0.10929  0.11953  Biso   1.000  H
  C217     1.0000 0.34430  0.34732  0.64760  Biso   1.000  C
  C218     1.0000 0.65570  0.34732  0.85240  Biso   1.000  C
  C219     1.0000 0.84430  0.84732  0.64760  Biso   1.000  C
  C220     1.0000 0.15570  0.84732  0.85240  Biso   1.000  C
  C221     1.0000 0.65570  0.65268  0.35240  Biso   1.000  C
  C222     1.0000 0.34430  0.65268  0.14760  Biso   1.000  C
  C223     1.0000 0.15570  0.15268  0.35240  Biso   1.000  C
  C224     1.0000 0.84430  0.15268  0.14760  Biso   1.000  C
  H185     1.0000 0.31281  0.32711  0.65218  Biso   1.000  H
  H186     1.0000 0.68719  0.32711  0.84782  Biso   1.000  H
  H187     1.0000 0.81281  0.82711  0.65218  Biso   1.000  H
  H188     1.0000 0.18719  0.82711  0.84782  Biso   1.000  H
  H189     1.0000 0.68719  0.67289  0.34782  Biso   1.000  H
  H190     1.0000 0.31281  0.67289  0.15218  Biso   1.000  H
  H191     1.0000 0.18719  0.17289  0.34782  Biso   1.000  H
  H192     1.0000 0.81281  0.17289  0.15218  Biso   1.000  H
  C225     1.0000 0.41420  0.33911  0.66020  Biso   1.000  C
  C226     1.0000 0.58580  0.33911  0.83980  Biso   1.000  C
  C227     1.0000 0.91420  0.83911  0.66020  Biso   1.000  C
  C228     1.0000 0.08580  0.83911  0.83980  Biso   1.000  C
  C229     1.0000 0.58580  0.66089  0.33980  Biso   1.000  C
  C230     1.0000 0.41420  0.66089  0.16020  Biso   1.000  C
  C231     1.0000 0.08580  0.16089  0.33980  Biso   1.000  C
  C232     1.0000 0.91420  0.16089  0.16020  Biso   1.000  C
  C233     1.0000 0.46140  0.36985  0.65530  Biso   1.000  C
  C234     1.0000 0.53860  0.36985  0.84470  Biso   1.000  C
  C235     1.0000 0.96140  0.86985  0.65530  Biso   1.000  C
  C236     1.0000 0.03860  0.86985  0.84470  Biso   1.000  C
  C237     1.0000 0.53860  0.63015  0.34470  Biso   1.000  C
  C238     1.0000 0.46140  0.63015  0.15530  Biso   1.000  C
  C239     1.0000 0.03860  0.13015  0.34470  Biso   1.000  C
  C240     1.0000 0.96140  0.13015  0.15530  Biso   1.000  C
  H193     1.0000 0.50793  0.36492  0.66490  Biso   1.000  H
  H194     1.0000 0.49207  0.36492  0.83510  Biso   1.000  H
  H195     1.0000 0.00793  0.86492  0.66490  Biso   1.000  H
  H196     1.0000 0.99207  0.86492  0.83510  Biso   1.000  H
  H197     1.0000 0.49207  0.63508  0.33510  Biso   1.000  H
  H198     1.0000 0.50793  0.63508  0.16490  Biso   1.000  H
  H199     1.0000 0.99207  0.13508  0.33510  Biso   1.000  H
  H200     1.0000 0.00793  0.13508  0.16490  Biso   1.000  H
  C241     1.0000 0.43780  0.40808  0.63570  Biso   1.000  C
  C242     1.0000 0.56220  0.40808  0.86430  Biso   1.000  C
  C243     1.0000 0.93780  0.90808  0.63570  Biso   1.000  C
  C244     1.0000 0.06220  0.90808  0.86430  Biso   1.000  C
  C245     1.0000 0.56220  0.59192  0.36430  Biso   1.000  C
  C246     1.0000 0.43780  0.59192  0.13570  Biso   1.000  C
  C247     1.0000 0.06220  0.09192  0.36430  Biso   1.000  C
  C248     1.0000 0.93780  0.09192  0.13570  Biso   1.000  C
  H201     1.0000 0.46883  0.42864  0.63175  Biso   1.000  H
  H202     1.0000 0.53117  0.42864  0.86825  Biso   1.000  H
  H203     1.0000 0.96883  0.92864  0.63175  Biso   1.000  H
  H204     1.0000 0.03117  0.92864  0.86825  Biso   1.000  H
  H205     1.0000 0.53117  0.57136  0.36825  Biso   1.000  H
  H206     1.0000 0.46883  0.57136  0.13175  Biso   1.000  H
  H207     1.0000 0.03117  0.07136  0.36825  Biso   1.000  H
  H208     1.0000 0.96883  0.07136  0.13175  Biso   1.000  H
  C249     1.0000 0.44030  0.30046  0.68950  Biso   1.000  C
  C250     1.0000 0.55970  0.30046  0.81050  Biso   1.000  C
  C251     1.0000 0.94030  0.80046  0.68950  Biso   1.000  C
  C252     1.0000 0.05970  0.80046  0.81050  Biso   1.000  C
  C253     1.0000 0.55970  0.69954  0.31050  Biso   1.000  C
  C254     1.0000 0.44030  0.69954  0.18950  Biso   1.000  C
  C255     1.0000 0.05970  0.19954  0.31050  Biso   1.000  C
  C256     1.0000 0.94030  0.19954  0.18950  Biso   1.000  C
  C257     1.0000 0.27100  0.47364  0.34210  Biso   1.000  C
  C258     1.0000 0.72900  0.47364  0.15790  Biso   1.000  C
  C259     1.0000 0.77100  0.97364  0.34210  Biso   1.000  C
  C260     1.0000 0.22900  0.97364  0.15790  Biso   1.000  C
  C261     1.0000 0.72900  0.52636  0.65790  Biso   1.000  C
  C262     1.0000 0.27100  0.52636  0.84210  Biso   1.000  C
  C263     1.0000 0.22900  0.02636  0.65790  Biso   1.000  C
  C264     1.0000 0.77100  0.02636  0.84210  Biso   1.000  C
  H209     1.0000 0.30682  0.49317  0.34377  Biso   1.000  H
  H210     1.0000 0.69318  0.49317  0.15623  Biso   1.000  H
  H211     1.0000 0.80682  0.99317  0.34377  Biso   1.000  H
  H212     1.0000 0.19318  0.99317  0.15623  Biso   1.000  H
  H213     1.0000 0.69318  0.50683  0.65623  Biso   1.000  H
  H214     1.0000 0.30682  0.50683  0.84377  Biso   1.000  H
  H215     1.0000 0.19318  0.00683  0.65623  Biso   1.000  H
  H216     1.0000 0.80682  0.00683  0.84377  Biso   1.000  H
  H217     1.0000 0.24367  0.47481  0.29839  Biso   1.000  H
  H218     1.0000 0.75633  0.47481  0.20161  Biso   1.000  H
  H219     1.0000 0.74367  0.97481  0.29839  Biso   1.000  H
  H220     1.0000 0.25633  0.97481  0.20161  Biso   1.000  H
  H221     1.0000 0.75633  0.52519  0.70161  Biso   1.000  H
  H222     1.0000 0.24367  0.52519  0.79839  Biso   1.000  H
  H223     1.0000 0.25633  0.02519  0.70161  Biso   1.000  H
  H224     1.0000 0.74367  0.02519  0.79839  Biso   1.000  H
  H225     1.0000 0.29061  0.44744  0.34878  Biso   1.000  H
  H226     1.0000 0.70939  0.44744  0.15122  Biso   1.000  H
  H227     1.0000 0.79061  0.94744  0.34878  Biso   1.000  H
  H228     1.0000 0.20939  0.94744  0.15122  Biso   1.000  H
  H229     1.0000 0.70939  0.55256  0.65122  Biso   1.000  H
  H230     1.0000 0.29061  0.55256  0.84878  Biso   1.000  H
  H231     1.0000 0.20939  0.05256  0.65122  Biso   1.000  H
  H232     1.0000 0.79061  0.05256  0.84878  Biso   1.000  H
  C265     1.0000 0.22650  0.48233  0.39810  Biso   1.000  C
  C266     1.0000 0.77350  0.48233  0.10190  Biso   1.000  C
  C267     1.0000 0.72650  0.98233  0.39810  Biso   1.000  C
  C268     1.0000 0.27350  0.98233  0.10190  Biso   1.000  C
  C269     1.0000 0.77350  0.51767  0.60190  Biso   1.000  C
  C270     1.0000 0.22650  0.51767  0.89810  Biso   1.000  C
  C271     1.0000 0.27350  0.01767  0.60190  Biso   1.000  C
  C272     1.0000 0.72650  0.01767  0.89810  Biso   1.000  C
  C273     1.0000 0.17190  0.46024  0.41950  Biso   1.000  C
  C274     1.0000 0.82810  0.46024  0.08050  Biso   1.000  C
  C275     1.0000 0.67190  0.96024  0.41950  Biso   1.000  C
  C276     1.0000 0.32810  0.96024  0.08050  Biso   1.000  C
  C277     1.0000 0.82810  0.53976  0.58050  Biso   1.000  C
  C278     1.0000 0.17190  0.53976  0.91950  Biso   1.000  C
  C279     1.0000 0.32810  0.03976  0.58050  Biso   1.000  C
  C280     1.0000 0.67190  0.03976  0.91950  Biso   1.000  C
  C281     1.0000 0.14750  0.48146  0.47390  Biso   1.000  C
  C282     1.0000 0.85250  0.48146  0.02610  Biso   1.000  C
  C283     1.0000 0.64750  0.98146  0.47390  Biso   1.000  C
  C284     1.0000 0.35250  0.98146  0.02610  Biso   1.000  C
  C285     1.0000 0.85250  0.51854  0.52610  Biso   1.000  C
  C286     1.0000 0.14750  0.51854  0.97390  Biso   1.000  C
  C287     1.0000 0.35250  0.01854  0.52610  Biso   1.000  C
  C288     1.0000 0.64750  0.01854  0.97390  Biso   1.000  C
  C289     1.0000 0.09390  0.47461  0.52100  Biso   1.000  C
  C290     1.0000 0.90610  0.47461  0.97900  Biso   1.000  C
  C291     1.0000 0.59390  0.97461  0.52100  Biso   1.000  C
  C292     1.0000 0.40610  0.97461  0.97900  Biso   1.000  C
  C293     1.0000 0.90610  0.52539  0.47900  Biso   1.000  C
  C294     1.0000 0.09390  0.52539  0.02100  Biso   1.000  C
  C295     1.0000 0.40610  0.02539  0.47900  Biso   1.000  C
  C296     1.0000 0.59390  0.02539  0.02100  Biso   1.000  C
  H233     1.0000 0.11191  0.45736  0.55773  Biso   1.000  H
  H234     1.0000 0.88809  0.45736  0.94227  Biso   1.000  H
  H235     1.0000 0.61191  0.95736  0.55773  Biso   1.000  H
  H236     1.0000 0.38809  0.95736  0.94227  Biso   1.000  H
  H237     1.0000 0.88809  0.54264  0.44227  Biso   1.000  H
  H238     1.0000 0.11191  0.54264  0.05773  Biso   1.000  H
  H239     1.0000 0.38809  0.04264  0.44227  Biso   1.000  H
  H240     1.0000 0.61191  0.04264  0.05773  Biso   1.000  H
  H241     1.0000 0.05447  0.46236  0.49599  Biso   1.000  H
  H242     1.0000 0.94553  0.46236  0.00401  Biso   1.000  H
  H243     1.0000 0.55447  0.96236  0.49599  Biso   1.000  H
  H244     1.0000 0.44553  0.96236  0.00401  Biso   1.000  H
  H245     1.0000 0.94553  0.53764  0.50401  Biso   1.000  H
  H246     1.0000 0.05447  0.53764  0.99599  Biso   1.000  H
  H247     1.0000 0.44553  0.03764  0.50401  Biso   1.000  H
  H248     1.0000 0.55447  0.03764  0.99599  Biso   1.000  H
  H249     1.0000 0.08116  0.49976  0.53920  Biso   1.000  H
  H250     1.0000 0.91884  0.49976  0.96080  Biso   1.000  H
  H251     1.0000 0.58116  0.99976  0.53920  Biso   1.000  H
  H252     1.0000 0.41884  0.99976  0.96080  Biso   1.000  H
  H253     1.0000 0.91884  0.50024  0.46080  Biso   1.000  H
  H254     1.0000 0.08116  0.50024  0.03920  Biso   1.000  H
  H255     1.0000 0.41884  0.00024  0.46080  Biso   1.000  H
  H256     1.0000 0.58116  0.00024  0.03920  Biso   1.000  H
  C297     1.0000 0.14200  0.42186  0.39200  Biso   1.000  C
  C298     1.0000 0.85800  0.42186  0.10800  Biso   1.000  C
  C299     1.0000 0.64200  0.92186  0.39200  Biso   1.000  C
  C300     1.0000 0.35800  0.92186  0.10800  Biso   1.000  C
  C301     1.0000 0.85800  0.57814  0.60800  Biso   1.000  C
  C302     1.0000 0.14200  0.57814  0.89200  Biso   1.000  C
  C303     1.0000 0.35800  0.07814  0.60800  Biso   1.000  C
  C304     1.0000 0.64200  0.07814  0.89200  Biso   1.000  C
  C305     1.0000 0.12870  0.41582  0.32320  Biso   1.000  C
  C306     1.0000 0.87130  0.41582  0.17680  Biso   1.000  C
  C307     1.0000 0.62870  0.91582  0.32320  Biso   1.000  C
  C308     1.0000 0.37130  0.91582  0.17680  Biso   1.000  C
  C309     1.0000 0.87130  0.58418  0.67680  Biso   1.000  C
  C310     1.0000 0.12870  0.58418  0.82320  Biso   1.000  C
  C311     1.0000 0.37130  0.08418  0.67680  Biso   1.000  C
  C312     1.0000 0.62870  0.08418  0.82320  Biso   1.000  C
  H257     1.0000 0.13623  0.43655  0.29364  Biso   1.000  H
  H258     1.0000 0.86377  0.43655  0.20636  Biso   1.000  H
  H259     1.0000 0.63623  0.93655  0.29364  Biso   1.000  H
  H260     1.0000 0.36377  0.93655  0.20636  Biso   1.000  H
  H261     1.0000 0.86377  0.56345  0.70636  Biso   1.000  H
  H262     1.0000 0.13623  0.56345  0.79364  Biso   1.000  H
  H263     1.0000 0.36377  0.06345  0.70636  Biso   1.000  H
  H264     1.0000 0.63623  0.06345  0.79364  Biso   1.000  H
  C313     1.0000 0.10400  0.37928  0.29630  Biso   1.000  C
  C314     1.0000 0.89600  0.37928  0.20370  Biso   1.000  C
  C315     1.0000 0.60400  0.87928  0.29630  Biso   1.000  C
  C316     1.0000 0.39600  0.87928  0.20370  Biso   1.000  C
  C317     1.0000 0.89600  0.62072  0.70370  Biso   1.000  C
  C318     1.0000 0.10400  0.62072  0.79630  Biso   1.000  C
  C319     1.0000 0.39600  0.12072  0.70370  Biso   1.000  C
  C320     1.0000 0.60400  0.12072  0.79630  Biso   1.000  C
  H265     1.0000 0.09492  0.37582  0.24928  Biso   1.000  H
  H266     1.0000 0.90508  0.37582  0.25072  Biso   1.000  H
  H267     1.0000 0.59492  0.87582  0.24928  Biso   1.000  H
  H268     1.0000 0.40508  0.87582  0.25072  Biso   1.000  H
  H269     1.0000 0.90508  0.62418  0.75072  Biso   1.000  H
  H270     1.0000 0.09492  0.62418  0.74928  Biso   1.000  H
  H271     1.0000 0.40508  0.12418  0.75072  Biso   1.000  H
  H272     1.0000 0.59492  0.12418  0.74928  Biso   1.000  H
  C321     1.0000 0.09330  0.34841  0.33990  Biso   1.000  C
  C322     1.0000 0.90670  0.34841  0.16010  Biso   1.000  C
  C323     1.0000 0.59330  0.84841  0.33990  Biso   1.000  C
  C324     1.0000 0.40670  0.84841  0.16010  Biso   1.000  C
  C325     1.0000 0.90670  0.65159  0.66010  Biso   1.000  C
  C326     1.0000 0.09330  0.65159  0.83990  Biso   1.000  C
  C327     1.0000 0.40670  0.15159  0.66010  Biso   1.000  C
  C328     1.0000 0.59330  0.15159  0.83990  Biso   1.000  C
  C329     1.0000 0.10780  0.35394  0.40890  Biso   1.000  C
  C330     1.0000 0.89220  0.35394  0.09110  Biso   1.000  C
  C331     1.0000 0.60780  0.85394  0.40890  Biso   1.000  C
  C332     1.0000 0.39220  0.85394  0.09110  Biso   1.000  C
  C333     1.0000 0.89220  0.64606  0.59110  Biso   1.000  C
  C334     1.0000 0.10780  0.64606  0.90890  Biso   1.000  C
  C335     1.0000 0.39220  0.14606  0.59110  Biso   1.000  C
  C336     1.0000 0.60780  0.14606  0.90890  Biso   1.000  C
  H273     1.0000 0.10145  0.33279  0.43804  Biso   1.000  H
  H274     1.0000 0.89855  0.33279  0.06196  Biso   1.000  H
  H275     1.0000 0.60145  0.83279  0.43804  Biso   1.000  H
  H276     1.0000 0.39855  0.83279  0.06196  Biso   1.000  H
  H277     1.0000 0.89855  0.66721  0.56196  Biso   1.000  H
  H278     1.0000 0.10145  0.66721  0.93804  Biso   1.000  H
  H279     1.0000 0.39855  0.16721  0.56196  Biso   1.000  H
  H280     1.0000 0.60145  0.16721  0.93804  Biso   1.000  H
  C337     1.0000 0.13170  0.39030  0.43670  Biso   1.000  C
  C338     1.0000 0.86830  0.39030  0.06330  Biso   1.000  C
  C339     1.0000 0.63170  0.89030  0.43670  Biso   1.000  C
  C340     1.0000 0.36830  0.89030  0.06330  Biso   1.000  C
  C341     1.0000 0.86830  0.60970  0.56330  Biso   1.000  C
  C342     1.0000 0.13170  0.60970  0.93670  Biso   1.000  C
  C343     1.0000 0.36830  0.10970  0.56330  Biso   1.000  C
  C344     1.0000 0.63170  0.10970  0.93670  Biso   1.000  C
  H281     1.0000 0.14069  0.39363  0.48374  Biso   1.000  H
  H282     1.0000 0.85931  0.39363  0.01626  Biso   1.000  H
  H283     1.0000 0.64069  0.89363  0.48374  Biso   1.000  H
  H284     1.0000 0.35931  0.89363  0.01626  Biso   1.000  H
  H285     1.0000 0.85931  0.60637  0.51626  Biso   1.000  H
  H286     1.0000 0.14069  0.60637  0.98374  Biso   1.000  H
  H287     1.0000 0.35931  0.10637  0.51626  Biso   1.000  H
  H288     1.0000 0.64069  0.10637  0.98374  Biso   1.000  H
  C345     1.0000 0.06460  0.31066  0.31010  Biso   1.000  C
  C346     1.0000 0.93540  0.31066  0.18990  Biso   1.000  C
  C347     1.0000 0.56460  0.81066  0.31010  Biso   1.000  C
  C348     1.0000 0.43540  0.81066  0.18990  Biso   1.000  C
  C349     1.0000 0.93540  0.68934  0.68990  Biso   1.000  C
  C350     1.0000 0.06460  0.68934  0.81010  Biso   1.000  C
  C351     1.0000 0.43540  0.18934  0.68990  Biso   1.000  C
  C352     1.0000 0.56460  0.18934  0.81010  Biso   1.000  C
  Cu1      1.0000 0.54351  0.24576  0.70333  Biso   1.000  Cu
  Cu2      1.0000 0.45649  0.24576  0.79667  Biso   1.000  Cu
  Cu3      1.0000 0.04351  0.74576  0.70333  Biso   1.000  Cu
  Cu4      1.0000 0.95649  0.74576  0.79667  Biso   1.000  Cu
  Cu5      1.0000 0.45649  0.75424  0.29667  Biso   1.000  Cu
  Cu6      1.0000 0.54351  0.75424  0.20333  Biso   1.000  Cu
  Cu7      1.0000 0.95649  0.25424  0.29667  Biso   1.000  Cu
  Cu8      1.0000 0.04351  0.25424  0.20333  Biso   1.000  Cu
  N1       1.0000 0.23939  0.58869  0.64470  Biso   1.000  N
  N2       1.0000 0.76061  0.58869  0.85530  Biso   1.000  N
  N3       1.0000 0.73939  0.08869  0.64470  Biso   1.000  N
  N4       1.0000 0.26061  0.08869  0.85530  Biso   1.000  N
  N5       1.0000 0.76061  0.41131  0.35530  Biso   1.000  N
  N6       1.0000 0.23939  0.41131  0.14470  Biso   1.000  N
  N7       1.0000 0.26061  0.91131  0.35530  Biso   1.000  N
  N8       1.0000 0.73939  0.91131  0.14470  Biso   1.000  N
  N9       1.0000 0.13592  0.59026  0.54490  Biso   1.000  N
  N10      1.0000 0.86408  0.59026  0.95510  Biso   1.000  N
  N11      1.0000 0.63592  0.09026  0.54490  Biso   1.000  N
  N12      1.0000 0.36408  0.09026  0.95510  Biso   1.000  N
  N13      1.0000 0.86408  0.40974  0.45510  Biso   1.000  N
  N14      1.0000 0.13592  0.40974  0.04490  Biso   1.000  N
  N15      1.0000 0.36408  0.90974  0.45510  Biso   1.000  N
  N16      1.0000 0.63592  0.90974  0.04490  Biso   1.000  N
  N17      1.0000 0.29303  0.59130  0.38780  Biso   1.000  N
  N18      1.0000 0.70697  0.59130  0.11220  Biso   1.000  N
  N19      1.0000 0.79303  0.09130  0.38780  Biso   1.000  N
  N20      1.0000 0.20697  0.09130  0.11220  Biso   1.000  N
  N21      1.0000 0.70697  0.40870  0.61220  Biso   1.000  N
  N22      1.0000 0.29303  0.40870  0.88780  Biso   1.000  N
  N23      1.0000 0.20697  0.90870  0.61220  Biso   1.000  N
  N24      1.0000 0.79303  0.90870  0.88780  Biso   1.000  N
  N25      1.0000 0.39315  0.58983  0.48700  Biso   1.000  N
  N26      1.0000 0.60685  0.58983  0.01300  Biso   1.000  N
  N27      1.0000 0.89315  0.08983  0.48700  Biso   1.000  N
  N28      1.0000 0.10685  0.08983  0.01300  Biso   1.000  N
  N29      1.0000 0.60685  0.41017  0.51300  Biso   1.000  N
  N30      1.0000 0.39315  0.41017  0.98700  Biso   1.000  N
  N31      1.0000 0.10685  0.91017  0.51300  Biso   1.000  N
  N32      1.0000 0.89315  0.91017  0.98700  Biso   1.000  N
  N33      1.0000 0.28572  0.51486  0.58551  Biso   1.000  N
  N34      1.0000 0.71428  0.51486  0.91449  Biso   1.000  N
  N35      1.0000 0.78572  0.01486  0.58551  Biso   1.000  N
  N36      1.0000 0.21428  0.01486  0.91449  Biso   1.000  N
  N37      1.0000 0.71428  0.48514  0.41449  Biso   1.000  N
  N38      1.0000 0.28572  0.48514  0.08551  Biso   1.000  N
  N39      1.0000 0.21428  0.98514  0.41449  Biso   1.000  N
  N40      1.0000 0.78572  0.98514  0.08551  Biso   1.000  N
  N41      1.0000 0.33738  0.51493  0.53955  Biso   1.000  N
  N42      1.0000 0.66262  0.51493  0.96045  Biso   1.000  N
  N43      1.0000 0.83738  0.01493  0.53955  Biso   1.000  N
  N44      1.0000 0.16262  0.01493  0.96045  Biso   1.000  N
  N45      1.0000 0.66262  0.48507  0.46045  Biso   1.000  N
  N46      1.0000 0.33738  0.48507  0.03955  Biso   1.000  N
  N47      1.0000 0.16262  0.98507  0.46045  Biso   1.000  N
  N48      1.0000 0.83738  0.98507  0.03955  Biso   1.000  N
  N49      1.0000 0.23561  0.51708  0.43740  Biso   1.000  N
  N50      1.0000 0.76439  0.51708  0.06260  Biso   1.000  N
  N51      1.0000 0.73561  0.01708  0.43740  Biso   1.000  N
  N52      1.0000 0.26439  0.01708  0.06260  Biso   1.000  N
  N53      1.0000 0.76439  0.48292  0.56260  Biso   1.000  N
  N54      1.0000 0.23561  0.48292  0.93740  Biso   1.000  N
  N55      1.0000 0.26439  0.98292  0.56260  Biso   1.000  N
  N56      1.0000 0.73561  0.98292  0.93740  Biso   1.000  N
  N57      1.0000 0.18737  0.51711  0.48534  Biso   1.000  N
  N58      1.0000 0.81263  0.51711  0.01466  Biso   1.000  N
  N59      1.0000 0.68737  0.01711  0.48534  Biso   1.000  N
  N60      1.0000 0.31263  0.01711  0.01466  Biso   1.000  N
  N61      1.0000 0.81263  0.48289  0.51466  Biso   1.000  N
  N62      1.0000 0.18737  0.48289  0.98534  Biso   1.000  N
  N63      1.0000 0.31263  0.98289  0.51466  Biso   1.000  N
  N64      1.0000 0.68737  0.98289  0.98534  Biso   1.000  N
  O1       1.0000 0.49778  0.28928  0.67771  Biso   1.000  O
  O2       1.0000 0.50222  0.28928  0.82229  Biso   1.000  O
  O3       1.0000 0.99778  0.78928  0.67771  Biso   1.000  O
  O4       1.0000 0.00222  0.78928  0.82229  Biso   1.000  O
  O5       1.0000 0.50222  0.71072  0.32229  Biso   1.000  O
  O6       1.0000 0.49778  0.71072  0.17771  Biso   1.000  O
  O7       1.0000 0.00222  0.21072  0.32229  Biso   1.000  O
  O8       1.0000 0.99778  0.21072  0.17771  Biso   1.000  O
  O9       1.0000 0.40682  0.27952  0.72680  Biso   1.000  O
  O10      1.0000 0.59318  0.27952  0.77320  Biso   1.000  O
  O11      1.0000 0.90682  0.77952  0.72680  Biso   1.000  O
  O12      1.0000 0.09318  0.77952  0.77320  Biso   1.000  O
  O13      1.0000 0.59318  0.72048  0.27320  Biso   1.000  O
  O14      1.0000 0.40682  0.72048  0.22680  Biso   1.000  O
  O15      1.0000 0.09318  0.22048  0.27320  Biso   1.000  O
  O16      1.0000 0.90682  0.22048  0.22680  Biso   1.000  O
  O17      1.0000 0.02153  0.29359  0.34316  Biso   1.000  O
  O18      1.0000 0.97847  0.29359  0.15684  Biso   1.000  O
  O19      1.0000 0.52153  0.79359  0.34316  Biso   1.000  O
  O20      1.0000 0.47847  0.79359  0.15684  Biso   1.000  O
  O21      1.0000 0.97847  0.70641  0.65684  Biso   1.000  O
  O22      1.0000 0.02153  0.70641  0.84316  Biso   1.000  O
  O23      1.0000 0.47847  0.20641  0.65684  Biso   1.000  O
  O24      1.0000 0.52153  0.20641  0.84316  Biso   1.000  O
  O25      1.0000 0.08085  0.29553  0.25552  Biso   1.000  O
  O26      1.0000 0.91915  0.29553  0.24448  Biso   1.000  O
  O27      1.0000 0.58085  0.79553  0.25552  Biso   1.000  O
  O28      1.0000 0.41915  0.79553  0.24448  Biso   1.000  O
  O29      1.0000 0.91915  0.70447  0.74448  Biso   1.000  O
  O30      1.0000 0.08085  0.70447  0.75552  Biso   1.000  O
  O31      1.0000 0.41915  0.20447  0.74448  Biso   1.000  O
  O32      1.0000 0.58085  0.20447  0.75552  Biso   1.000  O
  O33      1.0000 0.61937  0.24932  0.63746  Biso   1.000  O
  O34      1.0000 0.38063  0.24932  0.86254  Biso   1.000  O
  O35      1.0000 0.11937  0.74932  0.63746  Biso   1.000  O
  O36      1.0000 0.88063  0.74932  0.86254  Biso   1.000  O
  O37      1.0000 0.38063  0.75068  0.36254  Biso   1.000  O
  O38      1.0000 0.61937  0.75068  0.13746  Biso   1.000  O
  O39      1.0000 0.88063  0.25068  0.36254  Biso   1.000  O
  O40      1.0000 0.11937  0.25068  0.13746  Biso   1.000  O
  H289     1.0000 0.61228  0.24989  0.59410  Biso   1.000  H
  H290     1.0000 0.38772  0.24989  0.90590  Biso   1.000  H
  H291     1.0000 0.11228  0.74989  0.59410  Biso   1.000  H
  H292     1.0000 0.88772  0.74989  0.90590  Biso   1.000  H
  H293     1.0000 0.38772  0.75011  0.40590  Biso   1.000  H
  H294     1.0000 0.61228  0.75011  0.09410  Biso   1.000  H
  H295     1.0000 0.88772  0.25011  0.40590  Biso   1.000  H
  H296     1.0000 0.11228  0.25011  0.09410  Biso   1.000  H
  H297     1.0000 0.66341  0.25028  0.66417  Biso   1.000  H
  H298     1.0000 0.33659  0.25028  0.83583  Biso   1.000  H
  H299     1.0000 0.16341  0.75028  0.66417  Biso   1.000  H
  H300     1.0000 0.83659  0.75028  0.83583  Biso   1.000  H
  H301     1.0000 0.33659  0.74972  0.33583  Biso   1.000  H
  H302     1.0000 0.66341  0.74972  0.16417  Biso   1.000  H
  H303     1.0000 0.83659  0.24972  0.33583  Biso   1.000  H
  H304     1.0000 0.16341  0.24972  0.16417  Biso   1.000  H
  Pd1      1.0000 0.21086  0.55179  0.56578  Biso   1.000  Pd
  Pd2      1.0000 0.78914  0.55179  0.93422  Biso   1.000  Pd
  Pd3      1.0000 0.71086  0.05179  0.56578  Biso   1.000  Pd
  Pd4      1.0000 0.28914  0.05179  0.93422  Biso   1.000  Pd
  Pd5      1.0000 0.78914  0.44821  0.43422  Biso   1.000  Pd
  Pd6      1.0000 0.21086  0.44821  0.06578  Biso   1.000  Pd
  Pd7      1.0000 0.28914  0.94821  0.43422  Biso   1.000  Pd
  Pd8      1.0000 0.71086  0.94821  0.06578  Biso   1.000  Pd
  Pd9      1.0000 0.31621  0.55191  0.46343  Biso   1.000  Pd
  Pd10     1.0000 0.68379  0.55191  0.03657  Biso   1.000  Pd
  Pd11     1.0000 0.81621  0.05191  0.46343  Biso   1.000  Pd
  Pd12     1.0000 0.18379  0.05191  0.03657  Biso   1.000  Pd
  Pd13     1.0000 0.68379  0.44809  0.53657  Biso   1.000  Pd
  Pd14     1.0000 0.31621  0.44809  0.96343  Biso   1.000  Pd
  Pd15     1.0000 0.18379  0.94809  0.53657  Biso   1.000  Pd
  Pd16     1.0000 0.81621  0.94809  0.96343  Biso   1.000  Pd
  N65      1.0000 0.36770  0.32008  0.36360  Biso   1.000  N
  N66      1.0000 0.63230  0.32008  0.13640  Biso   1.000  N
  N67      1.0000 0.86770  0.82008  0.36360  Biso   1.000  N
  N68      1.0000 0.13230  0.82008  0.13640  Biso   1.000  N
  N69      1.0000 0.63230  0.67992  0.63640  Biso   1.000  N
  N70      1.0000 0.36770  0.67992  0.86360  Biso   1.000  N
  N71      1.0000 0.13230  0.17992  0.63640  Biso   1.000  N
  N72      1.0000 0.86770  0.17992  0.86360  Biso   1.000  N
  O41      1.0000 0.40989  0.30137  0.40616  Biso   1.000  O
  O42      1.0000 0.59011  0.30137  0.09384  Biso   1.000  O
  O43      1.0000 0.90989  0.80137  0.40616  Biso   1.000  O
  O44      1.0000 0.09011  0.80137  0.09384  Biso   1.000  O
  O45      1.0000 0.59011  0.69863  0.59384  Biso   1.000  O
  O46      1.0000 0.40989  0.69863  0.90616  Biso   1.000  O
  O47      1.0000 0.09011  0.19863  0.59384  Biso   1.000  O
  O48      1.0000 0.90989  0.19863  0.90616  Biso   1.000  O
  O49      1.0000 0.32715  0.29881  0.32472  Biso   1.000  O
  O50      1.0000 0.67285  0.29881  0.17528  Biso   1.000  O
  O51      1.0000 0.82715  0.79881  0.32472  Biso   1.000  O
  O52      1.0000 0.17285  0.79881  0.17528  Biso   1.000  O
  O53      1.0000 0.67285  0.70119  0.67528  Biso   1.000  O
  O54      1.0000 0.32715  0.70119  0.82472  Biso   1.000  O
  O55      1.0000 0.17285  0.20119  0.67528  Biso   1.000  O
  O56      1.0000 0.82715  0.20119  0.82472  Biso   1.000  O
  O57      1.0000 0.36502  0.35736  0.35906  Biso   1.000  O
  O58      1.0000 0.63498  0.35736  0.14094  Biso   1.000  O
  O59      1.0000 0.86502  0.85736  0.35906  Biso   1.000  O
  O60      1.0000 0.13498  0.85736  0.14094  Biso   1.000  O
  O61      1.0000 0.63498  0.64264  0.64094  Biso   1.000  O
  O62      1.0000 0.36502  0.64264  0.85906  Biso   1.000  O
  O63      1.0000 0.13498  0.14264  0.64094  Biso   1.000  O
  O64      1.0000 0.86502  0.14264  0.85906  Biso   1.000  O
  N73      1.0000 0.19570  0.74580  0.39020  Biso   1.000  N
  N74      1.0000 0.80430  0.74580  0.10980  Biso   1.000  N
  N75      1.0000 0.69570  0.24580  0.39020  Biso   1.000  N
  N76      1.0000 0.30430  0.24580  0.10980  Biso   1.000  N
  N77      1.0000 0.80430  0.25420  0.60980  Biso   1.000  N
  N78      1.0000 0.19570  0.25420  0.89020  Biso   1.000  N
  N79      1.0000 0.30430  0.75420  0.60980  Biso   1.000  N
  N80      1.0000 0.69570  0.75420  0.89020  Biso   1.000  N
  O65      1.0000 0.21380  0.75740  0.44770  Biso   1.000  O
  O66      1.0000 0.78620  0.75740  0.05230  Biso   1.000  O
  O67      1.0000 0.71380  0.25740  0.44770  Biso   1.000  O
  O68      1.0000 0.28620  0.25740  0.05230  Biso   1.000  O
  O69      1.0000 0.78620  0.24260  0.55230  Biso   1.000  O
  O70      1.0000 0.21380  0.24260  0.94770  Biso   1.000  O
  O71      1.0000 0.28620  0.74260  0.55230  Biso   1.000  O
  O72      1.0000 0.71380  0.74260  0.94770  Biso   1.000  O
  O73      1.0000 0.23770  0.74699  0.34390  Biso   1.000  O
  O74      1.0000 0.76230  0.74699  0.15610  Biso   1.000  O
  O75      1.0000 0.73770  0.24699  0.34390  Biso   1.000  O
  O76      1.0000 0.26230  0.24699  0.15610  Biso   1.000  O
  O77      1.0000 0.76230  0.25301  0.65610  Biso   1.000  O
  O78      1.0000 0.23770  0.25301  0.84390  Biso   1.000  O
  O79      1.0000 0.26230  0.75301  0.65610  Biso   1.000  O
  O80      1.0000 0.73770  0.75301  0.84390  Biso   1.000  O
  O81      1.0000 0.13320  0.73290  0.37510  Biso   1.000  O
  O82      1.0000 0.86680  0.73290  0.12490  Biso   1.000  O
  O83      1.0000 0.63320  0.23290  0.37510  Biso   1.000  O
  O84      1.0000 0.36680  0.23290  0.12490  Biso   1.000  O
  O85      1.0000 0.86680  0.26710  0.62490  Biso   1.000  O
  O86      1.0000 0.13320  0.26710  0.87510  Biso   1.000  O
  O87      1.0000 0.36680  0.76710  0.62490  Biso   1.000  O
  O88      1.0000 0.63320  0.76710  0.87510  Biso   1.000  O
  N81      1.0000 0.13300  0.75000  0.44240  Biso   1.000  N
  N82      1.0000 0.86700  0.75000  0.05760  Biso   1.000  N
  N83      1.0000 0.63300  0.25000  0.44240  Biso   1.000  N
  N84      1.0000 0.36700  0.25000  0.05760  Biso   1.000  N
  N85      1.0000 0.86700  0.25000  0.55760  Biso   1.000  N
  N86      1.0000 0.13300  0.25000  0.94240  Biso   1.000  N
  N87      1.0000 0.36700  0.75000  0.55760  Biso   1.000  N
  N88      1.0000 0.63300  0.75000  0.94240  Biso   1.000  N
  O89      1.0000 0.11960  0.73400  0.38100  Biso   1.000  O
  O90      1.0000 0.88040  0.73400  0.11900  Biso   1.000  O
  O91      1.0000 0.61960  0.23400  0.38100  Biso   1.000  O
  O92      1.0000 0.38040  0.23400  0.11900  Biso   1.000  O
  O93      1.0000 0.88040  0.26600  0.61900  Biso   1.000  O
  O94      1.0000 0.11960  0.26600  0.88100  Biso   1.000  O
  O95      1.0000 0.38040  0.76600  0.61900  Biso   1.000  O
  O96      1.0000 0.61960  0.76600  0.88100  Biso   1.000  O
  O97      1.0000 0.09320  0.74912  0.48750  Biso   1.000  O
  O98      1.0000 0.90680  0.74912  0.01250  Biso   1.000  O
  O99      1.0000 0.59320  0.24912  0.48750  Biso   1.000  O
  O100     1.0000 0.40680  0.24912  0.01250  Biso   1.000  O
  O101     1.0000 0.90680  0.25088  0.51250  Biso   1.000  O
  O102     1.0000 0.09320  0.25088  0.98750  Biso   1.000  O
  O103     1.0000 0.40680  0.75088  0.51250  Biso   1.000  O
  O104     1.0000 0.59320  0.75088  0.98750  Biso   1.000  O
  O105     1.0000 0.19210  0.76410  0.46020  Biso   1.000  O
  O106     1.0000 0.80790  0.76410  0.03980  Biso   1.000  O
  O107     1.0000 0.69210  0.26410  0.46020  Biso   1.000  O
  O108     1.0000 0.30790  0.26410  0.03980  Biso   1.000  O
  O109     1.0000 0.80790  0.23590  0.53980  Biso   1.000  O
  O110     1.0000 0.19210  0.23590  0.96020  Biso   1.000  O
  O111     1.0000 0.30790  0.73590  0.53980  Biso   1.000  O
  O112     1.0000 0.69210  0.73590  0.96020  Biso   1.000  O
