data_image0
_cell_length_a       27.4967
_cell_length_b       15.6562
_cell_length_c       15.3494
_cell_angle_alpha    90
_cell_angle_beta     120.473
_cell_angle_gamma    90

_symmetry_space_group_name_H-M    "P 1"
_symmetry_int_tables_number       1

loop_
  _symmetry_equiv_pos_as_xyz
  'x, y, z'

loop_
  _atom_site_label
  _atom_site_occupancy
  _atom_site_fract_x
  _atom_site_fract_y
  _atom_site_fract_z
  _atom_site_thermal_displace_type
  _atom_site_B_iso_or_equiv
  _atom_site_type_symbol
  Cu1      1.0000 0.34104  0.04909  0.18819  Biso   1.000  Cu
  Cu2      1.0000 0.65896  0.04909  0.31181  Biso   1.000  Cu
  Cu3      1.0000 0.84104  0.54909  0.18819  Biso   1.000  Cu
  Cu4      1.0000 0.15896  0.54909  0.31181  Biso   1.000  Cu
  Cu5      1.0000 0.65896  0.95091  0.81181  Biso   1.000  Cu
  Cu6      1.0000 0.34104  0.95091  0.68819  Biso   1.000  Cu
  Cu7      1.0000 0.15896  0.45091  0.81181  Biso   1.000  Cu
  Cu8      1.0000 0.84104  0.45091  0.68819  Biso   1.000  Cu
  Cu9      1.0000 0.22972  0.94312  0.02365  Biso   1.000  Cu
  Cu10     1.0000 0.77028  0.94312  0.47635  Biso   1.000  Cu
  Cu11     1.0000 0.72972  0.44312  0.02365  Biso   1.000  Cu
  Cu12     1.0000 0.27028  0.44312  0.47635  Biso   1.000  Cu
  Cu13     1.0000 0.77028  0.05688  0.97635  Biso   1.000  Cu
  Cu14     1.0000 0.22972  0.05688  0.52365  Biso   1.000  Cu
  Cu15     1.0000 0.27028  0.55688  0.97635  Biso   1.000  Cu
  Cu16     1.0000 0.72972  0.55688  0.52365  Biso   1.000  Cu
  O1       1.0000 0.19756  0.04113  0.07740  Biso   1.000  O
  O2       1.0000 0.80244  0.04113  0.42260  Biso   1.000  O
  O3       1.0000 0.69756  0.54113  0.07740  Biso   1.000  O
  O4       1.0000 0.30244  0.54113  0.42260  Biso   1.000  O
  O5       1.0000 0.80244  0.95887  0.92260  Biso   1.000  O
  O6       1.0000 0.19756  0.95887  0.57740  Biso   1.000  O
  O7       1.0000 0.30244  0.45887  0.92260  Biso   1.000  O
  O8       1.0000 0.69756  0.45887  0.57740  Biso   1.000  O
  O9       1.0000 0.27073  0.12725  0.16750  Biso   1.000  O
  O10      1.0000 0.72927  0.12725  0.33250  Biso   1.000  O
  O11      1.0000 0.77073  0.62725  0.16750  Biso   1.000  O
  O12      1.0000 0.22927  0.62725  0.33250  Biso   1.000  O
  O13      1.0000 0.72927  0.87275  0.83250  Biso   1.000  O
  O14      1.0000 0.27073  0.87275  0.66750  Biso   1.000  O
  O15      1.0000 0.22927  0.37275  0.83250  Biso   1.000  O
  O16      1.0000 0.77073  0.37275  0.66750  Biso   1.000  O
  O17      1.0000 0.16253  0.44635  0.24020  Biso   1.000  O
  O18      1.0000 0.83747  0.44635  0.25980  Biso   1.000  O
  O19      1.0000 0.66253  0.94635  0.24020  Biso   1.000  O
  O20      1.0000 0.33747  0.94635  0.25980  Biso   1.000  O
  O21      1.0000 0.83747  0.55365  0.75980  Biso   1.000  O
  O22      1.0000 0.16253  0.55365  0.74020  Biso   1.000  O
  O23      1.0000 0.33747  0.05365  0.75980  Biso   1.000  O
  O24      1.0000 0.66253  0.05365  0.74020  Biso   1.000  O
  O25      1.0000 0.23489  0.36683  0.35650  Biso   1.000  O
  O26      1.0000 0.76511  0.36683  0.14350  Biso   1.000  O
  O27      1.0000 0.73489  0.86683  0.35650  Biso   1.000  O
  O28      1.0000 0.26511  0.86683  0.14350  Biso   1.000  O
  O29      1.0000 0.76511  0.63317  0.64350  Biso   1.000  O
  O30      1.0000 0.23489  0.63317  0.85650  Biso   1.000  O
  O31      1.0000 0.26511  0.13317  0.64350  Biso   1.000  O
  O32      1.0000 0.73489  0.13317  0.85650  Biso   1.000  O
  O33      1.0000 0.30232  0.99201  0.05840  Biso   1.000  O
  O34      1.0000 0.69768  0.99201  0.44160  Biso   1.000  O
  O35      1.0000 0.80232  0.49201  0.05840  Biso   1.000  O
  O36      1.0000 0.19768  0.49201  0.44160  Biso   1.000  O
  O37      1.0000 0.69768  0.00799  0.94160  Biso   1.000  O
  O38      1.0000 0.30232  0.00799  0.55840  Biso   1.000  O
  O39      1.0000 0.19768  0.50799  0.94160  Biso   1.000  O
  O40      1.0000 0.80232  0.50799  0.55840  Biso   1.000  O
  H1       1.0000 0.32290  0.94890  0.06900  Biso   1.000  H
  H2       1.0000 0.67710  0.94890  0.43100  Biso   1.000  H
  H3       1.0000 0.82290  0.44890  0.06900  Biso   1.000  H
  H4       1.0000 0.17710  0.44890  0.43100  Biso   1.000  H
  H5       1.0000 0.67710  0.05110  0.93100  Biso   1.000  H
  H6       1.0000 0.32290  0.05110  0.56900  Biso   1.000  H
  H7       1.0000 0.17710  0.55110  0.93100  Biso   1.000  H
  H8       1.0000 0.82290  0.55110  0.56900  Biso   1.000  H
  N1       1.0000 0.37748  0.13750  0.13670  Biso   1.000  N
  N2       1.0000 0.62252  0.13750  0.36330  Biso   1.000  N
  N3       1.0000 0.87748  0.63750  0.13670  Biso   1.000  N
  N4       1.0000 0.12252  0.63750  0.36330  Biso   1.000  N
  N5       1.0000 0.62252  0.86250  0.86330  Biso   1.000  N
  N6       1.0000 0.37748  0.86250  0.63670  Biso   1.000  N
  N7       1.0000 0.12252  0.36250  0.86330  Biso   1.000  N
  N8       1.0000 0.87748  0.36250  0.63670  Biso   1.000  N
  N9       1.0000 0.39376  0.10230  0.32900  Biso   1.000  N
  N10      1.0000 0.60624  0.10230  0.17100  Biso   1.000  N
  N11      1.0000 0.89376  0.60230  0.32900  Biso   1.000  N
  N12      1.0000 0.10624  0.60230  0.17100  Biso   1.000  N
  N13      1.0000 0.60624  0.89770  0.67100  Biso   1.000  N
  N14      1.0000 0.39376  0.89770  0.82900  Biso   1.000  N
  N15      1.0000 0.10624  0.39770  0.67100  Biso   1.000  N
  N16      1.0000 0.89376  0.39770  0.82900  Biso   1.000  N
  N17      1.0000 0.15798  0.86840  0.97090  Biso   1.000  N
  N18      1.0000 0.84202  0.86840  0.52910  Biso   1.000  N
  N19      1.0000 0.65798  0.36840  0.97090  Biso   1.000  N
  N20      1.0000 0.34202  0.36840  0.52910  Biso   1.000  N
  N21      1.0000 0.84202  0.13160  0.02910  Biso   1.000  N
  N22      1.0000 0.15798  0.13160  0.47090  Biso   1.000  N
  N23      1.0000 0.34202  0.63160  0.02910  Biso   1.000  N
  N24      1.0000 0.65798  0.63160  0.47090  Biso   1.000  N
  N25      1.0000 0.19262  0.98630  0.87550  Biso   1.000  N
  N26      1.0000 0.80738  0.98630  0.62450  Biso   1.000  N
  N27      1.0000 0.69262  0.48630  0.87550  Biso   1.000  N
  N28      1.0000 0.30738  0.48630  0.62450  Biso   1.000  N
  N29      1.0000 0.80738  0.01370  0.12450  Biso   1.000  N
  N30      1.0000 0.19262  0.01370  0.37550  Biso   1.000  N
  N31      1.0000 0.30738  0.51370  0.12450  Biso   1.000  N
  N32      1.0000 0.69262  0.51370  0.37550  Biso   1.000  N
  N33      1.0000 0.02944  0.19820  0.04580  Biso   1.000  N
  N34      1.0000 0.97056  0.19820  0.45420  Biso   1.000  N
  N35      1.0000 0.52944  0.69820  0.04580  Biso   1.000  N
  N36      1.0000 0.47056  0.69820  0.45420  Biso   1.000  N
  N37      1.0000 0.97056  0.80180  0.95420  Biso   1.000  N
  N38      1.0000 0.02944  0.80180  0.54580  Biso   1.000  N
  N39      1.0000 0.47056  0.30180  0.95420  Biso   1.000  N
  N40      1.0000 0.52944  0.30180  0.54580  Biso   1.000  N
  H9       1.0000 0.01300  0.16200  0.99500  Biso   1.000  H
  H10      1.0000 0.98700  0.16200  0.50500  Biso   1.000  H
  H11      1.0000 0.51300  0.66200  0.99500  Biso   1.000  H
  H12      1.0000 0.48700  0.66200  0.50500  Biso   1.000  H
  H13      1.0000 0.98700  0.83800  0.00500  Biso   1.000  H
  H14      1.0000 0.01300  0.83800  0.49500  Biso   1.000  H
  H15      1.0000 0.48700  0.33800  0.00500  Biso   1.000  H
  H16      1.0000 0.51300  0.33800  0.49500  Biso   1.000  H
  H17      1.0000 0.00900  0.22500  0.06700  Biso   1.000  H
  H18      1.0000 0.99100  0.22500  0.43300  Biso   1.000  H
  H19      1.0000 0.50900  0.72500  0.06700  Biso   1.000  H
  H20      1.0000 0.49100  0.72500  0.43300  Biso   1.000  H
  H21      1.0000 0.99100  0.77500  0.93300  Biso   1.000  H
  H22      1.0000 0.00900  0.77500  0.56700  Biso   1.000  H
  H23      1.0000 0.49100  0.27500  0.93300  Biso   1.000  H
  H24      1.0000 0.50900  0.27500  0.56700  Biso   1.000  H
  C1       1.0000 0.42310  0.18150  0.22820  Biso   1.000  C
  C2       1.0000 0.57690  0.18150  0.27180  Biso   1.000  C
  C3       1.0000 0.92310  0.68150  0.22820  Biso   1.000  C
  C4       1.0000 0.07690  0.68150  0.27180  Biso   1.000  C
  C5       1.0000 0.57690  0.81850  0.77180  Biso   1.000  C
  C6       1.0000 0.42310  0.81850  0.72820  Biso   1.000  C
  C7       1.0000 0.07690  0.31850  0.77180  Biso   1.000  C
  C8       1.0000 0.92310  0.31850  0.72820  Biso   1.000  C
  H25      1.0000 0.45810  0.14990  0.25360  Biso   1.000  H
  H26      1.0000 0.54190  0.14990  0.24640  Biso   1.000  H
  H27      1.0000 0.95810  0.64990  0.25360  Biso   1.000  H
  H28      1.0000 0.04190  0.64990  0.24640  Biso   1.000  H
  H29      1.0000 0.54190  0.85010  0.74640  Biso   1.000  H
  H30      1.0000 0.45810  0.85010  0.75360  Biso   1.000  H
  H31      1.0000 0.04190  0.35010  0.74640  Biso   1.000  H
  H32      1.0000 0.95810  0.35010  0.75360  Biso   1.000  H
  H33      1.0000 0.42890  0.23830  0.20980  Biso   1.000  H
  H34      1.0000 0.57110  0.23830  0.29020  Biso   1.000  H
  H35      1.0000 0.92890  0.73830  0.20980  Biso   1.000  H
  H36      1.0000 0.07110  0.73830  0.29020  Biso   1.000  H
  H37      1.0000 0.57110  0.76170  0.79020  Biso   1.000  H
  H38      1.0000 0.42890  0.76170  0.70980  Biso   1.000  H
  H39      1.0000 0.07110  0.26170  0.79020  Biso   1.000  H
  H40      1.0000 0.92890  0.26170  0.70980  Biso   1.000  H
  C9       1.0000 0.40890  0.18800  0.30740  Biso   1.000  C
  C10      1.0000 0.59110  0.18800  0.19260  Biso   1.000  C
  C11      1.0000 0.90890  0.68800  0.30740  Biso   1.000  C
  C12      1.0000 0.09110  0.68800  0.19260  Biso   1.000  C
  C13      1.0000 0.59110  0.81200  0.69260  Biso   1.000  C
  C14      1.0000 0.40890  0.81200  0.80740  Biso   1.000  C
  C15      1.0000 0.09110  0.31200  0.69260  Biso   1.000  C
  C16      1.0000 0.90890  0.31200  0.80740  Biso   1.000  C
  H41      1.0000 0.37740  0.22680  0.28610  Biso   1.000  H
  H42      1.0000 0.62260  0.22680  0.21390  Biso   1.000  H
  H43      1.0000 0.87740  0.72680  0.28610  Biso   1.000  H
  H44      1.0000 0.12260  0.72680  0.21390  Biso   1.000  H
  H45      1.0000 0.62260  0.77320  0.71390  Biso   1.000  H
  H46      1.0000 0.37740  0.77320  0.78610  Biso   1.000  H
  H47      1.0000 0.12260  0.27320  0.71390  Biso   1.000  H
  H48      1.0000 0.87740  0.27320  0.78610  Biso   1.000  H
  H49      1.0000 0.44090  0.21080  0.36830  Biso   1.000  H
  H50      1.0000 0.55910  0.21080  0.13170  Biso   1.000  H
  H51      1.0000 0.94090  0.71080  0.36830  Biso   1.000  H
  H52      1.0000 0.05910  0.71080  0.13170  Biso   1.000  H
  H53      1.0000 0.55910  0.78920  0.63170  Biso   1.000  H
  H54      1.0000 0.44090  0.78920  0.86830  Biso   1.000  H
  H55      1.0000 0.05910  0.28920  0.63170  Biso   1.000  H
  H56      1.0000 0.94090  0.28920  0.86830  Biso   1.000  H
  C17      1.0000 0.33440  0.20020  0.07070  Biso   1.000  C
  C18      1.0000 0.66560  0.20020  0.42930  Biso   1.000  C
  C19      1.0000 0.83440  0.70020  0.07070  Biso   1.000  C
  C20      1.0000 0.16560  0.70020  0.42930  Biso   1.000  C
  C21      1.0000 0.66560  0.79980  0.92930  Biso   1.000  C
  C22      1.0000 0.33440  0.79980  0.57070  Biso   1.000  C
  C23      1.0000 0.16560  0.29980  0.92930  Biso   1.000  C
  C24      1.0000 0.83440  0.29980  0.57070  Biso   1.000  C
  H57      1.0000 0.35150  0.24300  0.05010  Biso   1.000  H
  H58      1.0000 0.64850  0.24300  0.44990  Biso   1.000  H
  H59      1.0000 0.85150  0.74300  0.05010  Biso   1.000  H
  H60      1.0000 0.14850  0.74300  0.44990  Biso   1.000  H
  H61      1.0000 0.64850  0.75700  0.94990  Biso   1.000  H
  H62      1.0000 0.35150  0.75700  0.55010  Biso   1.000  H
  H63      1.0000 0.14850  0.25700  0.94990  Biso   1.000  H
  H64      1.0000 0.85150  0.25700  0.55010  Biso   1.000  H
  H65      1.0000 0.31840  0.22670  0.10700  Biso   1.000  H
  H66      1.0000 0.68160  0.22670  0.39300  Biso   1.000  H
  H67      1.0000 0.81840  0.72670  0.10700  Biso   1.000  H
  H68      1.0000 0.18160  0.72670  0.39300  Biso   1.000  H
  H69      1.0000 0.68160  0.77330  0.89300  Biso   1.000  H
  H70      1.0000 0.31840  0.77330  0.60700  Biso   1.000  H
  H71      1.0000 0.18160  0.27330  0.89300  Biso   1.000  H
  H72      1.0000 0.81840  0.27330  0.60700  Biso   1.000  H
  H73      1.0000 0.30510  0.17170  0.01210  Biso   1.000  H
  H74      1.0000 0.69490  0.17170  0.48790  Biso   1.000  H
  H75      1.0000 0.80510  0.67170  0.01210  Biso   1.000  H
  H76      1.0000 0.19490  0.67170  0.48790  Biso   1.000  H
  H77      1.0000 0.69490  0.82830  0.98790  Biso   1.000  H
  H78      1.0000 0.30510  0.82830  0.51210  Biso   1.000  H
  H79      1.0000 0.19490  0.32830  0.98790  Biso   1.000  H
  H80      1.0000 0.80510  0.32830  0.51210  Biso   1.000  H
  C25      1.0000 0.40210  0.09750  0.08030  Biso   1.000  C
  C26      1.0000 0.59790  0.09750  0.41970  Biso   1.000  C
  C27      1.0000 0.90210  0.59750  0.08030  Biso   1.000  C
  C28      1.0000 0.09790  0.59750  0.41970  Biso   1.000  C
  C29      1.0000 0.59790  0.90250  0.91970  Biso   1.000  C
  C30      1.0000 0.40210  0.90250  0.58030  Biso   1.000  C
  C31      1.0000 0.09790  0.40250  0.91970  Biso   1.000  C
  C32      1.0000 0.90210  0.40250  0.58030  Biso   1.000  C
  H81      1.0000 0.37240  0.07500  0.01750  Biso   1.000  H
  H82      1.0000 0.62760  0.07500  0.48250  Biso   1.000  H
  H83      1.0000 0.87240  0.57500  0.01750  Biso   1.000  H
  H84      1.0000 0.12760  0.57500  0.48250  Biso   1.000  H
  H85      1.0000 0.62760  0.92500  0.98250  Biso   1.000  H
  H86      1.0000 0.37240  0.92500  0.51750  Biso   1.000  H
  H87      1.0000 0.12760  0.42500  0.98250  Biso   1.000  H
  H88      1.0000 0.87240  0.42500  0.51750  Biso   1.000  H
  H89      1.0000 0.42700  0.05200  0.11990  Biso   1.000  H
  H90      1.0000 0.57300  0.05200  0.38010  Biso   1.000  H
  H91      1.0000 0.92700  0.55200  0.11990  Biso   1.000  H
  H92      1.0000 0.07300  0.55200  0.38010  Biso   1.000  H
  H93      1.0000 0.57300  0.94800  0.88010  Biso   1.000  H
  H94      1.0000 0.42700  0.94800  0.61990  Biso   1.000  H
  H95      1.0000 0.07300  0.44800  0.88010  Biso   1.000  H
  H96      1.0000 0.92700  0.44800  0.61990  Biso   1.000  H
  H97      1.0000 0.42300  0.13950  0.06700  Biso   1.000  H
  H98      1.0000 0.57700  0.13950  0.43300  Biso   1.000  H
  H99      1.0000 0.92300  0.63950  0.06700  Biso   1.000  H
  H100     1.0000 0.07700  0.63950  0.43300  Biso   1.000  H
  H101     1.0000 0.57700  0.86050  0.93300  Biso   1.000  H
  H102     1.0000 0.42300  0.86050  0.56700  Biso   1.000  H
  H103     1.0000 0.07700  0.36050  0.93300  Biso   1.000  H
  H104     1.0000 0.92300  0.36050  0.56700  Biso   1.000  H
  C33      1.0000 0.36640  0.11370  0.38860  Biso   1.000  C
  C34      1.0000 0.63360  0.11370  0.11140  Biso   1.000  C
  C35      1.0000 0.86640  0.61370  0.38860  Biso   1.000  C
  C36      1.0000 0.13360  0.61370  0.11140  Biso   1.000  C
  C37      1.0000 0.63360  0.88630  0.61140  Biso   1.000  C
  C38      1.0000 0.36640  0.88630  0.88860  Biso   1.000  C
  C39      1.0000 0.13360  0.38630  0.61140  Biso   1.000  C
  C40      1.0000 0.86640  0.38630  0.88860  Biso   1.000  C
  H105     1.0000 0.35040  0.06040  0.39260  Biso   1.000  H
  H106     1.0000 0.64960  0.06040  0.10740  Biso   1.000  H
  H107     1.0000 0.85040  0.56040  0.39260  Biso   1.000  H
  H108     1.0000 0.14960  0.56040  0.10740  Biso   1.000  H
  H109     1.0000 0.64960  0.93960  0.60740  Biso   1.000  H
  H110     1.0000 0.35040  0.93960  0.89260  Biso   1.000  H
  H111     1.0000 0.14960  0.43960  0.60740  Biso   1.000  H
  H112     1.0000 0.85040  0.43960  0.89260  Biso   1.000  H
  H113     1.0000 0.33710  0.15570  0.35690  Biso   1.000  H
  H114     1.0000 0.66290  0.15570  0.14310  Biso   1.000  H
  H115     1.0000 0.83710  0.65570  0.35690  Biso   1.000  H
  H116     1.0000 0.16290  0.65570  0.14310  Biso   1.000  H
  H117     1.0000 0.66290  0.84430  0.64310  Biso   1.000  H
  H118     1.0000 0.33710  0.84430  0.85690  Biso   1.000  H
  H119     1.0000 0.16290  0.34430  0.64310  Biso   1.000  H
  H120     1.0000 0.83710  0.34430  0.85690  Biso   1.000  H
  H121     1.0000 0.39380  0.13240  0.45540  Biso   1.000  H
  H122     1.0000 0.60620  0.13240  0.04460  Biso   1.000  H
  H123     1.0000 0.89380  0.63240  0.45540  Biso   1.000  H
  H124     1.0000 0.10620  0.63240  0.04460  Biso   1.000  H
  H125     1.0000 0.60620  0.86760  0.54460  Biso   1.000  H
  H126     1.0000 0.39380  0.86760  0.95540  Biso   1.000  H
  H127     1.0000 0.10620  0.36760  0.54460  Biso   1.000  H
  H128     1.0000 0.89380  0.36760  0.95540  Biso   1.000  H
  C41      1.0000 0.44413  0.04860  0.38980  Biso   1.000  C
  C42      1.0000 0.55587  0.04860  0.11020  Biso   1.000  C
  C43      1.0000 0.94413  0.54860  0.38980  Biso   1.000  C
  C44      1.0000 0.05587  0.54860  0.11020  Biso   1.000  C
  C45      1.0000 0.55587  0.95140  0.61020  Biso   1.000  C
  C46      1.0000 0.44413  0.95140  0.88980  Biso   1.000  C
  C47      1.0000 0.05587  0.45140  0.61020  Biso   1.000  C
  C48      1.0000 0.94413  0.45140  0.88980  Biso   1.000  C
  H129     1.0000 0.46310  0.03870  0.35260  Biso   1.000  H
  H130     1.0000 0.53690  0.03870  0.14740  Biso   1.000  H
  H131     1.0000 0.96310  0.53870  0.35260  Biso   1.000  H
  H132     1.0000 0.03690  0.53870  0.14740  Biso   1.000  H
  H133     1.0000 0.53690  0.96130  0.64740  Biso   1.000  H
  H134     1.0000 0.46310  0.96130  0.85260  Biso   1.000  H
  H135     1.0000 0.03690  0.46130  0.64740  Biso   1.000  H
  H136     1.0000 0.96310  0.46130  0.85260  Biso   1.000  H
  H137     1.0000 0.43280  0.99490  0.40420  Biso   1.000  H
  H138     1.0000 0.56720  0.99490  0.09580  Biso   1.000  H
  H139     1.0000 0.93280  0.49490  0.40420  Biso   1.000  H
  H140     1.0000 0.06720  0.49490  0.09580  Biso   1.000  H
  H141     1.0000 0.56720  0.00510  0.59580  Biso   1.000  H
  H142     1.0000 0.43280  0.00510  0.90420  Biso   1.000  H
  H143     1.0000 0.06720  0.50510  0.59580  Biso   1.000  H
  H144     1.0000 0.93280  0.50510  0.90420  Biso   1.000  H
  H145     1.0000 0.46920  0.07730  0.45200  Biso   1.000  H
  H146     1.0000 0.53080  0.07730  0.04800  Biso   1.000  H
  H147     1.0000 0.96920  0.57730  0.45200  Biso   1.000  H
  H148     1.0000 0.03080  0.57730  0.04800  Biso   1.000  H
  H149     1.0000 0.53080  0.92270  0.54800  Biso   1.000  H
  H150     1.0000 0.46920  0.92270  0.95200  Biso   1.000  H
  H151     1.0000 0.03080  0.42270  0.54800  Biso   1.000  H
  H152     1.0000 0.96920  0.42270  0.95200  Biso   1.000  H
  C49      1.0000 0.11530  0.90870  0.87380  Biso   1.000  C
  C50      1.0000 0.88470  0.90870  0.62620  Biso   1.000  C
  C51      1.0000 0.61530  0.40870  0.87380  Biso   1.000  C
  C52      1.0000 0.38470  0.40870  0.62620  Biso   1.000  C
  C53      1.0000 0.88470  0.09130  0.12620  Biso   1.000  C
  C54      1.0000 0.11530  0.09130  0.37380  Biso   1.000  C
  C55      1.0000 0.38470  0.59130  0.12620  Biso   1.000  C
  C56      1.0000 0.61530  0.59130  0.37380  Biso   1.000  C
  H153     1.0000 0.08440  0.86920  0.83590  Biso   1.000  H
  H154     1.0000 0.91560  0.86920  0.66410  Biso   1.000  H
  H155     1.0000 0.58440  0.36920  0.83590  Biso   1.000  H
  H156     1.0000 0.41560  0.36920  0.66410  Biso   1.000  H
  H157     1.0000 0.91560  0.13080  0.16410  Biso   1.000  H
  H158     1.0000 0.08440  0.13080  0.33590  Biso   1.000  H
  H159     1.0000 0.41560  0.63080  0.16410  Biso   1.000  H
  H160     1.0000 0.58440  0.63080  0.33590  Biso   1.000  H
  H161     1.0000 0.10020  0.95960  0.88760  Biso   1.000  H
  H162     1.0000 0.89980  0.95960  0.61240  Biso   1.000  H
  H163     1.0000 0.60020  0.45960  0.88760  Biso   1.000  H
  H164     1.0000 0.39980  0.45960  0.61240  Biso   1.000  H
  H165     1.0000 0.89980  0.04040  0.11240  Biso   1.000  H
  H166     1.0000 0.10020  0.04040  0.38760  Biso   1.000  H
  H167     1.0000 0.39980  0.54040  0.11240  Biso   1.000  H
  H168     1.0000 0.60020  0.54040  0.38760  Biso   1.000  H
  C57      1.0000 0.14170  0.93150  0.81370  Biso   1.000  C
  C58      1.0000 0.85830  0.93150  0.68630  Biso   1.000  C
  C59      1.0000 0.64170  0.43150  0.81370  Biso   1.000  C
  C60      1.0000 0.35830  0.43150  0.68630  Biso   1.000  C
  C61      1.0000 0.85830  0.06850  0.18630  Biso   1.000  C
  C62      1.0000 0.14170  0.06850  0.31370  Biso   1.000  C
  C63      1.0000 0.35830  0.56850  0.18630  Biso   1.000  C
  C64      1.0000 0.64170  0.56850  0.31370  Biso   1.000  C
  H169     1.0000 0.11480  0.96210  0.75340  Biso   1.000  H
  H170     1.0000 0.88520  0.96210  0.74660  Biso   1.000  H
  H171     1.0000 0.61480  0.46210  0.75340  Biso   1.000  H
  H172     1.0000 0.38520  0.46210  0.74660  Biso   1.000  H
  H173     1.0000 0.88520  0.03790  0.24660  Biso   1.000  H
  H174     1.0000 0.11480  0.03790  0.25340  Biso   1.000  H
  H175     1.0000 0.38520  0.53790  0.24660  Biso   1.000  H
  H176     1.0000 0.61480  0.53790  0.25340  Biso   1.000  H
  H177     1.0000 0.15270  0.88000  0.79310  Biso   1.000  H
  H178     1.0000 0.84730  0.88000  0.70690  Biso   1.000  H
  H179     1.0000 0.65270  0.38000  0.79310  Biso   1.000  H
  H180     1.0000 0.34730  0.38000  0.70690  Biso   1.000  H
  H181     1.0000 0.84730  0.12000  0.20690  Biso   1.000  H
  H182     1.0000 0.15270  0.12000  0.29310  Biso   1.000  H
  H183     1.0000 0.34730  0.62000  0.20690  Biso   1.000  H
  H184     1.0000 0.65270  0.62000  0.29310  Biso   1.000  H
  C65      1.0000 0.17050  0.77900  0.95540  Biso   1.000  C
  C66      1.0000 0.82950  0.77900  0.54460  Biso   1.000  C
  C67      1.0000 0.67050  0.27900  0.95540  Biso   1.000  C
  C68      1.0000 0.32950  0.27900  0.54460  Biso   1.000  C
  C69      1.0000 0.82950  0.22100  0.04460  Biso   1.000  C
  C70      1.0000 0.17050  0.22100  0.45540  Biso   1.000  C
  C71      1.0000 0.32950  0.72100  0.04460  Biso   1.000  C
  C72      1.0000 0.67050  0.72100  0.45540  Biso   1.000  C
  H185     1.0000 0.19720  0.75420  0.01940  Biso   1.000  H
  H186     1.0000 0.80280  0.75420  0.48060  Biso   1.000  H
  H187     1.0000 0.69720  0.25420  0.01940  Biso   1.000  H
  H188     1.0000 0.30280  0.25420  0.48060  Biso   1.000  H
  H189     1.0000 0.80280  0.24580  0.98060  Biso   1.000  H
  H190     1.0000 0.19720  0.24580  0.51940  Biso   1.000  H
  H191     1.0000 0.30280  0.74580  0.98060  Biso   1.000  H
  H192     1.0000 0.69720  0.74580  0.51940  Biso   1.000  H
  H193     1.0000 0.18620  0.77900  0.91200  Biso   1.000  H
  H194     1.0000 0.81380  0.77900  0.58800  Biso   1.000  H
  H195     1.0000 0.68620  0.27900  0.91200  Biso   1.000  H
  H196     1.0000 0.31380  0.27900  0.58800  Biso   1.000  H
  H197     1.0000 0.81380  0.22100  0.08800  Biso   1.000  H
  H198     1.0000 0.18620  0.22100  0.41200  Biso   1.000  H
  H199     1.0000 0.31380  0.72100  0.08800  Biso   1.000  H
  H200     1.0000 0.68620  0.72100  0.41200  Biso   1.000  H
  H201     1.0000 0.13640  0.74610  0.92480  Biso   1.000  H
  H202     1.0000 0.86360  0.74610  0.57520  Biso   1.000  H
  H203     1.0000 0.63640  0.24610  0.92480  Biso   1.000  H
  H204     1.0000 0.36360  0.24610  0.57520  Biso   1.000  H
  H205     1.0000 0.86360  0.25390  0.07520  Biso   1.000  H
  H206     1.0000 0.13640  0.25390  0.42480  Biso   1.000  H
  H207     1.0000 0.36360  0.75390  0.07520  Biso   1.000  H
  H208     1.0000 0.63640  0.75390  0.42480  Biso   1.000  H
  C73      1.0000 0.13530  0.86740  0.04030  Biso   1.000  C
  C74      1.0000 0.86470  0.86740  0.45970  Biso   1.000  C
  C75      1.0000 0.63530  0.36740  0.04030  Biso   1.000  C
  C76      1.0000 0.36470  0.36740  0.45970  Biso   1.000  C
  C77      1.0000 0.86470  0.13260  0.95970  Biso   1.000  C
  C78      1.0000 0.13530  0.13260  0.54030  Biso   1.000  C
  C79      1.0000 0.36470  0.63260  0.95970  Biso   1.000  C
  C80      1.0000 0.63530  0.63260  0.54030  Biso   1.000  C
  H209     1.0000 0.10270  0.83100  0.01310  Biso   1.000  H
  H210     1.0000 0.89730  0.83100  0.48690  Biso   1.000  H
  H211     1.0000 0.60270  0.33100  0.01310  Biso   1.000  H
  H212     1.0000 0.39730  0.33100  0.48690  Biso   1.000  H
  H213     1.0000 0.89730  0.16900  0.98690  Biso   1.000  H
  H214     1.0000 0.10270  0.16900  0.51310  Biso   1.000  H
  H215     1.0000 0.39730  0.66900  0.98690  Biso   1.000  H
  H216     1.0000 0.60270  0.66900  0.51310  Biso   1.000  H
  H217     1.0000 0.12490  0.92430  0.04760  Biso   1.000  H
  H218     1.0000 0.87510  0.92430  0.45240  Biso   1.000  H
  H219     1.0000 0.62490  0.42430  0.04760  Biso   1.000  H
  H220     1.0000 0.37510  0.42430  0.45240  Biso   1.000  H
  H221     1.0000 0.87510  0.07570  0.95240  Biso   1.000  H
  H222     1.0000 0.12490  0.07570  0.54760  Biso   1.000  H
  H223     1.0000 0.37510  0.57570  0.95240  Biso   1.000  H
  H224     1.0000 0.62490  0.57570  0.54760  Biso   1.000  H
  H225     1.0000 0.16360  0.84620  0.10520  Biso   1.000  H
  H226     1.0000 0.83640  0.84620  0.39480  Biso   1.000  H
  H227     1.0000 0.66360  0.34620  0.10520  Biso   1.000  H
  H228     1.0000 0.33640  0.34620  0.39480  Biso   1.000  H
  H229     1.0000 0.83640  0.15380  0.89480  Biso   1.000  H
  H230     1.0000 0.16360  0.15380  0.60520  Biso   1.000  H
  H231     1.0000 0.33640  0.65380  0.89480  Biso   1.000  H
  H232     1.0000 0.66360  0.65380  0.60520  Biso   1.000  H
  C81      1.0000 0.22970  0.97910  0.83280  Biso   1.000  C
  C82      1.0000 0.77030  0.97910  0.66720  Biso   1.000  C
  C83      1.0000 0.72970  0.47910  0.83280  Biso   1.000  C
  C84      1.0000 0.27030  0.47910  0.66720  Biso   1.000  C
  C85      1.0000 0.77030  0.02090  0.16720  Biso   1.000  C
  C86      1.0000 0.22970  0.02090  0.33280  Biso   1.000  C
  C87      1.0000 0.27030  0.52090  0.16720  Biso   1.000  C
  C88      1.0000 0.72970  0.52090  0.33280  Biso   1.000  C
  H233     1.0000 0.21040  0.00020  0.76470  Biso   1.000  H
  H234     1.0000 0.78960  0.00020  0.73530  Biso   1.000  H
  H235     1.0000 0.71040  0.50020  0.76470  Biso   1.000  H
  H236     1.0000 0.28960  0.50020  0.73530  Biso   1.000  H
  H237     1.0000 0.78960  0.99980  0.23530  Biso   1.000  H
  H238     1.0000 0.21040  0.99980  0.26470  Biso   1.000  H
  H239     1.0000 0.28960  0.49980  0.23530  Biso   1.000  H
  H240     1.0000 0.71040  0.49980  0.26470  Biso   1.000  H
  H241     1.0000 0.23970  0.92020  0.83290  Biso   1.000  H
  H242     1.0000 0.76030  0.92020  0.66710  Biso   1.000  H
  H243     1.0000 0.73970  0.42020  0.83290  Biso   1.000  H
  H244     1.0000 0.26030  0.42020  0.66710  Biso   1.000  H
  H245     1.0000 0.76030  0.07980  0.16710  Biso   1.000  H
  H246     1.0000 0.23970  0.07980  0.33290  Biso   1.000  H
  H247     1.0000 0.26030  0.57980  0.16710  Biso   1.000  H
  H248     1.0000 0.73970  0.57980  0.33290  Biso   1.000  H
  H249     1.0000 0.26340  0.01200  0.87290  Biso   1.000  H
  H250     1.0000 0.73660  0.01200  0.62710  Biso   1.000  H
  H251     1.0000 0.76340  0.51200  0.87290  Biso   1.000  H
  H252     1.0000 0.23660  0.51200  0.62710  Biso   1.000  H
  H253     1.0000 0.73660  0.98800  0.12710  Biso   1.000  H
  H254     1.0000 0.26340  0.98800  0.37290  Biso   1.000  H
  H255     1.0000 0.23660  0.48800  0.12710  Biso   1.000  H
  H256     1.0000 0.76340  0.48800  0.37290  Biso   1.000  H
  C89      1.0000 0.17700  0.07750  0.86960  Biso   1.000  C
  C90      1.0000 0.82300  0.07750  0.63040  Biso   1.000  C
  C91      1.0000 0.67700  0.57750  0.86960  Biso   1.000  C
  C92      1.0000 0.32300  0.57750  0.63040  Biso   1.000  C
  C93      1.0000 0.82300  0.92250  0.13040  Biso   1.000  C
  C94      1.0000 0.17700  0.92250  0.36960  Biso   1.000  C
  C95      1.0000 0.32300  0.42250  0.13040  Biso   1.000  C
  C96      1.0000 0.67700  0.42250  0.36960  Biso   1.000  C
  H257     1.0000 0.16350  0.09820  0.80220  Biso   1.000  H
  H258     1.0000 0.83650  0.09820  0.69780  Biso   1.000  H
  H259     1.0000 0.66350  0.59820  0.80220  Biso   1.000  H
  H260     1.0000 0.33650  0.59820  0.69780  Biso   1.000  H
  H261     1.0000 0.83650  0.90180  0.19780  Biso   1.000  H
  H262     1.0000 0.16350  0.90180  0.30220  Biso   1.000  H
  H263     1.0000 0.33650  0.40180  0.19780  Biso   1.000  H
  H264     1.0000 0.66350  0.40180  0.30220  Biso   1.000  H
  H265     1.0000 0.20950  0.10990  0.91640  Biso   1.000  H
  H266     1.0000 0.79050  0.10990  0.58360  Biso   1.000  H
  H267     1.0000 0.70950  0.60990  0.91640  Biso   1.000  H
  H268     1.0000 0.29050  0.60990  0.58360  Biso   1.000  H
  H269     1.0000 0.79050  0.89010  0.08360  Biso   1.000  H
  H270     1.0000 0.20950  0.89010  0.41640  Biso   1.000  H
  H271     1.0000 0.29050  0.39010  0.08360  Biso   1.000  H
  H272     1.0000 0.70950  0.39010  0.41640  Biso   1.000  H
  H273     1.0000 0.14790  0.08350  0.88620  Biso   1.000  H
  H274     1.0000 0.85210  0.08350  0.61380  Biso   1.000  H
  H275     1.0000 0.64790  0.58350  0.88620  Biso   1.000  H
  H276     1.0000 0.35210  0.58350  0.61380  Biso   1.000  H
  H277     1.0000 0.85210  0.91650  0.11380  Biso   1.000  H
  H278     1.0000 0.14790  0.91650  0.38620  Biso   1.000  H
  H279     1.0000 0.35210  0.41650  0.11380  Biso   1.000  H
  H280     1.0000 0.64790  0.41650  0.38620  Biso   1.000  H
  C97      1.0000 0.18070  0.17130  0.13500  Biso   1.000  C
  C98      1.0000 0.81930  0.17130  0.36500  Biso   1.000  C
  C99      1.0000 0.68070  0.67130  0.13500  Biso   1.000  C
  C100     1.0000 0.31930  0.67130  0.36500  Biso   1.000  C
  C101     1.0000 0.81930  0.82870  0.86500  Biso   1.000  C
  C102     1.0000 0.18070  0.82870  0.63500  Biso   1.000  C
  C103     1.0000 0.31930  0.32870  0.86500  Biso   1.000  C
  C104     1.0000 0.68070  0.32870  0.63500  Biso   1.000  C
  C105     1.0000 0.20378  0.24260  0.19720  Biso   1.000  C
  C106     1.0000 0.79622  0.24260  0.30280  Biso   1.000  C
  C107     1.0000 0.70378  0.74260  0.19720  Biso   1.000  C
  C108     1.0000 0.29622  0.74260  0.30280  Biso   1.000  C
  C109     1.0000 0.79622  0.75740  0.80280  Biso   1.000  C
  C110     1.0000 0.20378  0.75740  0.69720  Biso   1.000  C
  C111     1.0000 0.29622  0.25740  0.80280  Biso   1.000  C
  C112     1.0000 0.70378  0.25740  0.69720  Biso   1.000  C
  H281     1.0000 0.24260  0.25130  0.23290  Biso   1.000  H
  H282     1.0000 0.75740  0.25130  0.26710  Biso   1.000  H
  H283     1.0000 0.74260  0.75130  0.23290  Biso   1.000  H
  H284     1.0000 0.25740  0.75130  0.26710  Biso   1.000  H
  H285     1.0000 0.75740  0.74870  0.76710  Biso   1.000  H
  H286     1.0000 0.24260  0.74870  0.73290  Biso   1.000  H
  H287     1.0000 0.25740  0.24870  0.76710  Biso   1.000  H
  H288     1.0000 0.74260  0.24870  0.73290  Biso   1.000  H
  C113     1.0000 0.16757  0.30080  0.20490  Biso   1.000  C
  C114     1.0000 0.83243  0.30080  0.29510  Biso   1.000  C
  C115     1.0000 0.66757  0.80080  0.20490  Biso   1.000  C
  C116     1.0000 0.33243  0.80080  0.29510  Biso   1.000  C
  C117     1.0000 0.83243  0.69920  0.79510  Biso   1.000  C
  C118     1.0000 0.16757  0.69920  0.70490  Biso   1.000  C
  C119     1.0000 0.33243  0.19920  0.79510  Biso   1.000  C
  C120     1.0000 0.66757  0.19920  0.70490  Biso   1.000  C
  C121     1.0000 0.10982  0.28630  0.15290  Biso   1.000  C
  C122     1.0000 0.89018  0.28630  0.34710  Biso   1.000  C
  C123     1.0000 0.60982  0.78630  0.15290  Biso   1.000  C
  C124     1.0000 0.39018  0.78630  0.34710  Biso   1.000  C
  C125     1.0000 0.89018  0.71370  0.84710  Biso   1.000  C
  C126     1.0000 0.10982  0.71370  0.65290  Biso   1.000  C
  C127     1.0000 0.39018  0.21370  0.84710  Biso   1.000  C
  C128     1.0000 0.60982  0.21370  0.65290  Biso   1.000  C
  H289     1.0000 0.08590  0.32570  0.15730  Biso   1.000  H
  H290     1.0000 0.91410  0.32570  0.34270  Biso   1.000  H
  H291     1.0000 0.58590  0.82570  0.15730  Biso   1.000  H
  H292     1.0000 0.41410  0.82570  0.34270  Biso   1.000  H
  H293     1.0000 0.91410  0.67430  0.84270  Biso   1.000  H
  H294     1.0000 0.08590  0.67430  0.65730  Biso   1.000  H
  H295     1.0000 0.41410  0.17430  0.84270  Biso   1.000  H
  H296     1.0000 0.58590  0.17430  0.65730  Biso   1.000  H
  C129     1.0000 0.08740  0.21300  0.09380  Biso   1.000  C
  C130     1.0000 0.91260  0.21300  0.40620  Biso   1.000  C
  C131     1.0000 0.58740  0.71300  0.09380  Biso   1.000  C
  C132     1.0000 0.41260  0.71300  0.40620  Biso   1.000  C
  C133     1.0000 0.91260  0.78700  0.90620  Biso   1.000  C
  C134     1.0000 0.08740  0.78700  0.59380  Biso   1.000  C
  C135     1.0000 0.41260  0.28700  0.90620  Biso   1.000  C
  C136     1.0000 0.58740  0.28700  0.59380  Biso   1.000  C
  C137     1.0000 0.12336  0.15710  0.08490  Biso   1.000  C
  C138     1.0000 0.87664  0.15710  0.41510  Biso   1.000  C
  C139     1.0000 0.62336  0.65710  0.08490  Biso   1.000  C
  C140     1.0000 0.37664  0.65710  0.41510  Biso   1.000  C
  C141     1.0000 0.87664  0.84290  0.91510  Biso   1.000  C
  C142     1.0000 0.12336  0.84290  0.58490  Biso   1.000  C
  C143     1.0000 0.37664  0.34290  0.91510  Biso   1.000  C
  C144     1.0000 0.62336  0.34290  0.58490  Biso   1.000  C
  H297     1.0000 0.10860  0.10900  0.04430  Biso   1.000  H
  H298     1.0000 0.89140  0.10900  0.45570  Biso   1.000  H
  H299     1.0000 0.60860  0.60900  0.04430  Biso   1.000  H
  H300     1.0000 0.39140  0.60900  0.45570  Biso   1.000  H
  H301     1.0000 0.89140  0.89100  0.95570  Biso   1.000  H
  H302     1.0000 0.10860  0.89100  0.54430  Biso   1.000  H
  H303     1.0000 0.39140  0.39100  0.95570  Biso   1.000  H
  H304     1.0000 0.60860  0.39100  0.54430  Biso   1.000  H
  C145     1.0000 0.21959  0.10840  0.12560  Biso   1.000  C
  C146     1.0000 0.78041  0.10840  0.37440  Biso   1.000  C
  C147     1.0000 0.71959  0.60840  0.12560  Biso   1.000  C
  C148     1.0000 0.28041  0.60840  0.37440  Biso   1.000  C
  C149     1.0000 0.78041  0.89160  0.87440  Biso   1.000  C
  C150     1.0000 0.21959  0.89160  0.62560  Biso   1.000  C
  C151     1.0000 0.28041  0.39160  0.87440  Biso   1.000  C
  C152     1.0000 0.71959  0.39160  0.62560  Biso   1.000  C
  C153     1.0000 0.19031  0.37740  0.27320  Biso   1.000  C
  C154     1.0000 0.80969  0.37740  0.22680  Biso   1.000  C
  C155     1.0000 0.69031  0.87740  0.27320  Biso   1.000  C
  C156     1.0000 0.30969  0.87740  0.22680  Biso   1.000  C
  C157     1.0000 0.80969  0.62260  0.72680  Biso   1.000  C
  C158     1.0000 0.19031  0.62260  0.77320  Biso   1.000  C
  C159     1.0000 0.30969  0.12260  0.72680  Biso   1.000  C
  C160     1.0000 0.69031  0.12260  0.77320  Biso   1.000  C
  Cl1      1.0000 0.50460  0.42830  0.17330  Biso   1.000  Cl
  Cl2      1.0000 0.49540  0.42830  0.32670  Biso   1.000  Cl
  Cl3      1.0000 0.00460  0.92830  0.17330  Biso   1.000  Cl
  Cl4      1.0000 0.99540  0.92830  0.32670  Biso   1.000  Cl
  Cl5      1.0000 0.49540  0.57170  0.82670  Biso   1.000  Cl
  Cl6      1.0000 0.50460  0.57170  0.67330  Biso   1.000  Cl
  Cl7      1.0000 0.99540  0.07170  0.82670  Biso   1.000  Cl
  Cl8      1.0000 0.00460  0.07170  0.67330  Biso   1.000  Cl
  O41      1.0000 0.50160  0.47630  0.09170  Biso   1.000  O
  O42      1.0000 0.49840  0.47630  0.40830  Biso   1.000  O
  O43      1.0000 0.00160  0.97630  0.09170  Biso   1.000  O
  O44      1.0000 0.99840  0.97630  0.40830  Biso   1.000  O
  O45      1.0000 0.49840  0.52370  0.90830  Biso   1.000  O
  O46      1.0000 0.50160  0.52370  0.59170  Biso   1.000  O
  O47      1.0000 0.99840  0.02370  0.90830  Biso   1.000  O
  O48      1.0000 0.00160  0.02370  0.59170  Biso   1.000  O
  O49      1.0000 0.51690  0.48500  0.25270  Biso   1.000  O
  O50      1.0000 0.48310  0.48500  0.24730  Biso   1.000  O
  O51      1.0000 0.01690  0.98500  0.25270  Biso   1.000  O
  O52      1.0000 0.98310  0.98500  0.24730  Biso   1.000  O
  O53      1.0000 0.48310  0.51500  0.74730  Biso   1.000  O
  O54      1.0000 0.51690  0.51500  0.75270  Biso   1.000  O
  O55      1.0000 0.98310  0.01500  0.74730  Biso   1.000  O
  O56      1.0000 0.01690  0.01500  0.75270  Biso   1.000  O
  O57      1.0000 0.54860  0.36650  0.21100  Biso   1.000  O
  O58      1.0000 0.45140  0.36650  0.28900  Biso   1.000  O
  O59      1.0000 0.04860  0.86650  0.21100  Biso   1.000  O
  O60      1.0000 0.95140  0.86650  0.28900  Biso   1.000  O
  O61      1.0000 0.45140  0.63350  0.78900  Biso   1.000  O
  O62      1.0000 0.54860  0.63350  0.71100  Biso   1.000  O
  O63      1.0000 0.95140  0.13350  0.78900  Biso   1.000  O
  O64      1.0000 0.04860  0.13350  0.71100  Biso   1.000  O
  O65      1.0000 0.45320  0.38360  0.13600  Biso   1.000  O
  O66      1.0000 0.54680  0.38360  0.36400  Biso   1.000  O
  O67      1.0000 0.95320  0.88360  0.13600  Biso   1.000  O
  O68      1.0000 0.04680  0.88360  0.36400  Biso   1.000  O
  O69      1.0000 0.54680  0.61640  0.86400  Biso   1.000  O
  O70      1.0000 0.45320  0.61640  0.63600  Biso   1.000  O
  O71      1.0000 0.04680  0.11640  0.86400  Biso   1.000  O
  O72      1.0000 0.95320  0.11640  0.63600  Biso   1.000  O
  Cl9      1.0000 0.98410  0.36240  0.22600  Biso   1.000  Cl
  Cl10     1.0000 0.01590  0.36240  0.27400  Biso   1.000  Cl
  Cl11     1.0000 0.48410  0.86240  0.22600  Biso   1.000  Cl
  Cl12     1.0000 0.51590  0.86240  0.27400  Biso   1.000  Cl
  Cl13     1.0000 0.01590  0.63760  0.77400  Biso   1.000  Cl
  Cl14     1.0000 0.98410  0.63760  0.72600  Biso   1.000  Cl
  Cl15     1.0000 0.51590  0.13760  0.77400  Biso   1.000  Cl
  Cl16     1.0000 0.48410  0.13760  0.72600  Biso   1.000  Cl
  O73      1.0000 0.98860  0.35420  0.13730  Biso   1.000  O
  O74      1.0000 0.01140  0.35420  0.36270  Biso   1.000  O
  O75      1.0000 0.48860  0.85420  0.13730  Biso   1.000  O
  O76      1.0000 0.51140  0.85420  0.36270  Biso   1.000  O
  O77      1.0000 0.01140  0.64580  0.86270  Biso   1.000  O
  O78      1.0000 0.98860  0.64580  0.63730  Biso   1.000  O
  O79      1.0000 0.51140  0.14580  0.86270  Biso   1.000  O
  O80      1.0000 0.48860  0.14580  0.63730  Biso   1.000  O
  O81      1.0000 0.92620  0.38380  0.19220  Biso   1.000  O
  O82      1.0000 0.07380  0.38380  0.30780  Biso   1.000  O
  O83      1.0000 0.42620  0.88380  0.19220  Biso   1.000  O
  O84      1.0000 0.57380  0.88380  0.30780  Biso   1.000  O
  O85      1.0000 0.07380  0.61620  0.80780  Biso   1.000  O
  O86      1.0000 0.92620  0.61620  0.69220  Biso   1.000  O
  O87      1.0000 0.57380  0.11620  0.80780  Biso   1.000  O
  O88      1.0000 0.42620  0.11620  0.69220  Biso   1.000  O
  O89      1.0000 0.99990  0.28770  0.28290  Biso   1.000  O
  O90      1.0000 0.00010  0.28770  0.21710  Biso   1.000  O
  O91      1.0000 0.49990  0.78770  0.28290  Biso   1.000  O
  O92      1.0000 0.50010  0.78770  0.21710  Biso   1.000  O
  O93      1.0000 0.00010  0.71230  0.71710  Biso   1.000  O
  O94      1.0000 0.99990  0.71230  0.78290  Biso   1.000  O
  O95      1.0000 0.50010  0.21230  0.71710  Biso   1.000  O
  O96      1.0000 0.49990  0.21230  0.78290  Biso   1.000  O
  O97      1.0000 0.01780  0.43450  0.28150  Biso   1.000  O
  O98      1.0000 0.98220  0.43450  0.21850  Biso   1.000  O
  O99      1.0000 0.51780  0.93450  0.28150  Biso   1.000  O
  O100     1.0000 0.48220  0.93450  0.21850  Biso   1.000  O
  O101     1.0000 0.98220  0.56550  0.71850  Biso   1.000  O
  O102     1.0000 0.01780  0.56550  0.78150  Biso   1.000  O
  O103     1.0000 0.48220  0.06550  0.71850  Biso   1.000  O
  O104     1.0000 0.51780  0.06550  0.78150  Biso   1.000  O
  Cl17     1.0000 0.49200  0.40920  0.28700  Biso   1.000  Cl
  Cl18     1.0000 0.50800  0.40920  0.21300  Biso   1.000  Cl
  Cl19     1.0000 0.99200  0.90920  0.28700  Biso   1.000  Cl
  Cl20     1.0000 0.00800  0.90920  0.21300  Biso   1.000  Cl
  Cl21     1.0000 0.50800  0.59080  0.71300  Biso   1.000  Cl
  Cl22     1.0000 0.49200  0.59080  0.78700  Biso   1.000  Cl
  Cl23     1.0000 0.00800  0.09080  0.71300  Biso   1.000  Cl
  Cl24     1.0000 0.99200  0.09080  0.78700  Biso   1.000  Cl
  O105     1.0000 0.46060  0.39400  0.18260  Biso   1.000  O
  O106     1.0000 0.53940  0.39400  0.31740  Biso   1.000  O
  O107     1.0000 0.96060  0.89400  0.18260  Biso   1.000  O
  O108     1.0000 0.03940  0.89400  0.31740  Biso   1.000  O
  O109     1.0000 0.53940  0.60600  0.81740  Biso   1.000  O
  O110     1.0000 0.46060  0.60600  0.68260  Biso   1.000  O
  O111     1.0000 0.03940  0.10600  0.81740  Biso   1.000  O
  O112     1.0000 0.96060  0.10600  0.68260  Biso   1.000  O
  O113     1.0000 0.53730  0.35360  0.33280  Biso   1.000  O
  O114     1.0000 0.46270  0.35360  0.16720  Biso   1.000  O
  O115     1.0000 0.03730  0.85360  0.33280  Biso   1.000  O
  O116     1.0000 0.96270  0.85360  0.16720  Biso   1.000  O
  O117     1.0000 0.46270  0.64640  0.66720  Biso   1.000  O
  O118     1.0000 0.53730  0.64640  0.83280  Biso   1.000  O
  O119     1.0000 0.96270  0.14640  0.66720  Biso   1.000  O
  O120     1.0000 0.03730  0.14640  0.83280  Biso   1.000  O
  O121     1.0000 0.45760  0.39390  0.33390  Biso   1.000  O
  O122     1.0000 0.54240  0.39390  0.16610  Biso   1.000  O
  O123     1.0000 0.95760  0.89390  0.33390  Biso   1.000  O
  O124     1.0000 0.04240  0.89390  0.16610  Biso   1.000  O
  O125     1.0000 0.54240  0.60610  0.66610  Biso   1.000  O
  O126     1.0000 0.45760  0.60610  0.83390  Biso   1.000  O
  O127     1.0000 0.04240  0.10610  0.66610  Biso   1.000  O
  O128     1.0000 0.95760  0.10610  0.83390  Biso   1.000  O
  O129     1.0000 0.50400  0.49740  0.30200  Biso   1.000  O
  O130     1.0000 0.49600  0.49740  0.19800  Biso   1.000  O
  O131     1.0000 0.00400  0.99740  0.30200  Biso   1.000  O
  O132     1.0000 0.99600  0.99740  0.19800  Biso   1.000  O
  O133     1.0000 0.49600  0.50260  0.69800  Biso   1.000  O
  O134     1.0000 0.50400  0.50260  0.80200  Biso   1.000  O
  O135     1.0000 0.99600  0.00260  0.69800  Biso   1.000  O
  O136     1.0000 0.00400  0.00260  0.80200  Biso   1.000  O
  Cl25     1.0000 0.98860  0.36220  0.23450  Biso   1.000  Cl
  Cl26     1.0000 0.01140  0.36220  0.26550  Biso   1.000  Cl
  Cl27     1.0000 0.48860  0.86220  0.23450  Biso   1.000  Cl
  Cl28     1.0000 0.51140  0.86220  0.26550  Biso   1.000  Cl
  Cl29     1.0000 0.01140  0.63780  0.76550  Biso   1.000  Cl
  Cl30     1.0000 0.98860  0.63780  0.73450  Biso   1.000  Cl
  Cl31     1.0000 0.51140  0.13780  0.76550  Biso   1.000  Cl
  Cl32     1.0000 0.48860  0.13780  0.73450  Biso   1.000  Cl
  O137     1.0000 0.03100  0.41760  0.23740  Biso   1.000  O
  O138     1.0000 0.96900  0.41760  0.26260  Biso   1.000  O
  O139     1.0000 0.53100  0.91760  0.23740  Biso   1.000  O
  O140     1.0000 0.46900  0.91760  0.26260  Biso   1.000  O
  O141     1.0000 0.96900  0.58240  0.76260  Biso   1.000  O
  O142     1.0000 0.03100  0.58240  0.73740  Biso   1.000  O
  O143     1.0000 0.46900  0.08240  0.76260  Biso   1.000  O
  O144     1.0000 0.53100  0.08240  0.73740  Biso   1.000  O
  O145     1.0000 0.01060  0.32750  0.33400  Biso   1.000  O
  O146     1.0000 0.98940  0.32750  0.16600  Biso   1.000  O
  O147     1.0000 0.51060  0.82750  0.33400  Biso   1.000  O
  O148     1.0000 0.48940  0.82750  0.16600  Biso   1.000  O
  O149     1.0000 0.98940  0.67250  0.66600  Biso   1.000  O
  O150     1.0000 0.01060  0.67250  0.83400  Biso   1.000  O
  O151     1.0000 0.48940  0.17250  0.66600  Biso   1.000  O
  O152     1.0000 0.51060  0.17250  0.83400  Biso   1.000  O
  O153     1.0000 0.93820  0.40620  0.20300  Biso   1.000  O
  O154     1.0000 0.06180  0.40620  0.29700  Biso   1.000  O
  O155     1.0000 0.43820  0.90620  0.20300  Biso   1.000  O
  O156     1.0000 0.56180  0.90620  0.29700  Biso   1.000  O
  O157     1.0000 0.06180  0.59380  0.79700  Biso   1.000  O
  O158     1.0000 0.93820  0.59380  0.70300  Biso   1.000  O
  O159     1.0000 0.56180  0.09380  0.79700  Biso   1.000  O
  O160     1.0000 0.43820  0.09380  0.70300  Biso   1.000  O
  O161     1.0000 0.98070  0.29350  0.16700  Biso   1.000  O
  O162     1.0000 0.01930  0.29350  0.33300  Biso   1.000  O
  O163     1.0000 0.48070  0.79350  0.16700  Biso   1.000  O
  O164     1.0000 0.51930  0.79350  0.33300  Biso   1.000  O
  O165     1.0000 0.01930  0.70650  0.83300  Biso   1.000  O
  O166     1.0000 0.98070  0.70650  0.66700  Biso   1.000  O
  O167     1.0000 0.51930  0.20650  0.83300  Biso   1.000  O
  O168     1.0000 0.48070  0.20650  0.66700  Biso   1.000  O
