data_image0
_cell_length_a       18.3933
_cell_length_b       18.3933
_cell_length_c       52.3346
_cell_angle_alpha    90
_cell_angle_beta     90
_cell_angle_gamma    120

_symmetry_space_group_name_H-M    "P 1"
_symmetry_int_tables_number       1

loop_
  _symmetry_equiv_pos_as_xyz
  'x, y, z'

loop_
  _atom_site_label
  _atom_site_occupancy
  _atom_site_fract_x
  _atom_site_fract_y
  _atom_site_fract_z
  _atom_site_thermal_displace_type
  _atom_site_B_iso_or_equiv
  _atom_site_type_symbol
  Cu1      1.0000 0.52477  0.47523  0.47946  Biso   1.000  Cu
  Cu2      1.0000 0.52477  0.04954  0.47946  Biso   1.000  Cu
  Cu3      1.0000 0.95046  0.47523  0.47946  Biso   1.000  Cu
  Cu4      1.0000 0.47523  0.52477  0.52054  Biso   1.000  Cu
  Cu5      1.0000 0.04954  0.52477  0.52054  Biso   1.000  Cu
  Cu6      1.0000 0.47523  0.95046  0.52054  Biso   1.000  Cu
  Cu7      1.0000 0.19144  0.80856  0.81279  Biso   1.000  Cu
  Cu8      1.0000 0.19144  0.38287  0.81279  Biso   1.000  Cu
  Cu9      1.0000 0.61713  0.80856  0.81279  Biso   1.000  Cu
  Cu10     1.0000 0.14190  0.85810  0.85387  Biso   1.000  Cu
  Cu11     1.0000 0.71621  0.85810  0.85387  Biso   1.000  Cu
  Cu12     1.0000 0.14190  0.28379  0.85387  Biso   1.000  Cu
  Cu13     1.0000 0.85810  0.14190  0.14613  Biso   1.000  Cu
  Cu14     1.0000 0.85810  0.71621  0.14613  Biso   1.000  Cu
  Cu15     1.0000 0.28379  0.14190  0.14613  Biso   1.000  Cu
  Cu16     1.0000 0.80856  0.19144  0.18721  Biso   1.000  Cu
  Cu17     1.0000 0.38287  0.19144  0.18721  Biso   1.000  Cu
  Cu18     1.0000 0.80856  0.61713  0.18721  Biso   1.000  Cu
  O1       1.0000 0.62890  0.51880  0.49850  Biso   1.000  O
  O2       1.0000 0.48120  0.11010  0.49850  Biso   1.000  O
  O3       1.0000 0.88990  0.37110  0.49850  Biso   1.000  O
  O4       1.0000 0.51880  0.62890  0.50150  Biso   1.000  O
  O5       1.0000 0.11010  0.48120  0.50150  Biso   1.000  O
  O6       1.0000 0.37110  0.88990  0.50150  Biso   1.000  O
  O7       1.0000 0.29557  0.85213  0.83183  Biso   1.000  O
  O8       1.0000 0.14787  0.44343  0.83183  Biso   1.000  O
  O9       1.0000 0.55657  0.70443  0.83183  Biso   1.000  O
  O10      1.0000 0.18547  0.96223  0.83483  Biso   1.000  O
  O11      1.0000 0.77677  0.81453  0.83483  Biso   1.000  O
  O12      1.0000 0.03777  0.22323  0.83483  Biso   1.000  O
  O13      1.0000 0.96223  0.18547  0.16517  Biso   1.000  O
  O14      1.0000 0.81453  0.77677  0.16517  Biso   1.000  O
  O15      1.0000 0.22323  0.03777  0.16517  Biso   1.000  O
  O16      1.0000 0.85213  0.29557  0.16817  Biso   1.000  O
  O17      1.0000 0.44343  0.14787  0.16817  Biso   1.000  O
  O18      1.0000 0.70443  0.55657  0.16817  Biso   1.000  O
  O19      1.0000 0.37110  0.48120  0.50150  Biso   1.000  O
  O20      1.0000 0.51880  0.88990  0.50150  Biso   1.000  O
  O21      1.0000 0.11010  0.62890  0.50150  Biso   1.000  O
  O22      1.0000 0.48120  0.37110  0.49850  Biso   1.000  O
  O23      1.0000 0.88990  0.51880  0.49850  Biso   1.000  O
  O24      1.0000 0.62890  0.11010  0.49850  Biso   1.000  O
  O25      1.0000 0.03777  0.81453  0.83483  Biso   1.000  O
  O26      1.0000 0.18547  0.22323  0.83483  Biso   1.000  O
  O27      1.0000 0.77677  0.96223  0.83483  Biso   1.000  O
  O28      1.0000 0.14787  0.70443  0.83183  Biso   1.000  O
  O29      1.0000 0.55657  0.85213  0.83183  Biso   1.000  O
  O30      1.0000 0.29557  0.44343  0.83183  Biso   1.000  O
  O31      1.0000 0.70443  0.14787  0.16817  Biso   1.000  O
  O32      1.0000 0.85213  0.55657  0.16817  Biso   1.000  O
  O33      1.0000 0.44343  0.29557  0.16817  Biso   1.000  O
  O34      1.0000 0.81453  0.03777  0.16517  Biso   1.000  O
  O35      1.0000 0.22323  0.18547  0.16517  Biso   1.000  O
  O36      1.0000 0.96223  0.77677  0.16517  Biso   1.000  O
  O37      1.0000 0.58760  0.56050  0.53323  Biso   1.000  O
  O38      1.0000 0.43950  0.02710  0.53323  Biso   1.000  O
  O39      1.0000 0.97290  0.41240  0.53323  Biso   1.000  O
  O40      1.0000 0.56050  0.58760  0.46677  Biso   1.000  O
  O41      1.0000 0.02710  0.43950  0.46677  Biso   1.000  O
  O42      1.0000 0.41240  0.97290  0.46677  Biso   1.000  O
  O43      1.0000 0.25427  0.89383  0.86656  Biso   1.000  O
  O44      1.0000 0.10617  0.36043  0.86656  Biso   1.000  O
  O45      1.0000 0.63957  0.74573  0.86656  Biso   1.000  O
  O46      1.0000 0.22717  0.92093  0.80010  Biso   1.000  O
  O47      1.0000 0.69377  0.77283  0.80010  Biso   1.000  O
  O48      1.0000 0.07907  0.30623  0.80010  Biso   1.000  O
  O49      1.0000 0.92093  0.22717  0.19990  Biso   1.000  O
  O50      1.0000 0.77283  0.69377  0.19990  Biso   1.000  O
  O51      1.0000 0.30623  0.07907  0.19990  Biso   1.000  O
  O52      1.0000 0.89383  0.25427  0.13344  Biso   1.000  O
  O53      1.0000 0.36043  0.10617  0.13344  Biso   1.000  O
  O54      1.0000 0.74573  0.63957  0.13344  Biso   1.000  O
  O55      1.0000 0.41240  0.43950  0.46677  Biso   1.000  O
  O56      1.0000 0.56050  0.97290  0.46677  Biso   1.000  O
  O57      1.0000 0.02710  0.58760  0.46677  Biso   1.000  O
  O58      1.0000 0.43950  0.41240  0.53323  Biso   1.000  O
  O59      1.0000 0.97290  0.56050  0.53323  Biso   1.000  O
  O60      1.0000 0.58760  0.02710  0.53323  Biso   1.000  O
  O61      1.0000 0.07907  0.77283  0.80010  Biso   1.000  O
  O62      1.0000 0.22717  0.30623  0.80010  Biso   1.000  O
  O63      1.0000 0.69377  0.92093  0.80010  Biso   1.000  O
  O64      1.0000 0.10617  0.74573  0.86656  Biso   1.000  O
  O65      1.0000 0.63957  0.89383  0.86656  Biso   1.000  O
  O66      1.0000 0.25427  0.36043  0.86656  Biso   1.000  O
  O67      1.0000 0.74573  0.10617  0.13344  Biso   1.000  O
  O68      1.0000 0.89383  0.63957  0.13344  Biso   1.000  O
  O69      1.0000 0.36043  0.25427  0.13344  Biso   1.000  O
  O70      1.0000 0.77283  0.07907  0.19990  Biso   1.000  O
  O71      1.0000 0.30623  0.22717  0.19990  Biso   1.000  O
  O72      1.0000 0.92093  0.69377  0.19990  Biso   1.000  O
  C1       1.0000 0.63820  0.54740  0.52083  Biso   1.000  C
  C2       1.0000 0.45260  0.09080  0.52083  Biso   1.000  C
  C3       1.0000 0.90920  0.36180  0.52083  Biso   1.000  C
  C4       1.0000 0.54740  0.63820  0.47917  Biso   1.000  C
  C5       1.0000 0.09080  0.45260  0.47917  Biso   1.000  C
  C6       1.0000 0.36180  0.90920  0.47917  Biso   1.000  C
  C7       1.0000 0.30487  0.88073  0.85416  Biso   1.000  C
  C8       1.0000 0.11927  0.42413  0.85416  Biso   1.000  C
  C9       1.0000 0.57587  0.69513  0.85416  Biso   1.000  C
  C10      1.0000 0.21407  0.97153  0.81250  Biso   1.000  C
  C11      1.0000 0.75747  0.78593  0.81250  Biso   1.000  C
  C12      1.0000 0.02847  0.24253  0.81250  Biso   1.000  C
  C13      1.0000 0.97153  0.21407  0.18750  Biso   1.000  C
  C14      1.0000 0.78593  0.75747  0.18750  Biso   1.000  C
  C15      1.0000 0.24253  0.02847  0.18750  Biso   1.000  C
  C16      1.0000 0.88073  0.30487  0.14584  Biso   1.000  C
  C17      1.0000 0.42413  0.11927  0.14584  Biso   1.000  C
  C18      1.0000 0.69513  0.57587  0.14584  Biso   1.000  C
  C19      1.0000 0.36180  0.45260  0.47917  Biso   1.000  C
  C20      1.0000 0.54740  0.90920  0.47917  Biso   1.000  C
  C21      1.0000 0.09080  0.63820  0.47917  Biso   1.000  C
  C22      1.0000 0.45260  0.36180  0.52083  Biso   1.000  C
  C23      1.0000 0.90920  0.54740  0.52083  Biso   1.000  C
  C24      1.0000 0.63820  0.09080  0.52083  Biso   1.000  C
  C25      1.0000 0.02847  0.78593  0.81250  Biso   1.000  C
  C26      1.0000 0.21407  0.24253  0.81250  Biso   1.000  C
  C27      1.0000 0.75747  0.97153  0.81250  Biso   1.000  C
  C28      1.0000 0.11927  0.69513  0.85416  Biso   1.000  C
  C29      1.0000 0.57587  0.88073  0.85416  Biso   1.000  C
  C30      1.0000 0.30487  0.42413  0.85416  Biso   1.000  C
  C31      1.0000 0.69513  0.11927  0.14584  Biso   1.000  C
  C32      1.0000 0.88073  0.57587  0.14584  Biso   1.000  C
  C33      1.0000 0.42413  0.30487  0.14584  Biso   1.000  C
  C34      1.0000 0.78593  0.02847  0.18750  Biso   1.000  C
  C35      1.0000 0.24253  0.21407  0.18750  Biso   1.000  C
  C36      1.0000 0.97153  0.75747  0.18750  Biso   1.000  C
  C37      1.0000 0.71760  0.56680  0.53393  Biso   1.000  C
  C38      1.0000 0.43320  0.15080  0.53393  Biso   1.000  C
  C39      1.0000 0.84920  0.28240  0.53393  Biso   1.000  C
  C40      1.0000 0.56680  0.71760  0.46607  Biso   1.000  C
  C41      1.0000 0.15080  0.43320  0.46607  Biso   1.000  C
  C42      1.0000 0.28240  0.84920  0.46607  Biso   1.000  C
  C43      1.0000 0.38427  0.90013  0.86726  Biso   1.000  C
  C44      1.0000 0.09987  0.48413  0.86726  Biso   1.000  C
  C45      1.0000 0.51587  0.61573  0.86726  Biso   1.000  C
  C46      1.0000 0.23347  0.05093  0.79940  Biso   1.000  C
  C47      1.0000 0.81747  0.76653  0.79940  Biso   1.000  C
  C48      1.0000 0.94907  0.18253  0.79940  Biso   1.000  C
  C49      1.0000 0.05093  0.23347  0.20060  Biso   1.000  C
  C50      1.0000 0.76653  0.81747  0.20060  Biso   1.000  C
  C51      1.0000 0.18253  0.94907  0.20060  Biso   1.000  C
  C52      1.0000 0.90013  0.38427  0.13274  Biso   1.000  C
  C53      1.0000 0.48413  0.09987  0.13274  Biso   1.000  C
  C54      1.0000 0.61573  0.51587  0.13274  Biso   1.000  C
  C55      1.0000 0.28240  0.43320  0.46607  Biso   1.000  C
  C56      1.0000 0.56680  0.84920  0.46607  Biso   1.000  C
  C57      1.0000 0.15080  0.71760  0.46607  Biso   1.000  C
  C58      1.0000 0.43320  0.28240  0.53393  Biso   1.000  C
  C59      1.0000 0.84920  0.56680  0.53393  Biso   1.000  C
  C60      1.0000 0.71760  0.15080  0.53393  Biso   1.000  C
  C61      1.0000 0.94907  0.76653  0.79940  Biso   1.000  C
  C62      1.0000 0.23347  0.18253  0.79940  Biso   1.000  C
  C63      1.0000 0.81747  0.05093  0.79940  Biso   1.000  C
  C64      1.0000 0.09987  0.61573  0.86726  Biso   1.000  C
  C65      1.0000 0.51587  0.90013  0.86726  Biso   1.000  C
  C66      1.0000 0.38427  0.48413  0.86726  Biso   1.000  C
  C67      1.0000 0.61573  0.09987  0.13274  Biso   1.000  C
  C68      1.0000 0.90013  0.51587  0.13274  Biso   1.000  C
  C69      1.0000 0.48413  0.38427  0.13274  Biso   1.000  C
  C70      1.0000 0.76653  0.94907  0.20060  Biso   1.000  C
  C71      1.0000 0.18253  0.23347  0.20060  Biso   1.000  C
  C72      1.0000 0.05093  0.81747  0.20060  Biso   1.000  C
  C73      1.0000 0.77840  0.55680  0.52138  Biso   1.000  C
  C74      1.0000 0.44320  0.22160  0.52138  Biso   1.000  C
  C75      1.0000 0.77840  0.22160  0.52138  Biso   1.000  C
  C76      1.0000 0.55680  0.77840  0.47862  Biso   1.000  C
  C77      1.0000 0.22160  0.44320  0.47862  Biso   1.000  C
  C78      1.0000 0.22160  0.77840  0.47862  Biso   1.000  C
  C79      1.0000 0.44507  0.89013  0.85471  Biso   1.000  C
  C80      1.0000 0.10987  0.55493  0.85471  Biso   1.000  C
  C81      1.0000 0.44507  0.55493  0.85471  Biso   1.000  C
  C82      1.0000 0.22347  0.11173  0.81195  Biso   1.000  C
  C83      1.0000 0.88827  0.77653  0.81195  Biso   1.000  C
  C84      1.0000 0.88827  0.11173  0.81195  Biso   1.000  C
  C85      1.0000 0.11173  0.22347  0.18805  Biso   1.000  C
  C86      1.0000 0.77653  0.88827  0.18805  Biso   1.000  C
  C87      1.0000 0.11173  0.88827  0.18805  Biso   1.000  C
  C88      1.0000 0.89013  0.44507  0.14529  Biso   1.000  C
  C89      1.0000 0.55493  0.10987  0.14529  Biso   1.000  C
  C90      1.0000 0.55493  0.44507  0.14529  Biso   1.000  C
  H1       1.0000 0.77140  0.54280  0.50370  Biso   1.000  H
  H2       1.0000 0.45720  0.22860  0.50370  Biso   1.000  H
  H3       1.0000 0.77140  0.22860  0.50370  Biso   1.000  H
  H4       1.0000 0.54280  0.77140  0.49630  Biso   1.000  H
  H5       1.0000 0.22860  0.45720  0.49630  Biso   1.000  H
  H6       1.0000 0.22860  0.77140  0.49630  Biso   1.000  H
  H7       1.0000 0.43807  0.87613  0.83703  Biso   1.000  H
  H8       1.0000 0.12387  0.56193  0.83703  Biso   1.000  H
  H9       1.0000 0.43807  0.56193  0.83703  Biso   1.000  H
  H10      1.0000 0.20947  0.10473  0.82963  Biso   1.000  H
  H11      1.0000 0.89527  0.79053  0.82963  Biso   1.000  H
  H12      1.0000 0.89527  0.10473  0.82963  Biso   1.000  H
  H13      1.0000 0.10473  0.20947  0.17037  Biso   1.000  H
  H14      1.0000 0.79053  0.89527  0.17037  Biso   1.000  H
  H15      1.0000 0.10473  0.89527  0.17037  Biso   1.000  H
  H16      1.0000 0.87613  0.43807  0.16297  Biso   1.000  H
  H17      1.0000 0.56193  0.12387  0.16297  Biso   1.000  H
  H18      1.0000 0.56193  0.43807  0.16297  Biso   1.000  H
  C91      1.0000 0.73150  0.59180  0.55949  Biso   1.000  C
  C92      1.0000 0.40820  0.13970  0.55949  Biso   1.000  C
  C93      1.0000 0.86030  0.26850  0.55949  Biso   1.000  C
  C94      1.0000 0.59180  0.73150  0.44051  Biso   1.000  C
  C95      1.0000 0.13970  0.40820  0.44051  Biso   1.000  C
  C96      1.0000 0.26850  0.86030  0.44051  Biso   1.000  C
  C97      1.0000 0.39817  0.92513  0.89282  Biso   1.000  C
  C98      1.0000 0.07487  0.47303  0.89282  Biso   1.000  C
  C99      1.0000 0.52697  0.60183  0.89282  Biso   1.000  C
  C100     1.0000 0.25847  0.06483  0.77384  Biso   1.000  C
  C101     1.0000 0.80637  0.74153  0.77384  Biso   1.000  C
  C102     1.0000 0.93517  0.19363  0.77384  Biso   1.000  C
  C103     1.0000 0.06483  0.25847  0.22616  Biso   1.000  C
  C104     1.0000 0.74153  0.80637  0.22616  Biso   1.000  C
  C105     1.0000 0.19363  0.93517  0.22616  Biso   1.000  C
  C106     1.0000 0.92513  0.39817  0.10718  Biso   1.000  C
  C107     1.0000 0.47303  0.07487  0.10718  Biso   1.000  C
  C108     1.0000 0.60183  0.52697  0.10718  Biso   1.000  C
  C109     1.0000 0.26850  0.40820  0.44051  Biso   1.000  C
  C110     1.0000 0.59180  0.86030  0.44051  Biso   1.000  C
  C111     1.0000 0.13970  0.73150  0.44051  Biso   1.000  C
  C112     1.0000 0.40820  0.26850  0.55949  Biso   1.000  C
  C113     1.0000 0.86030  0.59180  0.55949  Biso   1.000  C
  C114     1.0000 0.73150  0.13970  0.55949  Biso   1.000  C
  C115     1.0000 0.93517  0.74153  0.77384  Biso   1.000  C
  C116     1.0000 0.25847  0.19363  0.77384  Biso   1.000  C
  C117     1.0000 0.80637  0.06483  0.77384  Biso   1.000  C
  C118     1.0000 0.07487  0.60183  0.89282  Biso   1.000  C
  C119     1.0000 0.52697  0.92513  0.89282  Biso   1.000  C
  C120     1.0000 0.39817  0.47303  0.89282  Biso   1.000  C
  C121     1.0000 0.60183  0.07487  0.10718  Biso   1.000  C
  C122     1.0000 0.92513  0.52697  0.10718  Biso   1.000  C
  C123     1.0000 0.47303  0.39817  0.10718  Biso   1.000  C
  C124     1.0000 0.74153  0.93517  0.22616  Biso   1.000  C
  C125     1.0000 0.19363  0.25847  0.22616  Biso   1.000  C
  C126     1.0000 0.06483  0.80637  0.22616  Biso   1.000  C
  H19      1.0000 0.69180  0.60170  0.56810  Biso   1.000  H
  H20      1.0000 0.39830  0.09010  0.56810  Biso   1.000  H
  H21      1.0000 0.90990  0.30820  0.56810  Biso   1.000  H
  H22      1.0000 0.60170  0.69180  0.43190  Biso   1.000  H
  H23      1.0000 0.09010  0.39830  0.43190  Biso   1.000  H
  H24      1.0000 0.30820  0.90990  0.43190  Biso   1.000  H
  H25      1.0000 0.35847  0.93503  0.90143  Biso   1.000  H
  H26      1.0000 0.06497  0.42343  0.90143  Biso   1.000  H
  H27      1.0000 0.57657  0.64153  0.90143  Biso   1.000  H
  H28      1.0000 0.26837  0.02513  0.76523  Biso   1.000  H
  H29      1.0000 0.75677  0.73163  0.76523  Biso   1.000  H
  H30      1.0000 0.97487  0.24323  0.76523  Biso   1.000  H
  H31      1.0000 0.02513  0.26837  0.23477  Biso   1.000  H
  H32      1.0000 0.73163  0.75677  0.23477  Biso   1.000  H
  H33      1.0000 0.24323  0.97487  0.23477  Biso   1.000  H
  H34      1.0000 0.93503  0.35847  0.09857  Biso   1.000  H
  H35      1.0000 0.42343  0.06497  0.09857  Biso   1.000  H
  H36      1.0000 0.64153  0.57657  0.09857  Biso   1.000  H
  H37      1.0000 0.30820  0.39830  0.43190  Biso   1.000  H
  H38      1.0000 0.60170  0.90990  0.43190  Biso   1.000  H
  H39      1.0000 0.09010  0.69180  0.43190  Biso   1.000  H
  H40      1.0000 0.39830  0.30820  0.56810  Biso   1.000  H
  H41      1.0000 0.90990  0.60170  0.56810  Biso   1.000  H
  H42      1.0000 0.69180  0.09010  0.56810  Biso   1.000  H
  H43      1.0000 0.97487  0.73163  0.76523  Biso   1.000  H
  H44      1.0000 0.26837  0.24323  0.76523  Biso   1.000  H
  H45      1.0000 0.75677  0.02513  0.76523  Biso   1.000  H
  H46      1.0000 0.06497  0.64153  0.90143  Biso   1.000  H
  H47      1.0000 0.57657  0.93503  0.90143  Biso   1.000  H
  H48      1.0000 0.35847  0.42343  0.90143  Biso   1.000  H
  H49      1.0000 0.64153  0.06497  0.09857  Biso   1.000  H
  H50      1.0000 0.93503  0.57657  0.09857  Biso   1.000  H
  H51      1.0000 0.42343  0.35847  0.09857  Biso   1.000  H
  H52      1.0000 0.73163  0.97487  0.23477  Biso   1.000  H
  H53      1.0000 0.24323  0.26837  0.23477  Biso   1.000  H
  H54      1.0000 0.02513  0.75677  0.23477  Biso   1.000  H
  C127     1.0000 0.80120  0.60230  0.57242  Biso   1.000  C
  C128     1.0000 0.39770  0.19890  0.57242  Biso   1.000  C
  C129     1.0000 0.80110  0.19880  0.57242  Biso   1.000  C
  C130     1.0000 0.60230  0.80120  0.42758  Biso   1.000  C
  C131     1.0000 0.19890  0.39770  0.42758  Biso   1.000  C
  C132     1.0000 0.19880  0.80110  0.42758  Biso   1.000  C
  C133     1.0000 0.46787  0.93563  0.90575  Biso   1.000  C
  C134     1.0000 0.06437  0.53223  0.90575  Biso   1.000  C
  C135     1.0000 0.46777  0.53213  0.90575  Biso   1.000  C
  C136     1.0000 0.26897  0.13453  0.76091  Biso   1.000  C
  C137     1.0000 0.86557  0.73103  0.76091  Biso   1.000  C
  C138     1.0000 0.86547  0.13443  0.76091  Biso   1.000  C
  C139     1.0000 0.13453  0.26897  0.23909  Biso   1.000  C
  C140     1.0000 0.73103  0.86557  0.23909  Biso   1.000  C
  C141     1.0000 0.13443  0.86547  0.23909  Biso   1.000  C
  C142     1.0000 0.93563  0.46787  0.09425  Biso   1.000  C
  C143     1.0000 0.53223  0.06437  0.09425  Biso   1.000  C
  C144     1.0000 0.53213  0.46777  0.09425  Biso   1.000  C
  C145     1.0000 0.81350  0.62700  0.59962  Biso   1.000  C
  C146     1.0000 0.37300  0.18650  0.59962  Biso   1.000  C
  C147     1.0000 0.81350  0.18650  0.59962  Biso   1.000  C
  C148     1.0000 0.62700  0.81350  0.40038  Biso   1.000  C
  C149     1.0000 0.18650  0.37300  0.40038  Biso   1.000  C
  C150     1.0000 0.18650  0.81350  0.40038  Biso   1.000  C
  C151     1.0000 0.48017  0.96033  0.93295  Biso   1.000  C
  C152     1.0000 0.03967  0.51983  0.93295  Biso   1.000  C
  C153     1.0000 0.48017  0.51983  0.93295  Biso   1.000  C
  C154     1.0000 0.29367  0.14683  0.73371  Biso   1.000  C
  C155     1.0000 0.85317  0.70633  0.73371  Biso   1.000  C
  C156     1.0000 0.85317  0.14683  0.73371  Biso   1.000  C
  C157     1.0000 0.14683  0.29367  0.26629  Biso   1.000  C
  C158     1.0000 0.70633  0.85317  0.26629  Biso   1.000  C
  C159     1.0000 0.14683  0.85317  0.26629  Biso   1.000  C
  C160     1.0000 0.96033  0.48017  0.06705  Biso   1.000  C
  C161     1.0000 0.51983  0.03967  0.06705  Biso   1.000  C
  C162     1.0000 0.51983  0.48017  0.06705  Biso   1.000  C
  C163     1.0000 0.82730  0.65450  0.65323  Biso   1.000  C
  C164     1.0000 0.34550  0.17280  0.65323  Biso   1.000  C
  C165     1.0000 0.82720  0.17270  0.65323  Biso   1.000  C
  C166     1.0000 0.65450  0.82730  0.34677  Biso   1.000  C
  C167     1.0000 0.17280  0.34550  0.34677  Biso   1.000  C
  C168     1.0000 0.17270  0.82720  0.34677  Biso   1.000  C
  C169     1.0000 0.49397  0.98783  0.98656  Biso   1.000  C
  C170     1.0000 0.01217  0.50613  0.98656  Biso   1.000  C
  C171     1.0000 0.49387  0.50603  0.98656  Biso   1.000  C
  C172     1.0000 0.32117  0.16063  0.68010  Biso   1.000  C
  C173     1.0000 0.83947  0.67883  0.68010  Biso   1.000  C
  C174     1.0000 0.83937  0.16053  0.68010  Biso   1.000  C
  C175     1.0000 0.16063  0.32117  0.31990  Biso   1.000  C
  C176     1.0000 0.67883  0.83947  0.31990  Biso   1.000  C
  C177     1.0000 0.16053  0.83937  0.31990  Biso   1.000  C
  C178     1.0000 0.98783  0.49397  0.01344  Biso   1.000  C
  C179     1.0000 0.50613  0.01217  0.01344  Biso   1.000  C
  C180     1.0000 0.50603  0.49387  0.01344  Biso   1.000  C
  O73      1.0000 0.56110  0.43890  0.44564  Biso   1.000  O
  O74      1.0000 0.56110  0.12220  0.44564  Biso   1.000  O
  O75      1.0000 0.87780  0.43890  0.44564  Biso   1.000  O
  O76      1.0000 0.43890  0.56110  0.55436  Biso   1.000  O
  O77      1.0000 0.12220  0.56110  0.55436  Biso   1.000  O
  O78      1.0000 0.43890  0.87780  0.55436  Biso   1.000  O
  O79      1.0000 0.22777  0.77223  0.77897  Biso   1.000  O
  O80      1.0000 0.22777  0.45553  0.77897  Biso   1.000  O
  O81      1.0000 0.54447  0.77223  0.77897  Biso   1.000  O
  O82      1.0000 0.10557  0.89443  0.88769  Biso   1.000  O
  O83      1.0000 0.78887  0.89443  0.88769  Biso   1.000  O
  O84      1.0000 0.10557  0.21113  0.88769  Biso   1.000  O
  O85      1.0000 0.89443  0.10557  0.11231  Biso   1.000  O
  O86      1.0000 0.89443  0.78887  0.11231  Biso   1.000  O
  O87      1.0000 0.21113  0.10557  0.11231  Biso   1.000  O
  O88      1.0000 0.77223  0.22777  0.22103  Biso   1.000  O
  O89      1.0000 0.45553  0.22777  0.22103  Biso   1.000  O
  O90      1.0000 0.77223  0.54447  0.22103  Biso   1.000  O
  C181     1.0000 0.74390  0.58910  0.61598  Biso   1.000  C
  C182     1.0000 0.41090  0.15480  0.61598  Biso   1.000  C
  C183     1.0000 0.84520  0.25610  0.61598  Biso   1.000  C
  C184     1.0000 0.58910  0.74390  0.38402  Biso   1.000  C
  C185     1.0000 0.15480  0.41090  0.38402  Biso   1.000  C
  C186     1.0000 0.25610  0.84520  0.38402  Biso   1.000  C
  C187     1.0000 0.41057  0.92243  0.94931  Biso   1.000  C
  C188     1.0000 0.07757  0.48813  0.94931  Biso   1.000  C
  C189     1.0000 0.51187  0.58943  0.94931  Biso   1.000  C
  C190     1.0000 0.25577  0.07723  0.71735  Biso   1.000  C
  C191     1.0000 0.82147  0.74423  0.71735  Biso   1.000  C
  C192     1.0000 0.92277  0.17853  0.71735  Biso   1.000  C
  C193     1.0000 0.07723  0.25577  0.28265  Biso   1.000  C
  C194     1.0000 0.74423  0.82147  0.28265  Biso   1.000  C
  C195     1.0000 0.17853  0.92277  0.28265  Biso   1.000  C
  C196     1.0000 0.92243  0.41057  0.05069  Biso   1.000  C
  C197     1.0000 0.48813  0.07757  0.05069  Biso   1.000  C
  C198     1.0000 0.58943  0.51187  0.05069  Biso   1.000  C
  C199     1.0000 0.25610  0.41090  0.38402  Biso   1.000  C
  C200     1.0000 0.58910  0.84520  0.38402  Biso   1.000  C
  C201     1.0000 0.15480  0.74390  0.38402  Biso   1.000  C
  C202     1.0000 0.41090  0.25610  0.61598  Biso   1.000  C
  C203     1.0000 0.84520  0.58910  0.61598  Biso   1.000  C
  C204     1.0000 0.74390  0.15480  0.61598  Biso   1.000  C
  C205     1.0000 0.92277  0.74423  0.71735  Biso   1.000  C
  C206     1.0000 0.25577  0.17853  0.71735  Biso   1.000  C
  C207     1.0000 0.82147  0.07723  0.71735  Biso   1.000  C
  C208     1.0000 0.07757  0.58943  0.94931  Biso   1.000  C
  C209     1.0000 0.51187  0.92243  0.94931  Biso   1.000  C
  C210     1.0000 0.41057  0.48813  0.94931  Biso   1.000  C
  C211     1.0000 0.58943  0.07757  0.05069  Biso   1.000  C
  C212     1.0000 0.92243  0.51187  0.05069  Biso   1.000  C
  C213     1.0000 0.48813  0.41057  0.05069  Biso   1.000  C
  C214     1.0000 0.74423  0.92277  0.28265  Biso   1.000  C
  C215     1.0000 0.17853  0.25577  0.28265  Biso   1.000  C
  C216     1.0000 0.07723  0.82147  0.28265  Biso   1.000  C
  H55      1.0000 0.69060  0.55070  0.60890  Biso   1.000  H
  H56      1.0000 0.44930  0.13990  0.60890  Biso   1.000  H
  H57      1.0000 0.86010  0.30940  0.60890  Biso   1.000  H
  H58      1.0000 0.55070  0.69060  0.39110  Biso   1.000  H
  H59      1.0000 0.13990  0.44930  0.39110  Biso   1.000  H
  H60      1.0000 0.30940  0.86010  0.39110  Biso   1.000  H
  H61      1.0000 0.35727  0.88403  0.94223  Biso   1.000  H
  H62      1.0000 0.11597  0.47323  0.94223  Biso   1.000  H
  H63      1.0000 0.52677  0.64273  0.94223  Biso   1.000  H
  H64      1.0000 0.21737  0.02393  0.72443  Biso   1.000  H
  H65      1.0000 0.80657  0.78263  0.72443  Biso   1.000  H
  H66      1.0000 0.97607  0.19343  0.72443  Biso   1.000  H
  H67      1.0000 0.02393  0.21737  0.27557  Biso   1.000  H
  H68      1.0000 0.78263  0.80657  0.27557  Biso   1.000  H
  H69      1.0000 0.19343  0.97607  0.27557  Biso   1.000  H
  H70      1.0000 0.88403  0.35727  0.05777  Biso   1.000  H
  H71      1.0000 0.47323  0.11597  0.05777  Biso   1.000  H
  H72      1.0000 0.64273  0.52677  0.05777  Biso   1.000  H
  H73      1.0000 0.30940  0.44930  0.39110  Biso   1.000  H
  H74      1.0000 0.55070  0.86010  0.39110  Biso   1.000  H
  H75      1.0000 0.13990  0.69060  0.39110  Biso   1.000  H
  H76      1.0000 0.44930  0.30940  0.60890  Biso   1.000  H
  H77      1.0000 0.86010  0.55070  0.60890  Biso   1.000  H
  H78      1.0000 0.69060  0.13990  0.60890  Biso   1.000  H
  H79      1.0000 0.97607  0.78263  0.72443  Biso   1.000  H
  H80      1.0000 0.21737  0.19343  0.72443  Biso   1.000  H
  H81      1.0000 0.80657  0.02393  0.72443  Biso   1.000  H
  H82      1.0000 0.11597  0.64273  0.94223  Biso   1.000  H
  H83      1.0000 0.52677  0.88403  0.94223  Biso   1.000  H
  H84      1.0000 0.35727  0.47323  0.94223  Biso   1.000  H
  H85      1.0000 0.64273  0.11597  0.05777  Biso   1.000  H
  H86      1.0000 0.88403  0.52677  0.05777  Biso   1.000  H
  H87      1.0000 0.47323  0.35727  0.05777  Biso   1.000  H
  H88      1.0000 0.78263  0.97607  0.27557  Biso   1.000  H
  H89      1.0000 0.19343  0.21737  0.27557  Biso   1.000  H
  H90      1.0000 0.02393  0.80657  0.27557  Biso   1.000  H
  C217     1.0000 0.74950  0.60530  0.64210  Biso   1.000  C
  C218     1.0000 0.39470  0.14420  0.64210  Biso   1.000  C
  C219     1.0000 0.85580  0.25050  0.64210  Biso   1.000  C
  C220     1.0000 0.60530  0.74950  0.35790  Biso   1.000  C
  C221     1.0000 0.14420  0.39470  0.35790  Biso   1.000  C
  C222     1.0000 0.25050  0.85580  0.35790  Biso   1.000  C
  C223     1.0000 0.41617  0.93863  0.97543  Biso   1.000  C
  C224     1.0000 0.06137  0.47753  0.97543  Biso   1.000  C
  C225     1.0000 0.52247  0.58383  0.97543  Biso   1.000  C
  C226     1.0000 0.27197  0.08283  0.69123  Biso   1.000  C
  C227     1.0000 0.81087  0.72803  0.69123  Biso   1.000  C
  C228     1.0000 0.91717  0.18913  0.69123  Biso   1.000  C
  C229     1.0000 0.08283  0.27197  0.30877  Biso   1.000  C
  C230     1.0000 0.72803  0.81087  0.30877  Biso   1.000  C
  C231     1.0000 0.18913  0.91717  0.30877  Biso   1.000  C
  C232     1.0000 0.93863  0.41617  0.02457  Biso   1.000  C
  C233     1.0000 0.47753  0.06137  0.02457  Biso   1.000  C
  C234     1.0000 0.58383  0.52247  0.02457  Biso   1.000  C
  C235     1.0000 0.25050  0.39470  0.35790  Biso   1.000  C
  C236     1.0000 0.60530  0.85580  0.35790  Biso   1.000  C
  C237     1.0000 0.14420  0.74950  0.35790  Biso   1.000  C
  C238     1.0000 0.39470  0.25050  0.64210  Biso   1.000  C
  C239     1.0000 0.85580  0.60530  0.64210  Biso   1.000  C
  C240     1.0000 0.74950  0.14420  0.64210  Biso   1.000  C
  C241     1.0000 0.91717  0.72803  0.69123  Biso   1.000  C
  C242     1.0000 0.27197  0.18913  0.69123  Biso   1.000  C
  C243     1.0000 0.81087  0.08283  0.69123  Biso   1.000  C
  C244     1.0000 0.06137  0.58383  0.97543  Biso   1.000  C
  C245     1.0000 0.52247  0.93863  0.97543  Biso   1.000  C
  C246     1.0000 0.41617  0.47753  0.97543  Biso   1.000  C
  C247     1.0000 0.58383  0.06137  0.02457  Biso   1.000  C
  C248     1.0000 0.93863  0.52247  0.02457  Biso   1.000  C
  C249     1.0000 0.47753  0.41617  0.02457  Biso   1.000  C
  C250     1.0000 0.72803  0.91717  0.30877  Biso   1.000  C
  C251     1.0000 0.18913  0.27197  0.30877  Biso   1.000  C
  C252     1.0000 0.08283  0.81087  0.30877  Biso   1.000  C
  H91      1.0000 0.70010  0.58260  0.65230  Biso   1.000  H
  H92      1.0000 0.41740  0.11750  0.65230  Biso   1.000  H
  H93      1.0000 0.88250  0.29990  0.65230  Biso   1.000  H
  H94      1.0000 0.58260  0.70010  0.34770  Biso   1.000  H
  H95      1.0000 0.11750  0.41740  0.34770  Biso   1.000  H
  H96      1.0000 0.29990  0.88250  0.34770  Biso   1.000  H
  H97      1.0000 0.36677  0.91593  0.98563  Biso   1.000  H
  H98      1.0000 0.08407  0.45083  0.98563  Biso   1.000  H
  H99      1.0000 0.54917  0.63323  0.98563  Biso   1.000  H
  H100     1.0000 0.24927  0.03343  0.68103  Biso   1.000  H
  H101     1.0000 0.78417  0.75073  0.68103  Biso   1.000  H
  H102     1.0000 0.96657  0.21583  0.68103  Biso   1.000  H
  H103     1.0000 0.03343  0.24927  0.31897  Biso   1.000  H
  H104     1.0000 0.75073  0.78417  0.31897  Biso   1.000  H
  H105     1.0000 0.21583  0.96657  0.31897  Biso   1.000  H
  H106     1.0000 0.91593  0.36677  0.01437  Biso   1.000  H
  H107     1.0000 0.45083  0.08407  0.01437  Biso   1.000  H
  H108     1.0000 0.63323  0.54917  0.01437  Biso   1.000  H
  H109     1.0000 0.29990  0.41740  0.34770  Biso   1.000  H
  H110     1.0000 0.58260  0.88250  0.34770  Biso   1.000  H
  H111     1.0000 0.11750  0.70010  0.34770  Biso   1.000  H
  H112     1.0000 0.41740  0.29990  0.65230  Biso   1.000  H
  H113     1.0000 0.88250  0.58260  0.65230  Biso   1.000  H
  H114     1.0000 0.70010  0.11750  0.65230  Biso   1.000  H
  H115     1.0000 0.96657  0.75073  0.68103  Biso   1.000  H
  H116     1.0000 0.24927  0.21583  0.68103  Biso   1.000  H
  H117     1.0000 0.78417  0.03343  0.68103  Biso   1.000  H
  H118     1.0000 0.08407  0.63323  0.98563  Biso   1.000  H
  H119     1.0000 0.54917  0.91593  0.98563  Biso   1.000  H
  H120     1.0000 0.36677  0.45083  0.98563  Biso   1.000  H
  H121     1.0000 0.63323  0.08407  0.01437  Biso   1.000  H
  H122     1.0000 0.91593  0.54917  0.01437  Biso   1.000  H
  H123     1.0000 0.45083  0.36677  0.01437  Biso   1.000  H
  H124     1.0000 0.75073  0.96657  0.31897  Biso   1.000  H
  H125     1.0000 0.21583  0.24927  0.31897  Biso   1.000  H
  H126     1.0000 0.03343  0.78417  0.31897  Biso   1.000  H
  C253     1.0000 0.78770  0.67240  0.61170  Biso   1.000  C
  C254     1.0000 0.32760  0.11530  0.61170  Biso   1.000  C
  C255     1.0000 0.88470  0.21230  0.61170  Biso   1.000  C
  C256     1.0000 0.67240  0.78770  0.38830  Biso   1.000  C
  C257     1.0000 0.11530  0.32760  0.38830  Biso   1.000  C
  C258     1.0000 0.21230  0.88470  0.38830  Biso   1.000  C
  C259     1.0000 0.45437  0.00573  0.94503  Biso   1.000  C
  C260     1.0000 0.99427  0.44863  0.94503  Biso   1.000  C
  C261     1.0000 0.55137  0.54563  0.94503  Biso   1.000  C
  C262     1.0000 0.33907  0.12103  0.72163  Biso   1.000  C
  C263     1.0000 0.78197  0.66093  0.72163  Biso   1.000  C
  C264     1.0000 0.87897  0.21803  0.72163  Biso   1.000  C
  C265     1.0000 0.12103  0.33907  0.27837  Biso   1.000  C
  C266     1.0000 0.66093  0.78197  0.27837  Biso   1.000  C
  C267     1.0000 0.21803  0.87897  0.27837  Biso   1.000  C
  C268     1.0000 0.00573  0.45437  0.05497  Biso   1.000  C
  C269     1.0000 0.44863  0.99427  0.05497  Biso   1.000  C
  C270     1.0000 0.54563  0.55137  0.05497  Biso   1.000  C
  C271     1.0000 0.21230  0.32760  0.38830  Biso   1.000  C
  C272     1.0000 0.67240  0.88470  0.38830  Biso   1.000  C
  C273     1.0000 0.11530  0.78770  0.38830  Biso   1.000  C
  C274     1.0000 0.32760  0.21230  0.61170  Biso   1.000  C
  C275     1.0000 0.88470  0.67240  0.61170  Biso   1.000  C
  C276     1.0000 0.78770  0.11530  0.61170  Biso   1.000  C
  C277     1.0000 0.87897  0.66093  0.72163  Biso   1.000  C
  C278     1.0000 0.33907  0.21803  0.72163  Biso   1.000  C
  C279     1.0000 0.78197  0.12103  0.72163  Biso   1.000  C
  C280     1.0000 0.99427  0.54563  0.94503  Biso   1.000  C
  C281     1.0000 0.55137  0.00573  0.94503  Biso   1.000  C
  C282     1.0000 0.45437  0.44863  0.94503  Biso   1.000  C
  C283     1.0000 0.54563  0.99427  0.05497  Biso   1.000  C
  C284     1.0000 0.00573  0.55137  0.05497  Biso   1.000  C
  C285     1.0000 0.44863  0.45437  0.05497  Biso   1.000  C
  C286     1.0000 0.66093  0.87897  0.27837  Biso   1.000  C
  C287     1.0000 0.21803  0.33907  0.27837  Biso   1.000  C
  C288     1.0000 0.12103  0.78197  0.27837  Biso   1.000  C
  H127     1.0000 0.75840  0.69290  0.60180  Biso   1.000  H
  H128     1.0000 0.30710  0.06550  0.60180  Biso   1.000  H
  H129     1.0000 0.93450  0.24160  0.60180  Biso   1.000  H
  H130     1.0000 0.69290  0.75840  0.39820  Biso   1.000  H
  H131     1.0000 0.06550  0.30710  0.39820  Biso   1.000  H
  H132     1.0000 0.24160  0.93450  0.39820  Biso   1.000  H
  H133     1.0000 0.42507  0.02623  0.93513  Biso   1.000  H
  H134     1.0000 0.97377  0.39883  0.93513  Biso   1.000  H
  H135     1.0000 0.60117  0.57493  0.93513  Biso   1.000  H
  H136     1.0000 0.35957  0.09173  0.73153  Biso   1.000  H
  H137     1.0000 0.73217  0.64043  0.73153  Biso   1.000  H
  H138     1.0000 0.90827  0.26783  0.73153  Biso   1.000  H
  H139     1.0000 0.09173  0.35957  0.26847  Biso   1.000  H
  H140     1.0000 0.64043  0.73217  0.26847  Biso   1.000  H
  H141     1.0000 0.26783  0.90827  0.26847  Biso   1.000  H
  H142     1.0000 0.02623  0.42507  0.06487  Biso   1.000  H
  H143     1.0000 0.39883  0.97377  0.06487  Biso   1.000  H
  H144     1.0000 0.57493  0.60117  0.06487  Biso   1.000  H
  H145     1.0000 0.24160  0.30710  0.39820  Biso   1.000  H
  H146     1.0000 0.69290  0.93450  0.39820  Biso   1.000  H
  H147     1.0000 0.06550  0.75840  0.39820  Biso   1.000  H
  H148     1.0000 0.30710  0.24160  0.60180  Biso   1.000  H
  H149     1.0000 0.93450  0.69290  0.60180  Biso   1.000  H
  H150     1.0000 0.75840  0.06550  0.60180  Biso   1.000  H
  H151     1.0000 0.90827  0.64043  0.73153  Biso   1.000  H
  H152     1.0000 0.35957  0.26783  0.73153  Biso   1.000  H
  H153     1.0000 0.73217  0.09173  0.73153  Biso   1.000  H
  H154     1.0000 0.97377  0.57493  0.93513  Biso   1.000  H
  H155     1.0000 0.60117  0.02623  0.93513  Biso   1.000  H
  H156     1.0000 0.42507  0.39883  0.93513  Biso   1.000  H
  H157     1.0000 0.57493  0.97377  0.06487  Biso   1.000  H
  H158     1.0000 0.02623  0.60117  0.06487  Biso   1.000  H
  H159     1.0000 0.39883  0.42507  0.06487  Biso   1.000  H
  H160     1.0000 0.64043  0.90827  0.26847  Biso   1.000  H
  H161     1.0000 0.26783  0.35957  0.26847  Biso   1.000  H
  H162     1.0000 0.09173  0.73217  0.26847  Biso   1.000  H
  C289     1.0000 0.79860  0.69400  0.63780  Biso   1.000  C
  C290     1.0000 0.30600  0.10460  0.63780  Biso   1.000  C
  C291     1.0000 0.89540  0.20140  0.63780  Biso   1.000  C
  C292     1.0000 0.69400  0.79860  0.36220  Biso   1.000  C
  C293     1.0000 0.10460  0.30600  0.36220  Biso   1.000  C
  C294     1.0000 0.20140  0.89540  0.36220  Biso   1.000  C
  C295     1.0000 0.46527  0.02733  0.97113  Biso   1.000  C
  C296     1.0000 0.97267  0.43793  0.97113  Biso   1.000  C
  C297     1.0000 0.56207  0.53473  0.97113  Biso   1.000  C
  C298     1.0000 0.36067  0.13193  0.69553  Biso   1.000  C
  C299     1.0000 0.77127  0.63933  0.69553  Biso   1.000  C
  C300     1.0000 0.86807  0.22873  0.69553  Biso   1.000  C
  C301     1.0000 0.13193  0.36067  0.30447  Biso   1.000  C
  C302     1.0000 0.63933  0.77127  0.30447  Biso   1.000  C
  C303     1.0000 0.22873  0.86807  0.30447  Biso   1.000  C
  C304     1.0000 0.02733  0.46527  0.02887  Biso   1.000  C
  C305     1.0000 0.43793  0.97267  0.02887  Biso   1.000  C
  C306     1.0000 0.53473  0.56207  0.02887  Biso   1.000  C
  C307     1.0000 0.20140  0.30600  0.36220  Biso   1.000  C
  C308     1.0000 0.69400  0.89540  0.36220  Biso   1.000  C
  C309     1.0000 0.10460  0.79860  0.36220  Biso   1.000  C
  C310     1.0000 0.30600  0.20140  0.63780  Biso   1.000  C
  C311     1.0000 0.89540  0.69400  0.63780  Biso   1.000  C
  C312     1.0000 0.79860  0.10460  0.63780  Biso   1.000  C
  C313     1.0000 0.86807  0.63933  0.69553  Biso   1.000  C
  C314     1.0000 0.36067  0.22873  0.69553  Biso   1.000  C
  C315     1.0000 0.77127  0.13193  0.69553  Biso   1.000  C
  C316     1.0000 0.97267  0.53473  0.97113  Biso   1.000  C
  C317     1.0000 0.56207  0.02733  0.97113  Biso   1.000  C
  C318     1.0000 0.46527  0.43793  0.97113  Biso   1.000  C
  C319     1.0000 0.53473  0.97267  0.02887  Biso   1.000  C
  C320     1.0000 0.02733  0.56207  0.02887  Biso   1.000  C
  C321     1.0000 0.43793  0.46527  0.02887  Biso   1.000  C
  C322     1.0000 0.63933  0.86807  0.30447  Biso   1.000  C
  C323     1.0000 0.22873  0.36067  0.30447  Biso   1.000  C
  C324     1.0000 0.13193  0.77127  0.30447  Biso   1.000  C
  H163     1.0000 0.78640  0.73490  0.64430  Biso   1.000  H
  H164     1.0000 0.26510  0.05150  0.64430  Biso   1.000  H
  H165     1.0000 0.94850  0.21360  0.64430  Biso   1.000  H
  H166     1.0000 0.73490  0.78640  0.35570  Biso   1.000  H
  H167     1.0000 0.05150  0.26510  0.35570  Biso   1.000  H
  H168     1.0000 0.21360  0.94850  0.35570  Biso   1.000  H
  H169     1.0000 0.45307  0.06823  0.97763  Biso   1.000  H
  H170     1.0000 0.93177  0.38483  0.97763  Biso   1.000  H
  H171     1.0000 0.61517  0.54693  0.97763  Biso   1.000  H
  H172     1.0000 0.40157  0.11973  0.68903  Biso   1.000  H
  H173     1.0000 0.71817  0.59843  0.68903  Biso   1.000  H
  H174     1.0000 0.88027  0.28183  0.68903  Biso   1.000  H
  H175     1.0000 0.11973  0.40157  0.31097  Biso   1.000  H
  H176     1.0000 0.59843  0.71817  0.31097  Biso   1.000  H
  H177     1.0000 0.28183  0.88027  0.31097  Biso   1.000  H
  H178     1.0000 0.06823  0.45307  0.02237  Biso   1.000  H
  H179     1.0000 0.38483  0.93177  0.02237  Biso   1.000  H
  H180     1.0000 0.54693  0.61517  0.02237  Biso   1.000  H
  H181     1.0000 0.21360  0.26510  0.35570  Biso   1.000  H
  H182     1.0000 0.73490  0.94850  0.35570  Biso   1.000  H
  H183     1.0000 0.05150  0.78640  0.35570  Biso   1.000  H
  H184     1.0000 0.26510  0.21360  0.64430  Biso   1.000  H
  H185     1.0000 0.94850  0.73490  0.64430  Biso   1.000  H
  H186     1.0000 0.78640  0.05150  0.64430  Biso   1.000  H
  H187     1.0000 0.88027  0.59843  0.68903  Biso   1.000  H
  H188     1.0000 0.40157  0.28183  0.68903  Biso   1.000  H
  H189     1.0000 0.71817  0.11973  0.68903  Biso   1.000  H
  H190     1.0000 0.93177  0.54693  0.97763  Biso   1.000  H
  H191     1.0000 0.61517  0.06823  0.97763  Biso   1.000  H
  H192     1.0000 0.45307  0.38483  0.97763  Biso   1.000  H
  H193     1.0000 0.54693  0.93177  0.02237  Biso   1.000  H
  H194     1.0000 0.06823  0.61517  0.02237  Biso   1.000  H
  H195     1.0000 0.38483  0.45307  0.02237  Biso   1.000  H
  H196     1.0000 0.59843  0.88027  0.31097  Biso   1.000  H
  H197     1.0000 0.28183  0.40157  0.31097  Biso   1.000  H
  H198     1.0000 0.11973  0.71817  0.31097  Biso   1.000  H
  N1       1.0000 0.77480  0.76890  0.64400  Biso   1.000  N
  N2       1.0000 0.23110  0.00590  0.64400  Biso   1.000  N
  N3       1.0000 0.99410  0.22520  0.64400  Biso   1.000  N
  N4       1.0000 0.76890  0.77480  0.35600  Biso   1.000  N
  N5       1.0000 0.00590  0.23110  0.35600  Biso   1.000  N
  N6       1.0000 0.22520  0.99410  0.35600  Biso   1.000  N
  N7       1.0000 0.44147  0.10223  0.97733  Biso   1.000  N
  N8       1.0000 0.89777  0.33923  0.97733  Biso   1.000  N
  N9       1.0000 0.66077  0.55853  0.97733  Biso   1.000  N
  N10      1.0000 0.43557  0.10813  0.68933  Biso   1.000  N
  N11      1.0000 0.67257  0.56443  0.68933  Biso   1.000  N
  N12      1.0000 0.89187  0.32743  0.68933  Biso   1.000  N
  N13      1.0000 0.10813  0.43557  0.31067  Biso   1.000  N
  N14      1.0000 0.56443  0.67257  0.31067  Biso   1.000  N
  N15      1.0000 0.32743  0.89187  0.31067  Biso   1.000  N
  N16      1.0000 0.10223  0.44147  0.02267  Biso   1.000  N
  N17      1.0000 0.33923  0.89777  0.02267  Biso   1.000  N
  N18      1.0000 0.55853  0.66077  0.02267  Biso   1.000  N
  N19      1.0000 0.22520  0.23110  0.35600  Biso   1.000  N
  N20      1.0000 0.76890  0.99410  0.35600  Biso   1.000  N
  N21      1.0000 0.00590  0.77480  0.35600  Biso   1.000  N
  N22      1.0000 0.23110  0.22520  0.64400  Biso   1.000  N
  N23      1.0000 0.99410  0.76890  0.64400  Biso   1.000  N
  N24      1.0000 0.77480  0.00590  0.64400  Biso   1.000  N
  N25      1.0000 0.89187  0.56443  0.68933  Biso   1.000  N
  N26      1.0000 0.43557  0.32743  0.68933  Biso   1.000  N
  N27      1.0000 0.67257  0.10813  0.68933  Biso   1.000  N
  N28      1.0000 0.89777  0.55853  0.97733  Biso   1.000  N
  N29      1.0000 0.66077  0.10223  0.97733  Biso   1.000  N
  N30      1.0000 0.44147  0.33923  0.97733  Biso   1.000  N
  N31      1.0000 0.55853  0.89777  0.02267  Biso   1.000  N
  N32      1.0000 0.10223  0.66077  0.02267  Biso   1.000  N
  N33      1.0000 0.33923  0.44147  0.02267  Biso   1.000  N
  N34      1.0000 0.56443  0.89187  0.31067  Biso   1.000  N
  N35      1.0000 0.32743  0.43557  0.31067  Biso   1.000  N
  N36      1.0000 0.10813  0.67257  0.31067  Biso   1.000  N
  O91      1.0000 0.74400  0.79400  0.62790  Biso   1.000  O
  O92      1.0000 0.20600  0.95000  0.62790  Biso   1.000  O
  O93      1.0000 0.05000  0.25600  0.62790  Biso   1.000  O
  O94      1.0000 0.79400  0.74400  0.37210  Biso   1.000  O
  O95      1.0000 0.95000  0.20600  0.37210  Biso   1.000  O
  O96      1.0000 0.25600  0.05000  0.37210  Biso   1.000  O
  O97      1.0000 0.41067  0.12733  0.96123  Biso   1.000  O
  O98      1.0000 0.87267  0.28333  0.96123  Biso   1.000  O
  O99      1.0000 0.71667  0.58933  0.96123  Biso   1.000  O
  O100     1.0000 0.46067  0.07733  0.70543  Biso   1.000  O
  O101     1.0000 0.61667  0.53933  0.70543  Biso   1.000  O
  O102     1.0000 0.92267  0.38333  0.70543  Biso   1.000  O
  O103     1.0000 0.07733  0.46067  0.29457  Biso   1.000  O
  O104     1.0000 0.53933  0.61667  0.29457  Biso   1.000  O
  O105     1.0000 0.38333  0.92267  0.29457  Biso   1.000  O
  O106     1.0000 0.12733  0.41067  0.03877  Biso   1.000  O
  O107     1.0000 0.28333  0.87267  0.03877  Biso   1.000  O
  O108     1.0000 0.58933  0.71667  0.03877  Biso   1.000  O
  O109     1.0000 0.25600  0.20600  0.37210  Biso   1.000  O
  O110     1.0000 0.79400  0.05000  0.37210  Biso   1.000  O
  O111     1.0000 0.95000  0.74400  0.37210  Biso   1.000  O
  O112     1.0000 0.20600  0.25600  0.62790  Biso   1.000  O
  O113     1.0000 0.05000  0.79400  0.62790  Biso   1.000  O
  O114     1.0000 0.74400  0.95000  0.62790  Biso   1.000  O
  O115     1.0000 0.92267  0.53933  0.70543  Biso   1.000  O
  O116     1.0000 0.46067  0.38333  0.70543  Biso   1.000  O
  O117     1.0000 0.61667  0.07733  0.70543  Biso   1.000  O
  O118     1.0000 0.87267  0.58933  0.96123  Biso   1.000  O
  O119     1.0000 0.71667  0.12733  0.96123  Biso   1.000  O
  O120     1.0000 0.41067  0.28333  0.96123  Biso   1.000  O
  O121     1.0000 0.58933  0.87267  0.03877  Biso   1.000  O
  O122     1.0000 0.12733  0.71667  0.03877  Biso   1.000  O
  O123     1.0000 0.28333  0.41067  0.03877  Biso   1.000  O
  O124     1.0000 0.53933  0.92267  0.29457  Biso   1.000  O
  O125     1.0000 0.38333  0.46067  0.29457  Biso   1.000  O
  O126     1.0000 0.07733  0.61667  0.29457  Biso   1.000  O
  O127     1.0000 0.78800  0.80400  0.66470  Biso   1.000  O
  O128     1.0000 0.19600  0.98400  0.66470  Biso   1.000  O
  O129     1.0000 0.01600  0.21200  0.66470  Biso   1.000  O
  O130     1.0000 0.80400  0.78800  0.33530  Biso   1.000  O
  O131     1.0000 0.98400  0.19600  0.33530  Biso   1.000  O
  O132     1.0000 0.21200  0.01600  0.33530  Biso   1.000  O
  O133     1.0000 0.45467  0.13733  0.99803  Biso   1.000  O
  O134     1.0000 0.86267  0.31733  0.99803  Biso   1.000  O
  O135     1.0000 0.68267  0.54533  0.99803  Biso   1.000  O
  O136     1.0000 0.47067  0.12133  0.66863  Biso   1.000  O
  O137     1.0000 0.65067  0.52933  0.66863  Biso   1.000  O
  O138     1.0000 0.87867  0.34933  0.66863  Biso   1.000  O
  O139     1.0000 0.12133  0.47067  0.33137  Biso   1.000  O
  O140     1.0000 0.52933  0.65067  0.33137  Biso   1.000  O
  O141     1.0000 0.34933  0.87867  0.33137  Biso   1.000  O
  O142     1.0000 0.13733  0.45467  0.00197  Biso   1.000  O
  O143     1.0000 0.31733  0.86267  0.00197  Biso   1.000  O
  O144     1.0000 0.54533  0.68267  0.00197  Biso   1.000  O
  O145     1.0000 0.21200  0.19600  0.33530  Biso   1.000  O
  O146     1.0000 0.80400  0.01600  0.33530  Biso   1.000  O
  O147     1.0000 0.98400  0.78800  0.33530  Biso   1.000  O
  O148     1.0000 0.19600  0.21200  0.66470  Biso   1.000  O
  O149     1.0000 0.01600  0.80400  0.66470  Biso   1.000  O
  O150     1.0000 0.78800  0.98400  0.66470  Biso   1.000  O
  O151     1.0000 0.87867  0.52933  0.66863  Biso   1.000  O
  O152     1.0000 0.47067  0.34933  0.66863  Biso   1.000  O
  O153     1.0000 0.65067  0.12133  0.66863  Biso   1.000  O
  O154     1.0000 0.86267  0.54533  0.99803  Biso   1.000  O
  O155     1.0000 0.68267  0.13733  0.99803  Biso   1.000  O
  O156     1.0000 0.45467  0.31733  0.99803  Biso   1.000  O
  O157     1.0000 0.54533  0.86267  0.00197  Biso   1.000  O
  O158     1.0000 0.13733  0.68267  0.00197  Biso   1.000  O
  O159     1.0000 0.31733  0.45467  0.00197  Biso   1.000  O
  O160     1.0000 0.52933  0.87867  0.33137  Biso   1.000  O
  O161     1.0000 0.34933  0.47067  0.33137  Biso   1.000  O
  O162     1.0000 0.12133  0.65067  0.33137  Biso   1.000  O
  N37      1.0000 0.66290  0.58500  0.65050  Biso   1.000  N
  N38      1.0000 0.41500  0.07790  0.65050  Biso   1.000  N
  N39      1.0000 0.92210  0.33710  0.65050  Biso   1.000  N
  N40      1.0000 0.58500  0.66290  0.34950  Biso   1.000  N
  N41      1.0000 0.07790  0.41500  0.34950  Biso   1.000  N
  N42      1.0000 0.33710  0.92210  0.34950  Biso   1.000  N
  N43      1.0000 0.32957  0.91833  0.98383  Biso   1.000  N
  N44      1.0000 0.08167  0.41123  0.98383  Biso   1.000  N
  N45      1.0000 0.58877  0.67043  0.98383  Biso   1.000  N
  N46      1.0000 0.25167  0.99623  0.68283  Biso   1.000  N
  N47      1.0000 0.74457  0.74833  0.68283  Biso   1.000  N
  N48      1.0000 0.00377  0.25543  0.68283  Biso   1.000  N
  N49      1.0000 0.99623  0.25167  0.31717  Biso   1.000  N
  N50      1.0000 0.74833  0.74457  0.31717  Biso   1.000  N
  N51      1.0000 0.25543  0.00377  0.31717  Biso   1.000  N
  N52      1.0000 0.91833  0.32957  0.01617  Biso   1.000  N
  N53      1.0000 0.41123  0.08167  0.01617  Biso   1.000  N
  N54      1.0000 0.67043  0.58877  0.01617  Biso   1.000  N
  N55      1.0000 0.33710  0.41500  0.34950  Biso   1.000  N
  N56      1.0000 0.58500  0.92210  0.34950  Biso   1.000  N
  N57      1.0000 0.07790  0.66290  0.34950  Biso   1.000  N
  N58      1.0000 0.41500  0.33710  0.65050  Biso   1.000  N
  N59      1.0000 0.92210  0.58500  0.65050  Biso   1.000  N
  N60      1.0000 0.66290  0.07790  0.65050  Biso   1.000  N
  N61      1.0000 0.00377  0.74833  0.68283  Biso   1.000  N
  N62      1.0000 0.25167  0.25543  0.68283  Biso   1.000  N
  N63      1.0000 0.74457  0.99623  0.68283  Biso   1.000  N
  N64      1.0000 0.08167  0.67043  0.98383  Biso   1.000  N
  N65      1.0000 0.58877  0.91833  0.98383  Biso   1.000  N
  N66      1.0000 0.32957  0.41123  0.98383  Biso   1.000  N
  N67      1.0000 0.67043  0.08167  0.01617  Biso   1.000  N
  N68      1.0000 0.91833  0.58877  0.01617  Biso   1.000  N
  N69      1.0000 0.41123  0.32957  0.01617  Biso   1.000  N
  N70      1.0000 0.74833  0.00377  0.31717  Biso   1.000  N
  N71      1.0000 0.25543  0.25167  0.31717  Biso   1.000  N
  N72      1.0000 0.99623  0.74457  0.31717  Biso   1.000  N
  O163     1.0000 0.59970  0.56700  0.63560  Biso   1.000  O
  O164     1.0000 0.43300  0.03270  0.63560  Biso   1.000  O
  O165     1.0000 0.96730  0.40030  0.63560  Biso   1.000  O
  O166     1.0000 0.56700  0.59970  0.36440  Biso   1.000  O
  O167     1.0000 0.03270  0.43300  0.36440  Biso   1.000  O
  O168     1.0000 0.40030  0.96730  0.36440  Biso   1.000  O
  O169     1.0000 0.26637  0.90033  0.96893  Biso   1.000  O
  O170     1.0000 0.09967  0.36603  0.96893  Biso   1.000  O
  O171     1.0000 0.63397  0.73363  0.96893  Biso   1.000  O
  O172     1.0000 0.23367  0.93303  0.69773  Biso   1.000  O
  O173     1.0000 0.69937  0.76633  0.69773  Biso   1.000  O
  O174     1.0000 0.06697  0.30063  0.69773  Biso   1.000  O
  O175     1.0000 0.93303  0.23367  0.30227  Biso   1.000  O
  O176     1.0000 0.76633  0.69937  0.30227  Biso   1.000  O
  O177     1.0000 0.30063  0.06697  0.30227  Biso   1.000  O
  O178     1.0000 0.90033  0.26637  0.03107  Biso   1.000  O
  O179     1.0000 0.36603  0.09967  0.03107  Biso   1.000  O
  O180     1.0000 0.73363  0.63397  0.03107  Biso   1.000  O
  O181     1.0000 0.40030  0.43300  0.36440  Biso   1.000  O
  O182     1.0000 0.56700  0.96730  0.36440  Biso   1.000  O
  O183     1.0000 0.03270  0.59970  0.36440  Biso   1.000  O
  O184     1.0000 0.43300  0.40030  0.63560  Biso   1.000  O
  O185     1.0000 0.96730  0.56700  0.63560  Biso   1.000  O
  O186     1.0000 0.59970  0.03270  0.63560  Biso   1.000  O
  O187     1.0000 0.06697  0.76633  0.69773  Biso   1.000  O
  O188     1.0000 0.23367  0.30063  0.69773  Biso   1.000  O
  O189     1.0000 0.69937  0.93303  0.69773  Biso   1.000  O
  O190     1.0000 0.09967  0.73363  0.96893  Biso   1.000  O
  O191     1.0000 0.63397  0.90033  0.96893  Biso   1.000  O
  O192     1.0000 0.26637  0.36603  0.96893  Biso   1.000  O
  O193     1.0000 0.73363  0.09967  0.03107  Biso   1.000  O
  O194     1.0000 0.90033  0.63397  0.03107  Biso   1.000  O
  O195     1.0000 0.36603  0.26637  0.03107  Biso   1.000  O
  O196     1.0000 0.76633  0.06697  0.30227  Biso   1.000  O
  O197     1.0000 0.30063  0.23367  0.30227  Biso   1.000  O
  O198     1.0000 0.93303  0.69937  0.30227  Biso   1.000  O
  O199     1.0000 0.63900  0.58200  0.67400  Biso   1.000  O
  O200     1.0000 0.41800  0.05700  0.67400  Biso   1.000  O
  O201     1.0000 0.94300  0.36100  0.67400  Biso   1.000  O
  O202     1.0000 0.58200  0.63900  0.32600  Biso   1.000  O
  O203     1.0000 0.05700  0.41800  0.32600  Biso   1.000  O
  O204     1.0000 0.36100  0.94300  0.32600  Biso   1.000  O
  O205     1.0000 0.30567  0.91533  0.00733  Biso   1.000  O
  O206     1.0000 0.08467  0.39033  0.00733  Biso   1.000  O
  O207     1.0000 0.60967  0.69433  0.00733  Biso   1.000  O
  O208     1.0000 0.24867  0.97233  0.65933  Biso   1.000  O
  O209     1.0000 0.72367  0.75133  0.65933  Biso   1.000  O
  O210     1.0000 0.02767  0.27633  0.65933  Biso   1.000  O
  O211     1.0000 0.97233  0.24867  0.34067  Biso   1.000  O
  O212     1.0000 0.75133  0.72367  0.34067  Biso   1.000  O
  O213     1.0000 0.27633  0.02767  0.34067  Biso   1.000  O
  O214     1.0000 0.91533  0.30567  0.99267  Biso   1.000  O
  O215     1.0000 0.39033  0.08467  0.99267  Biso   1.000  O
  O216     1.0000 0.69433  0.60967  0.99267  Biso   1.000  O
  O217     1.0000 0.36100  0.41800  0.32600  Biso   1.000  O
  O218     1.0000 0.58200  0.94300  0.32600  Biso   1.000  O
  O219     1.0000 0.05700  0.63900  0.32600  Biso   1.000  O
  O220     1.0000 0.41800  0.36100  0.67400  Biso   1.000  O
  O221     1.0000 0.94300  0.58200  0.67400  Biso   1.000  O
  O222     1.0000 0.63900  0.05700  0.67400  Biso   1.000  O
  O223     1.0000 0.02767  0.75133  0.65933  Biso   1.000  O
  O224     1.0000 0.24867  0.27633  0.65933  Biso   1.000  O
  O225     1.0000 0.72367  0.97233  0.65933  Biso   1.000  O
  O226     1.0000 0.08467  0.69433  0.00733  Biso   1.000  O
  O227     1.0000 0.60967  0.91533  0.00733  Biso   1.000  O
  O228     1.0000 0.30567  0.39033  0.00733  Biso   1.000  O
  O229     1.0000 0.69433  0.08467  0.99267  Biso   1.000  O
  O230     1.0000 0.91533  0.60967  0.99267  Biso   1.000  O
  O231     1.0000 0.39033  0.30567  0.99267  Biso   1.000  O
  O232     1.0000 0.75133  0.02767  0.34067  Biso   1.000  O
  O233     1.0000 0.27633  0.24867  0.34067  Biso   1.000  O
  O234     1.0000 0.97233  0.72367  0.34067  Biso   1.000  O
