data_image0
_cell_length_a       18.3453
_cell_length_b       18.3453
_cell_length_c       52.3638
_cell_angle_alpha    90
_cell_angle_beta     90
_cell_angle_gamma    120

_symmetry_space_group_name_H-M    "P 1"
_symmetry_int_tables_number       1

loop_
  _symmetry_equiv_pos_as_xyz
  'x, y, z'

loop_
  _atom_site_label
  _atom_site_occupancy
  _atom_site_fract_x
  _atom_site_fract_y
  _atom_site_fract_z
  _atom_site_thermal_displace_type
  _atom_site_B_iso_or_equiv
  _atom_site_type_symbol
  Cu1      1.0000 0.52486  0.47514  0.47959  Biso   1.000  Cu
  Cu2      1.0000 0.52486  0.04972  0.47959  Biso   1.000  Cu
  Cu3      1.0000 0.95028  0.47514  0.47959  Biso   1.000  Cu
  Cu4      1.0000 0.04972  0.52486  0.52041  Biso   1.000  Cu
  Cu5      1.0000 0.47514  0.95028  0.52041  Biso   1.000  Cu
  Cu6      1.0000 0.47514  0.52486  0.52041  Biso   1.000  Cu
  Cu7      1.0000 0.19153  0.80847  0.81292  Biso   1.000  Cu
  Cu8      1.0000 0.19153  0.38305  0.81292  Biso   1.000  Cu
  Cu9      1.0000 0.61695  0.80847  0.81292  Biso   1.000  Cu
  Cu10     1.0000 0.71639  0.85819  0.85374  Biso   1.000  Cu
  Cu11     1.0000 0.14181  0.28361  0.85374  Biso   1.000  Cu
  Cu12     1.0000 0.14181  0.85819  0.85374  Biso   1.000  Cu
  Cu13     1.0000 0.85819  0.14181  0.14626  Biso   1.000  Cu
  Cu14     1.0000 0.85819  0.71639  0.14626  Biso   1.000  Cu
  Cu15     1.0000 0.28361  0.14181  0.14626  Biso   1.000  Cu
  Cu16     1.0000 0.38305  0.19153  0.18708  Biso   1.000  Cu
  Cu17     1.0000 0.80847  0.61695  0.18708  Biso   1.000  Cu
  Cu18     1.0000 0.80847  0.19153  0.18708  Biso   1.000  Cu
  O1       1.0000 0.56420  0.43580  0.44669  Biso   1.000  O
  O2       1.0000 0.56420  0.12840  0.44669  Biso   1.000  O
  O3       1.0000 0.87160  0.43580  0.44669  Biso   1.000  O
  O4       1.0000 0.12840  0.56420  0.55331  Biso   1.000  O
  O5       1.0000 0.43580  0.87160  0.55331  Biso   1.000  O
  O6       1.0000 0.43580  0.56420  0.55331  Biso   1.000  O
  O7       1.0000 0.23087  0.76913  0.78002  Biso   1.000  O
  O8       1.0000 0.23087  0.46173  0.78002  Biso   1.000  O
  O9       1.0000 0.53827  0.76913  0.78002  Biso   1.000  O
  O10      1.0000 0.79507  0.89753  0.88664  Biso   1.000  O
  O11      1.0000 0.10247  0.20493  0.88664  Biso   1.000  O
  O12      1.0000 0.10247  0.89753  0.88664  Biso   1.000  O
  O13      1.0000 0.89753  0.10247  0.11336  Biso   1.000  O
  O14      1.0000 0.89753  0.79507  0.11336  Biso   1.000  O
  O15      1.0000 0.20493  0.10247  0.11336  Biso   1.000  O
  O16      1.0000 0.46173  0.23087  0.21998  Biso   1.000  O
  O17      1.0000 0.76913  0.53827  0.21998  Biso   1.000  O
  O18      1.0000 0.76913  0.23087  0.21998  Biso   1.000  O
  C1       1.0000 0.19570  0.39140  0.42739  Biso   1.000  C
  C2       1.0000 0.60860  0.80430  0.42739  Biso   1.000  C
  C3       1.0000 0.19570  0.80430  0.42739  Biso   1.000  C
  C4       1.0000 0.80430  0.60860  0.57261  Biso   1.000  C
  C5       1.0000 0.80430  0.19570  0.57261  Biso   1.000  C
  C6       1.0000 0.39140  0.19570  0.57261  Biso   1.000  C
  C7       1.0000 0.86237  0.72473  0.76072  Biso   1.000  C
  C8       1.0000 0.27527  0.13763  0.76072  Biso   1.000  C
  C9       1.0000 0.86237  0.13763  0.76072  Biso   1.000  C
  C10      1.0000 0.47097  0.94193  0.90594  Biso   1.000  C
  C11      1.0000 0.47097  0.52903  0.90594  Biso   1.000  C
  C12      1.0000 0.05807  0.52903  0.90594  Biso   1.000  C
  C13      1.0000 0.52903  0.05807  0.09406  Biso   1.000  C
  C14      1.0000 0.94193  0.47097  0.09406  Biso   1.000  C
  C15      1.0000 0.52903  0.47097  0.09406  Biso   1.000  C
  C16      1.0000 0.13763  0.27527  0.23928  Biso   1.000  C
  C17      1.0000 0.13763  0.86237  0.23928  Biso   1.000  C
  C18      1.0000 0.72473  0.86237  0.23928  Biso   1.000  C
  C19      1.0000 0.26670  0.40310  0.44066  Biso   1.000  C
  C20      1.0000 0.59690  0.86360  0.44066  Biso   1.000  C
  C21      1.0000 0.13640  0.73330  0.44066  Biso   1.000  C
  C22      1.0000 0.86360  0.59690  0.55934  Biso   1.000  C
  C23      1.0000 0.73330  0.13640  0.55934  Biso   1.000  C
  C24      1.0000 0.40310  0.26670  0.55934  Biso   1.000  C
  C25      1.0000 0.93337  0.73643  0.77399  Biso   1.000  C
  C26      1.0000 0.26357  0.19693  0.77399  Biso   1.000  C
  C27      1.0000 0.80307  0.06663  0.77399  Biso   1.000  C
  C28      1.0000 0.53027  0.93023  0.89267  Biso   1.000  C
  C29      1.0000 0.39997  0.46973  0.89267  Biso   1.000  C
  C30      1.0000 0.06977  0.60003  0.89267  Biso   1.000  C
  C31      1.0000 0.60003  0.06977  0.10733  Biso   1.000  C
  C32      1.0000 0.93023  0.53027  0.10733  Biso   1.000  C
  C33      1.0000 0.46973  0.39997  0.10733  Biso   1.000  C
  C34      1.0000 0.19693  0.26357  0.22601  Biso   1.000  C
  C35      1.0000 0.06663  0.80307  0.22601  Biso   1.000  C
  C36      1.0000 0.73643  0.93337  0.22601  Biso   1.000  C
  C37      1.0000 0.73330  0.59690  0.55934  Biso   1.000  C
  C38      1.0000 0.40310  0.13640  0.55934  Biso   1.000  C
  C39      1.0000 0.86360  0.26670  0.55934  Biso   1.000  C
  C40      1.0000 0.13640  0.40310  0.44066  Biso   1.000  C
  C41      1.0000 0.26670  0.86360  0.44066  Biso   1.000  C
  C42      1.0000 0.59690  0.73330  0.44066  Biso   1.000  C
  C43      1.0000 0.39997  0.93023  0.89267  Biso   1.000  C
  C44      1.0000 0.06977  0.46973  0.89267  Biso   1.000  C
  C45      1.0000 0.53027  0.60003  0.89267  Biso   1.000  C
  C46      1.0000 0.80307  0.73643  0.77399  Biso   1.000  C
  C47      1.0000 0.93337  0.19693  0.77399  Biso   1.000  C
  C48      1.0000 0.26357  0.06663  0.77399  Biso   1.000  C
  C49      1.0000 0.06663  0.26357  0.22601  Biso   1.000  C
  C50      1.0000 0.73643  0.80307  0.22601  Biso   1.000  C
  C51      1.0000 0.19693  0.93337  0.22601  Biso   1.000  C
  C52      1.0000 0.46973  0.06977  0.10733  Biso   1.000  C
  C53      1.0000 0.60003  0.53027  0.10733  Biso   1.000  C
  C54      1.0000 0.93023  0.39997  0.10733  Biso   1.000  C
  H1       1.0000 0.30640  0.39250  0.43230  Biso   1.000  H
  H2       1.0000 0.60750  0.91390  0.43230  Biso   1.000  H
  H3       1.0000 0.08610  0.69360  0.43230  Biso   1.000  H
  H4       1.0000 0.91390  0.60750  0.56770  Biso   1.000  H
  H5       1.0000 0.69360  0.08610  0.56770  Biso   1.000  H
  H6       1.0000 0.39250  0.30640  0.56770  Biso   1.000  H
  H7       1.0000 0.97307  0.72583  0.76563  Biso   1.000  H
  H8       1.0000 0.27417  0.24723  0.76563  Biso   1.000  H
  H9       1.0000 0.75277  0.02693  0.76563  Biso   1.000  H
  H10      1.0000 0.58057  0.94083  0.90103  Biso   1.000  H
  H11      1.0000 0.36027  0.41943  0.90103  Biso   1.000  H
  H12      1.0000 0.05917  0.63973  0.90103  Biso   1.000  H
  H13      1.0000 0.63973  0.05917  0.09897  Biso   1.000  H
  H14      1.0000 0.94083  0.58057  0.09897  Biso   1.000  H
  H15      1.0000 0.41943  0.36027  0.09897  Biso   1.000  H
  H16      1.0000 0.24723  0.27417  0.23437  Biso   1.000  H
  H17      1.0000 0.02693  0.75277  0.23437  Biso   1.000  H
  H18      1.0000 0.72583  0.97307  0.23437  Biso   1.000  H
  H19      1.0000 0.69360  0.60750  0.56770  Biso   1.000  H
  H20      1.0000 0.39250  0.08610  0.56770  Biso   1.000  H
  H21      1.0000 0.91390  0.30640  0.56770  Biso   1.000  H
  H22      1.0000 0.08610  0.39250  0.43230  Biso   1.000  H
  H23      1.0000 0.30640  0.91390  0.43230  Biso   1.000  H
  H24      1.0000 0.60750  0.69360  0.43230  Biso   1.000  H
  H25      1.0000 0.36027  0.94083  0.90103  Biso   1.000  H
  H26      1.0000 0.05917  0.41943  0.90103  Biso   1.000  H
  H27      1.0000 0.58057  0.63973  0.90103  Biso   1.000  H
  H28      1.0000 0.75277  0.72583  0.76563  Biso   1.000  H
  H29      1.0000 0.97307  0.24723  0.76563  Biso   1.000  H
  H30      1.0000 0.27417  0.02693  0.76563  Biso   1.000  H
  H31      1.0000 0.02693  0.27417  0.23437  Biso   1.000  H
  H32      1.0000 0.72583  0.75277  0.23437  Biso   1.000  H
  H33      1.0000 0.24723  0.97307  0.23437  Biso   1.000  H
  H34      1.0000 0.41943  0.05917  0.09897  Biso   1.000  H
  H35      1.0000 0.63973  0.58057  0.09897  Biso   1.000  H
  H36      1.0000 0.94083  0.36027  0.09897  Biso   1.000  H
  C55      1.0000 0.28060  0.43010  0.46599  Biso   1.000  C
  C56      1.0000 0.56990  0.85050  0.46599  Biso   1.000  C
  C57      1.0000 0.14950  0.71940  0.46599  Biso   1.000  C
  C58      1.0000 0.85050  0.56990  0.53401  Biso   1.000  C
  C59      1.0000 0.71940  0.14950  0.53401  Biso   1.000  C
  C60      1.0000 0.43010  0.28060  0.53401  Biso   1.000  C
  C61      1.0000 0.94727  0.76343  0.79932  Biso   1.000  C
  C62      1.0000 0.23657  0.18383  0.79932  Biso   1.000  C
  C63      1.0000 0.81617  0.05273  0.79932  Biso   1.000  C
  C64      1.0000 0.51717  0.90323  0.86734  Biso   1.000  C
  C65      1.0000 0.38607  0.48283  0.86734  Biso   1.000  C
  C66      1.0000 0.09677  0.61393  0.86734  Biso   1.000  C
  C67      1.0000 0.61393  0.09677  0.13266  Biso   1.000  C
  C68      1.0000 0.90323  0.51717  0.13266  Biso   1.000  C
  C69      1.0000 0.48283  0.38607  0.13266  Biso   1.000  C
  C70      1.0000 0.18383  0.23657  0.20068  Biso   1.000  C
  C71      1.0000 0.05273  0.81617  0.20068  Biso   1.000  C
  C72      1.0000 0.76343  0.94727  0.20068  Biso   1.000  C
  C73      1.0000 0.71940  0.56990  0.53401  Biso   1.000  C
  C74      1.0000 0.43010  0.14950  0.53401  Biso   1.000  C
  C75      1.0000 0.85050  0.28060  0.53401  Biso   1.000  C
  C76      1.0000 0.14950  0.43010  0.46599  Biso   1.000  C
  C77      1.0000 0.28060  0.85050  0.46599  Biso   1.000  C
  C78      1.0000 0.56990  0.71940  0.46599  Biso   1.000  C
  C79      1.0000 0.38607  0.90323  0.86734  Biso   1.000  C
  C80      1.0000 0.09677  0.48283  0.86734  Biso   1.000  C
  C81      1.0000 0.51717  0.61393  0.86734  Biso   1.000  C
  C82      1.0000 0.81617  0.76343  0.79932  Biso   1.000  C
  C83      1.0000 0.94727  0.18383  0.79932  Biso   1.000  C
  C84      1.0000 0.23657  0.05273  0.79932  Biso   1.000  C
  C85      1.0000 0.05273  0.23657  0.20068  Biso   1.000  C
  C86      1.0000 0.76343  0.81617  0.20068  Biso   1.000  C
  C87      1.0000 0.18383  0.94727  0.20068  Biso   1.000  C
  C88      1.0000 0.48283  0.09677  0.13266  Biso   1.000  C
  C89      1.0000 0.61393  0.51717  0.13266  Biso   1.000  C
  C90      1.0000 0.90323  0.38607  0.13266  Biso   1.000  C
  C91      1.0000 0.22112  0.44220  0.47870  Biso   1.000  C
  C92      1.0000 0.55780  0.77892  0.47870  Biso   1.000  C
  C93      1.0000 0.22108  0.77888  0.47870  Biso   1.000  C
  C94      1.0000 0.77892  0.55780  0.52130  Biso   1.000  C
  C95      1.0000 0.77888  0.22108  0.52130  Biso   1.000  C
  C96      1.0000 0.44220  0.22112  0.52130  Biso   1.000  C
  C97      1.0000 0.88779  0.77553  0.81203  Biso   1.000  C
  C98      1.0000 0.22447  0.11225  0.81203  Biso   1.000  C
  C99      1.0000 0.88775  0.11221  0.81203  Biso   1.000  C
  C100     1.0000 0.44559  0.89113  0.85463  Biso   1.000  C
  C101     1.0000 0.44555  0.55441  0.85463  Biso   1.000  C
  C102     1.0000 0.10887  0.55445  0.85463  Biso   1.000  C
  C103     1.0000 0.55445  0.10887  0.14537  Biso   1.000  C
  C104     1.0000 0.89113  0.44559  0.14537  Biso   1.000  C
  C105     1.0000 0.55441  0.44555  0.14537  Biso   1.000  C
  C106     1.0000 0.11225  0.22447  0.18797  Biso   1.000  C
  C107     1.0000 0.11221  0.88775  0.18797  Biso   1.000  C
  C108     1.0000 0.77553  0.88779  0.18797  Biso   1.000  C
  H37      1.0000 0.22950  0.45890  0.49610  Biso   1.000  H
  H38      1.0000 0.54110  0.77060  0.49610  Biso   1.000  H
  H39      1.0000 0.22940  0.77050  0.49610  Biso   1.000  H
  H40      1.0000 0.77060  0.54110  0.50390  Biso   1.000  H
  H41      1.0000 0.77050  0.22940  0.50390  Biso   1.000  H
  H42      1.0000 0.45890  0.22950  0.50390  Biso   1.000  H
  H43      1.0000 0.89617  0.79223  0.82943  Biso   1.000  H
  H44      1.0000 0.20777  0.10393  0.82943  Biso   1.000  H
  H45      1.0000 0.89607  0.10383  0.82943  Biso   1.000  H
  H46      1.0000 0.43727  0.87443  0.83723  Biso   1.000  H
  H47      1.0000 0.43717  0.56273  0.83723  Biso   1.000  H
  H48      1.0000 0.12557  0.56283  0.83723  Biso   1.000  H
  H49      1.0000 0.56283  0.12557  0.16277  Biso   1.000  H
  H50      1.0000 0.87443  0.43727  0.16277  Biso   1.000  H
  H51      1.0000 0.56273  0.43717  0.16277  Biso   1.000  H
  H52      1.0000 0.10393  0.20777  0.17057  Biso   1.000  H
  H53      1.0000 0.10383  0.89607  0.17057  Biso   1.000  H
  H54      1.0000 0.79223  0.89617  0.17057  Biso   1.000  H
  C109     1.0000 0.18520  0.37030  0.39964  Biso   1.000  C
  C110     1.0000 0.62970  0.81490  0.39964  Biso   1.000  C
  C111     1.0000 0.18510  0.81480  0.39964  Biso   1.000  C
  C112     1.0000 0.81490  0.62970  0.60036  Biso   1.000  C
  C113     1.0000 0.81480  0.18510  0.60036  Biso   1.000  C
  C114     1.0000 0.37030  0.18520  0.60036  Biso   1.000  C
  C115     1.0000 0.85187  0.70363  0.73297  Biso   1.000  C
  C116     1.0000 0.29637  0.14823  0.73297  Biso   1.000  C
  C117     1.0000 0.85177  0.14813  0.73297  Biso   1.000  C
  C118     1.0000 0.48157  0.96303  0.93369  Biso   1.000  C
  C119     1.0000 0.48147  0.51843  0.93369  Biso   1.000  C
  C120     1.0000 0.03697  0.51853  0.93369  Biso   1.000  C
  C121     1.0000 0.51853  0.03697  0.06631  Biso   1.000  C
  C122     1.0000 0.96303  0.48157  0.06631  Biso   1.000  C
  C123     1.0000 0.51843  0.48147  0.06631  Biso   1.000  C
  C124     1.0000 0.14823  0.29637  0.26703  Biso   1.000  C
  C125     1.0000 0.14813  0.85177  0.26703  Biso   1.000  C
  C126     1.0000 0.70363  0.85187  0.26703  Biso   1.000  C
  C127     1.0000 0.11020  0.30660  0.38959  Biso   1.000  C
  C128     1.0000 0.69340  0.80360  0.38959  Biso   1.000  C
  C129     1.0000 0.19640  0.88980  0.38959  Biso   1.000  C
  C130     1.0000 0.80360  0.69340  0.61041  Biso   1.000  C
  C131     1.0000 0.88980  0.19640  0.61041  Biso   1.000  C
  C132     1.0000 0.30660  0.11020  0.61041  Biso   1.000  C
  C133     1.0000 0.77687  0.63993  0.72292  Biso   1.000  C
  C134     1.0000 0.36007  0.13693  0.72292  Biso   1.000  C
  C135     1.0000 0.86307  0.22313  0.72292  Biso   1.000  C
  C136     1.0000 0.47027  0.02673  0.94374  Biso   1.000  C
  C137     1.0000 0.55647  0.52973  0.94374  Biso   1.000  C
  C138     1.0000 0.97327  0.44353  0.94374  Biso   1.000  C
  C139     1.0000 0.44353  0.97327  0.05626  Biso   1.000  C
  C140     1.0000 0.02673  0.47027  0.05626  Biso   1.000  C
  C141     1.0000 0.52973  0.55647  0.05626  Biso   1.000  C
  C142     1.0000 0.13693  0.36007  0.27708  Biso   1.000  C
  C143     1.0000 0.22313  0.86307  0.27708  Biso   1.000  C
  C144     1.0000 0.63993  0.77687  0.27708  Biso   1.000  C
  C145     1.0000 0.88980  0.69340  0.61041  Biso   1.000  C
  C146     1.0000 0.30660  0.19640  0.61041  Biso   1.000  C
  C147     1.0000 0.80360  0.11020  0.61041  Biso   1.000  C
  C148     1.0000 0.19640  0.30660  0.38959  Biso   1.000  C
  C149     1.0000 0.11020  0.80360  0.38959  Biso   1.000  C
  C150     1.0000 0.69340  0.88980  0.38959  Biso   1.000  C
  C151     1.0000 0.55647  0.02673  0.94374  Biso   1.000  C
  C152     1.0000 0.97327  0.52973  0.94374  Biso   1.000  C
  C153     1.0000 0.47027  0.44353  0.94374  Biso   1.000  C
  C154     1.0000 0.86307  0.63993  0.72292  Biso   1.000  C
  C155     1.0000 0.77687  0.13693  0.72292  Biso   1.000  C
  C156     1.0000 0.36007  0.22313  0.72292  Biso   1.000  C
  C157     1.0000 0.22313  0.36007  0.27708  Biso   1.000  C
  C158     1.0000 0.63993  0.86307  0.27708  Biso   1.000  C
  C159     1.0000 0.13693  0.77687  0.27708  Biso   1.000  C
  C160     1.0000 0.52973  0.97327  0.05626  Biso   1.000  C
  C161     1.0000 0.44353  0.47027  0.05626  Biso   1.000  C
  C162     1.0000 0.02673  0.55647  0.05626  Biso   1.000  C
  H55      1.0000 0.06300  0.27560  0.40040  Biso   1.000  H
  H56      1.0000 0.72440  0.78740  0.40040  Biso   1.000  H
  H57      1.0000 0.21260  0.93700  0.40040  Biso   1.000  H
  H58      1.0000 0.78740  0.72440  0.59960  Biso   1.000  H
  H59      1.0000 0.93700  0.21260  0.59960  Biso   1.000  H
  H60      1.0000 0.27560  0.06300  0.59960  Biso   1.000  H
  H61      1.0000 0.72967  0.60893  0.73373  Biso   1.000  H
  H62      1.0000 0.39107  0.12073  0.73373  Biso   1.000  H
  H63      1.0000 0.87927  0.27033  0.73373  Biso   1.000  H
  H64      1.0000 0.45407  0.05773  0.93293  Biso   1.000  H
  H65      1.0000 0.60367  0.54593  0.93293  Biso   1.000  H
  H66      1.0000 0.94227  0.39633  0.93293  Biso   1.000  H
  H67      1.0000 0.39633  0.94227  0.06707  Biso   1.000  H
  H68      1.0000 0.05773  0.45407  0.06707  Biso   1.000  H
  H69      1.0000 0.54593  0.60367  0.06707  Biso   1.000  H
  H70      1.0000 0.12073  0.39107  0.26627  Biso   1.000  H
  H71      1.0000 0.27033  0.87927  0.26627  Biso   1.000  H
  H72      1.0000 0.60893  0.72967  0.26627  Biso   1.000  H
  H73      1.0000 0.93700  0.72440  0.59960  Biso   1.000  H
  H74      1.0000 0.27560  0.21260  0.59960  Biso   1.000  H
  H75      1.0000 0.78740  0.06300  0.59960  Biso   1.000  H
  H76      1.0000 0.21260  0.27560  0.40040  Biso   1.000  H
  H77      1.0000 0.06300  0.78740  0.40040  Biso   1.000  H
  H78      1.0000 0.72440  0.93700  0.40040  Biso   1.000  H
  H79      1.0000 0.60367  0.05773  0.93293  Biso   1.000  H
  H80      1.0000 0.94227  0.54593  0.93293  Biso   1.000  H
  H81      1.0000 0.45407  0.39633  0.93293  Biso   1.000  H
  H82      1.0000 0.87927  0.60893  0.73373  Biso   1.000  H
  H83      1.0000 0.72967  0.12073  0.73373  Biso   1.000  H
  H84      1.0000 0.39107  0.27033  0.73373  Biso   1.000  H
  H85      1.0000 0.27033  0.39107  0.26627  Biso   1.000  H
  H86      1.0000 0.60893  0.87927  0.26627  Biso   1.000  H
  H87      1.0000 0.12073  0.72967  0.26627  Biso   1.000  H
  H88      1.0000 0.54593  0.94227  0.06707  Biso   1.000  H
  H89      1.0000 0.39633  0.45407  0.06707  Biso   1.000  H
  H90      1.0000 0.05773  0.60367  0.06707  Biso   1.000  H
  C163     1.0000 0.10420  0.28820  0.36366  Biso   1.000  C
  C164     1.0000 0.71180  0.81600  0.36366  Biso   1.000  C
  C165     1.0000 0.18400  0.89580  0.36366  Biso   1.000  C
  C166     1.0000 0.81600  0.71180  0.63634  Biso   1.000  C
  C167     1.0000 0.89580  0.18400  0.63634  Biso   1.000  C
  C168     1.0000 0.28820  0.10420  0.63634  Biso   1.000  C
  C169     1.0000 0.77087  0.62153  0.69699  Biso   1.000  C
  C170     1.0000 0.37847  0.14933  0.69699  Biso   1.000  C
  C171     1.0000 0.85067  0.22913  0.69699  Biso   1.000  C
  C172     1.0000 0.48267  0.04513  0.96967  Biso   1.000  C
  C173     1.0000 0.56247  0.51733  0.96967  Biso   1.000  C
  C174     1.0000 0.95487  0.43753  0.96967  Biso   1.000  C
  C175     1.0000 0.43753  0.95487  0.03033  Biso   1.000  C
  C176     1.0000 0.04513  0.48267  0.03033  Biso   1.000  C
  C177     1.0000 0.51733  0.56247  0.03033  Biso   1.000  C
  C178     1.0000 0.14933  0.37847  0.30301  Biso   1.000  C
  C179     1.0000 0.22913  0.85067  0.30301  Biso   1.000  C
  C180     1.0000 0.62153  0.77087  0.30301  Biso   1.000  C
  C181     1.0000 0.89580  0.71180  0.63634  Biso   1.000  C
  C182     1.0000 0.28820  0.18400  0.63634  Biso   1.000  C
  C183     1.0000 0.81600  0.10420  0.63634  Biso   1.000  C
  C184     1.0000 0.18400  0.28820  0.36366  Biso   1.000  C
  C185     1.0000 0.10420  0.81600  0.36366  Biso   1.000  C
  C186     1.0000 0.71180  0.89580  0.36366  Biso   1.000  C
  C187     1.0000 0.56247  0.04513  0.96967  Biso   1.000  C
  C188     1.0000 0.95487  0.51733  0.96967  Biso   1.000  C
  C189     1.0000 0.48267  0.43753  0.96967  Biso   1.000  C
  C190     1.0000 0.85067  0.62153  0.69699  Biso   1.000  C
  C191     1.0000 0.77087  0.14933  0.69699  Biso   1.000  C
  C192     1.0000 0.37847  0.22913  0.69699  Biso   1.000  C
  C193     1.0000 0.22913  0.37847  0.30301  Biso   1.000  C
  C194     1.0000 0.62153  0.85067  0.30301  Biso   1.000  C
  C195     1.0000 0.14933  0.77087  0.30301  Biso   1.000  C
  C196     1.0000 0.51733  0.95487  0.03033  Biso   1.000  C
  C197     1.0000 0.43753  0.48267  0.03033  Biso   1.000  C
  C198     1.0000 0.04513  0.56247  0.03033  Biso   1.000  C
  H91      1.0000 0.05560  0.24100  0.35680  Biso   1.000  H
  H92      1.0000 0.75900  0.81460  0.35680  Biso   1.000  H
  H93      1.0000 0.18540  0.94440  0.35680  Biso   1.000  H
  H94      1.0000 0.81460  0.75900  0.64320  Biso   1.000  H
  H95      1.0000 0.94440  0.18540  0.64320  Biso   1.000  H
  H96      1.0000 0.24100  0.05560  0.64320  Biso   1.000  H
  H97      1.0000 0.72227  0.57433  0.69013  Biso   1.000  H
  H98      1.0000 0.42567  0.14793  0.69013  Biso   1.000  H
  H99      1.0000 0.85207  0.27773  0.69013  Biso   1.000  H
  H100     1.0000 0.48127  0.09233  0.97653  Biso   1.000  H
  H101     1.0000 0.61107  0.51873  0.97653  Biso   1.000  H
  H102     1.0000 0.90767  0.38893  0.97653  Biso   1.000  H
  H103     1.0000 0.38893  0.90767  0.02347  Biso   1.000  H
  H104     1.0000 0.09233  0.48127  0.02347  Biso   1.000  H
  H105     1.0000 0.51873  0.61107  0.02347  Biso   1.000  H
  H106     1.0000 0.14793  0.42567  0.30987  Biso   1.000  H
  H107     1.0000 0.27773  0.85207  0.30987  Biso   1.000  H
  H108     1.0000 0.57433  0.72227  0.30987  Biso   1.000  H
  H109     1.0000 0.94440  0.75900  0.64320  Biso   1.000  H
  H110     1.0000 0.24100  0.18540  0.64320  Biso   1.000  H
  H111     1.0000 0.81460  0.05560  0.64320  Biso   1.000  H
  H112     1.0000 0.18540  0.24100  0.35680  Biso   1.000  H
  H113     1.0000 0.05560  0.81460  0.35680  Biso   1.000  H
  H114     1.0000 0.75900  0.94440  0.35680  Biso   1.000  H
  H115     1.0000 0.61107  0.09233  0.97653  Biso   1.000  H
  H116     1.0000 0.90767  0.51873  0.97653  Biso   1.000  H
  H117     1.0000 0.48127  0.38893  0.97653  Biso   1.000  H
  H118     1.0000 0.85207  0.57433  0.69013  Biso   1.000  H
  H119     1.0000 0.72227  0.14793  0.69013  Biso   1.000  H
  H120     1.0000 0.42567  0.27773  0.69013  Biso   1.000  H
  H121     1.0000 0.27773  0.42567  0.30987  Biso   1.000  H
  H122     1.0000 0.57433  0.85207  0.30987  Biso   1.000  H
  H123     1.0000 0.14793  0.72227  0.30987  Biso   1.000  H
  H124     1.0000 0.51873  0.90767  0.02347  Biso   1.000  H
  H125     1.0000 0.38893  0.48127  0.02347  Biso   1.000  H
  H126     1.0000 0.09233  0.61107  0.02347  Biso   1.000  H
  C199     1.0000 0.17300  0.34190  0.34770  Biso   1.000  C
  C200     1.0000 0.65810  0.83110  0.34770  Biso   1.000  C
  C201     1.0000 0.16890  0.82700  0.34770  Biso   1.000  C
  C202     1.0000 0.83110  0.65810  0.65230  Biso   1.000  C
  C203     1.0000 0.82700  0.16890  0.65230  Biso   1.000  C
  C204     1.0000 0.34190  0.17300  0.65230  Biso   1.000  C
  C205     1.0000 0.83967  0.67523  0.68103  Biso   1.000  C
  C206     1.0000 0.32477  0.16443  0.68103  Biso   1.000  C
  C207     1.0000 0.83557  0.16033  0.68103  Biso   1.000  C
  C208     1.0000 0.49777  0.99143  0.98563  Biso   1.000  C
  C209     1.0000 0.49367  0.50223  0.98563  Biso   1.000  C
  C210     1.0000 0.00857  0.50633  0.98563  Biso   1.000  C
  C211     1.0000 0.50633  0.00857  0.01437  Biso   1.000  C
  C212     1.0000 0.99143  0.49777  0.01437  Biso   1.000  C
  C213     1.0000 0.50223  0.49367  0.01437  Biso   1.000  C
  C214     1.0000 0.16443  0.32477  0.31897  Biso   1.000  C
  C215     1.0000 0.16033  0.83557  0.31897  Biso   1.000  C
  C216     1.0000 0.67523  0.83967  0.31897  Biso   1.000  C
  C217     1.0000 0.82700  0.65810  0.65230  Biso   1.000  C
  C218     1.0000 0.34190  0.16890  0.65230  Biso   1.000  C
  C219     1.0000 0.83110  0.17300  0.65230  Biso   1.000  C
  C220     1.0000 0.16890  0.34190  0.34770  Biso   1.000  C
  C221     1.0000 0.17300  0.83110  0.34770  Biso   1.000  C
  C222     1.0000 0.65810  0.82700  0.34770  Biso   1.000  C
  C223     1.0000 0.49367  0.99143  0.98563  Biso   1.000  C
  C224     1.0000 0.00857  0.50223  0.98563  Biso   1.000  C
  C225     1.0000 0.49777  0.50633  0.98563  Biso   1.000  C
  C226     1.0000 0.83557  0.67523  0.68103  Biso   1.000  C
  C227     1.0000 0.83967  0.16443  0.68103  Biso   1.000  C
  C228     1.0000 0.32477  0.16033  0.68103  Biso   1.000  C
  C229     1.0000 0.16033  0.32477  0.31897  Biso   1.000  C
  C230     1.0000 0.67523  0.83557  0.31897  Biso   1.000  C
  C231     1.0000 0.16443  0.83967  0.31897  Biso   1.000  C
  C232     1.0000 0.50223  0.00857  0.01437  Biso   1.000  C
  C233     1.0000 0.50633  0.49777  0.01437  Biso   1.000  C
  C234     1.0000 0.99143  0.49367  0.01437  Biso   1.000  C
  C235     1.0000 0.36070  0.45140  0.47888  Biso   1.000  C
  C236     1.0000 0.54860  0.90930  0.47888  Biso   1.000  C
  C237     1.0000 0.09070  0.63930  0.47888  Biso   1.000  C
  C238     1.0000 0.90930  0.54860  0.52112  Biso   1.000  C
  C239     1.0000 0.63930  0.09070  0.52112  Biso   1.000  C
  C240     1.0000 0.45140  0.36070  0.52112  Biso   1.000  C
  C241     1.0000 0.02737  0.78473  0.81221  Biso   1.000  C
  C242     1.0000 0.21527  0.24263  0.81221  Biso   1.000  C
  C243     1.0000 0.75737  0.97263  0.81221  Biso   1.000  C
  C244     1.0000 0.57597  0.88193  0.85445  Biso   1.000  C
  C245     1.0000 0.30597  0.42403  0.85445  Biso   1.000  C
  C246     1.0000 0.11807  0.69403  0.85445  Biso   1.000  C
  C247     1.0000 0.69403  0.11807  0.14555  Biso   1.000  C
  C248     1.0000 0.88193  0.57597  0.14555  Biso   1.000  C
  C249     1.0000 0.42403  0.30597  0.14555  Biso   1.000  C
  C250     1.0000 0.24263  0.21527  0.18779  Biso   1.000  C
  C251     1.0000 0.97263  0.75737  0.18779  Biso   1.000  C
  C252     1.0000 0.78473  0.02737  0.18779  Biso   1.000  C
  C253     1.0000 0.63930  0.54860  0.52112  Biso   1.000  C
  C254     1.0000 0.45140  0.09070  0.52112  Biso   1.000  C
  C255     1.0000 0.90930  0.36070  0.52112  Biso   1.000  C
  C256     1.0000 0.09070  0.45140  0.47888  Biso   1.000  C
  C257     1.0000 0.36070  0.90930  0.47888  Biso   1.000  C
  C258     1.0000 0.54860  0.63930  0.47888  Biso   1.000  C
  C259     1.0000 0.30597  0.88193  0.85445  Biso   1.000  C
  C260     1.0000 0.11807  0.42403  0.85445  Biso   1.000  C
  C261     1.0000 0.57597  0.69403  0.85445  Biso   1.000  C
  C262     1.0000 0.75737  0.78473  0.81221  Biso   1.000  C
  C263     1.0000 0.02737  0.24263  0.81221  Biso   1.000  C
  C264     1.0000 0.21527  0.97263  0.81221  Biso   1.000  C
  C265     1.0000 0.97263  0.21527  0.18779  Biso   1.000  C
  C266     1.0000 0.78473  0.75737  0.18779  Biso   1.000  C
  C267     1.0000 0.24263  0.02737  0.18779  Biso   1.000  C
  C268     1.0000 0.42403  0.11807  0.14555  Biso   1.000  C
  C269     1.0000 0.69403  0.57597  0.14555  Biso   1.000  C
  C270     1.0000 0.88193  0.30597  0.14555  Biso   1.000  C
  O19      1.0000 0.41256  0.43930  0.46643  Biso   1.000  O
  O20      1.0000 0.56070  0.97326  0.46643  Biso   1.000  O
  O21      1.0000 0.02674  0.58744  0.46643  Biso   1.000  O
  O22      1.0000 0.97326  0.56070  0.53357  Biso   1.000  O
  O23      1.0000 0.58744  0.02674  0.53357  Biso   1.000  O
  O24      1.0000 0.43930  0.41256  0.53357  Biso   1.000  O
  O25      1.0000 0.07923  0.77263  0.79976  Biso   1.000  O
  O26      1.0000 0.22737  0.30659  0.79976  Biso   1.000  O
  O27      1.0000 0.69341  0.92077  0.79976  Biso   1.000  O
  O28      1.0000 0.63993  0.89403  0.86690  Biso   1.000  O
  O29      1.0000 0.25411  0.36007  0.86690  Biso   1.000  O
  O30      1.0000 0.10597  0.74589  0.86690  Biso   1.000  O
  O31      1.0000 0.74589  0.10597  0.13310  Biso   1.000  O
  O32      1.0000 0.89403  0.63993  0.13310  Biso   1.000  O
  O33      1.0000 0.36007  0.25411  0.13310  Biso   1.000  O
  O34      1.0000 0.30659  0.22737  0.20024  Biso   1.000  O
  O35      1.0000 0.92077  0.69341  0.20024  Biso   1.000  O
  O36      1.0000 0.77263  0.07923  0.20024  Biso   1.000  O
  O37      1.0000 0.58744  0.56070  0.53357  Biso   1.000  O
  O38      1.0000 0.43930  0.02674  0.53357  Biso   1.000  O
  O39      1.0000 0.97326  0.41256  0.53357  Biso   1.000  O
  O40      1.0000 0.02674  0.43930  0.46643  Biso   1.000  O
  O41      1.0000 0.41256  0.97326  0.46643  Biso   1.000  O
  O42      1.0000 0.56070  0.58744  0.46643  Biso   1.000  O
  O43      1.0000 0.25411  0.89403  0.86690  Biso   1.000  O
  O44      1.0000 0.10597  0.36007  0.86690  Biso   1.000  O
  O45      1.0000 0.63993  0.74589  0.86690  Biso   1.000  O
  O46      1.0000 0.69341  0.77263  0.79976  Biso   1.000  O
  O47      1.0000 0.07923  0.30659  0.79976  Biso   1.000  O
  O48      1.0000 0.22737  0.92077  0.79976  Biso   1.000  O
  O49      1.0000 0.92077  0.22737  0.20024  Biso   1.000  O
  O50      1.0000 0.77263  0.69341  0.20024  Biso   1.000  O
  O51      1.0000 0.30659  0.07923  0.20024  Biso   1.000  O
  O52      1.0000 0.36007  0.10597  0.13310  Biso   1.000  O
  O53      1.0000 0.74589  0.63993  0.13310  Biso   1.000  O
  O54      1.0000 0.89403  0.25411  0.13310  Biso   1.000  O
  O55      1.0000 0.37082  0.48069  0.50119  Biso   1.000  O
  O56      1.0000 0.51931  0.89013  0.50119  Biso   1.000  O
  O57      1.0000 0.10987  0.62918  0.50119  Biso   1.000  O
  O58      1.0000 0.89013  0.51931  0.49881  Biso   1.000  O
  O59      1.0000 0.62918  0.10987  0.49881  Biso   1.000  O
  O60      1.0000 0.48069  0.37082  0.49881  Biso   1.000  O
  O61      1.0000 0.03749  0.81402  0.83452  Biso   1.000  O
  O62      1.0000 0.18598  0.22346  0.83452  Biso   1.000  O
  O63      1.0000 0.77654  0.96251  0.83452  Biso   1.000  O
  O64      1.0000 0.55680  0.85264  0.83214  Biso   1.000  O
  O65      1.0000 0.29585  0.44320  0.83214  Biso   1.000  O
  O66      1.0000 0.14736  0.70415  0.83214  Biso   1.000  O
  O67      1.0000 0.70415  0.14736  0.16786  Biso   1.000  O
  O68      1.0000 0.85264  0.55680  0.16786  Biso   1.000  O
  O69      1.0000 0.44320  0.29585  0.16786  Biso   1.000  O
  O70      1.0000 0.22346  0.18598  0.16548  Biso   1.000  O
  O71      1.0000 0.96251  0.77654  0.16548  Biso   1.000  O
  O72      1.0000 0.81402  0.03749  0.16548  Biso   1.000  O
  O73      1.0000 0.62918  0.51931  0.49881  Biso   1.000  O
  O74      1.0000 0.48069  0.10987  0.49881  Biso   1.000  O
  O75      1.0000 0.89013  0.37082  0.49881  Biso   1.000  O
  O76      1.0000 0.10987  0.48069  0.50119  Biso   1.000  O
  O77      1.0000 0.37082  0.89013  0.50119  Biso   1.000  O
  O78      1.0000 0.51931  0.62918  0.50119  Biso   1.000  O
  O79      1.0000 0.29585  0.85264  0.83214  Biso   1.000  O
  O80      1.0000 0.14736  0.44320  0.83214  Biso   1.000  O
  O81      1.0000 0.55680  0.70415  0.83214  Biso   1.000  O
  O82      1.0000 0.77654  0.81402  0.83452  Biso   1.000  O
  O83      1.0000 0.03749  0.22346  0.83452  Biso   1.000  O
  O84      1.0000 0.18598  0.96251  0.83452  Biso   1.000  O
  O85      1.0000 0.96251  0.18598  0.16548  Biso   1.000  O
  O86      1.0000 0.81402  0.77654  0.16548  Biso   1.000  O
  O87      1.0000 0.22346  0.03749  0.16548  Biso   1.000  O
  O88      1.0000 0.44320  0.14736  0.16786  Biso   1.000  O
  O89      1.0000 0.70415  0.55680  0.16786  Biso   1.000  O
  O90      1.0000 0.85264  0.29585  0.16786  Biso   1.000  O
  C271     1.0000 0.24820  0.39770  0.35786  Biso   1.000  C
  C272     1.0000 0.60230  0.85050  0.35786  Biso   1.000  C
  C273     1.0000 0.14950  0.75180  0.35786  Biso   1.000  C
  C274     1.0000 0.85050  0.60230  0.64214  Biso   1.000  C
  C275     1.0000 0.75180  0.14950  0.64214  Biso   1.000  C
  C276     1.0000 0.39770  0.24820  0.64214  Biso   1.000  C
  C277     1.0000 0.91487  0.73103  0.69119  Biso   1.000  C
  C278     1.0000 0.26897  0.18383  0.69119  Biso   1.000  C
  C279     1.0000 0.81617  0.08513  0.69119  Biso   1.000  C
  C280     1.0000 0.51717  0.93563  0.97547  Biso   1.000  C
  C281     1.0000 0.41847  0.48283  0.97547  Biso   1.000  C
  C282     1.0000 0.06437  0.58153  0.97547  Biso   1.000  C
  C283     1.0000 0.58153  0.06437  0.02453  Biso   1.000  C
  C284     1.0000 0.93563  0.51717  0.02453  Biso   1.000  C
  C285     1.0000 0.48283  0.41847  0.02453  Biso   1.000  C
  C286     1.0000 0.18383  0.26897  0.30881  Biso   1.000  C
  C287     1.0000 0.08513  0.81617  0.30881  Biso   1.000  C
  C288     1.0000 0.73103  0.91487  0.30881  Biso   1.000  C
  C289     1.0000 0.75180  0.60230  0.64214  Biso   1.000  C
  C290     1.0000 0.39770  0.14950  0.64214  Biso   1.000  C
  C291     1.0000 0.85050  0.24820  0.64214  Biso   1.000  C
  C292     1.0000 0.14950  0.39770  0.35786  Biso   1.000  C
  C293     1.0000 0.24820  0.85050  0.35786  Biso   1.000  C
  C294     1.0000 0.60230  0.75180  0.35786  Biso   1.000  C
  C295     1.0000 0.41847  0.93563  0.97547  Biso   1.000  C
  C296     1.0000 0.06437  0.48283  0.97547  Biso   1.000  C
  C297     1.0000 0.51717  0.58153  0.97547  Biso   1.000  C
  C298     1.0000 0.81617  0.73103  0.69119  Biso   1.000  C
  C299     1.0000 0.91487  0.18383  0.69119  Biso   1.000  C
  C300     1.0000 0.26897  0.08513  0.69119  Biso   1.000  C
  C301     1.0000 0.08513  0.26897  0.30881  Biso   1.000  C
  C302     1.0000 0.73103  0.81617  0.30881  Biso   1.000  C
  C303     1.0000 0.18383  0.91487  0.30881  Biso   1.000  C
  C304     1.0000 0.48283  0.06437  0.02453  Biso   1.000  C
  C305     1.0000 0.58153  0.51717  0.02453  Biso   1.000  C
  C306     1.0000 0.93563  0.41847  0.02453  Biso   1.000  C
  H127     1.0000 0.29680  0.42430  0.34730  Biso   1.000  H
  H128     1.0000 0.57570  0.87250  0.34730  Biso   1.000  H
  H129     1.0000 0.12750  0.70320  0.34730  Biso   1.000  H
  H130     1.0000 0.87250  0.57570  0.65270  Biso   1.000  H
  H131     1.0000 0.70320  0.12750  0.65270  Biso   1.000  H
  H132     1.0000 0.42430  0.29680  0.65270  Biso   1.000  H
  H133     1.0000 0.96347  0.75763  0.68063  Biso   1.000  H
  H134     1.0000 0.24237  0.20583  0.68063  Biso   1.000  H
  H135     1.0000 0.79417  0.03653  0.68063  Biso   1.000  H
  H136     1.0000 0.53917  0.90903  0.98603  Biso   1.000  H
  H137     1.0000 0.36987  0.46083  0.98603  Biso   1.000  H
  H138     1.0000 0.09097  0.63013  0.98603  Biso   1.000  H
  H139     1.0000 0.63013  0.09097  0.01397  Biso   1.000  H
  H140     1.0000 0.90903  0.53917  0.01397  Biso   1.000  H
  H141     1.0000 0.46083  0.36987  0.01397  Biso   1.000  H
  H142     1.0000 0.20583  0.24237  0.31937  Biso   1.000  H
  H143     1.0000 0.03653  0.79417  0.31937  Biso   1.000  H
  H144     1.0000 0.75763  0.96347  0.31937  Biso   1.000  H
  H145     1.0000 0.70320  0.57570  0.65270  Biso   1.000  H
  H146     1.0000 0.42430  0.12750  0.65270  Biso   1.000  H
  H147     1.0000 0.87250  0.29680  0.65270  Biso   1.000  H
  H148     1.0000 0.12750  0.42430  0.34730  Biso   1.000  H
  H149     1.0000 0.29680  0.87250  0.34730  Biso   1.000  H
  H150     1.0000 0.57570  0.70320  0.34730  Biso   1.000  H
  H151     1.0000 0.36987  0.90903  0.98603  Biso   1.000  H
  H152     1.0000 0.09097  0.46083  0.98603  Biso   1.000  H
  H153     1.0000 0.53917  0.63013  0.98603  Biso   1.000  H
  H154     1.0000 0.79417  0.75763  0.68063  Biso   1.000  H
  H155     1.0000 0.96347  0.20583  0.68063  Biso   1.000  H
  H156     1.0000 0.24237  0.03653  0.68063  Biso   1.000  H
  H157     1.0000 0.03653  0.24237  0.31937  Biso   1.000  H
  H158     1.0000 0.75763  0.79417  0.31937  Biso   1.000  H
  H159     1.0000 0.20583  0.96347  0.31937  Biso   1.000  H
  H160     1.0000 0.46083  0.09097  0.01397  Biso   1.000  H
  H161     1.0000 0.63013  0.53917  0.01397  Biso   1.000  H
  H162     1.0000 0.90903  0.36987  0.01397  Biso   1.000  H
  C307     1.0000 0.25410  0.41620  0.38378  Biso   1.000  C
  C308     1.0000 0.58380  0.83790  0.38378  Biso   1.000  C
  C309     1.0000 0.16210  0.74590  0.38378  Biso   1.000  C
  C310     1.0000 0.83790  0.58380  0.61622  Biso   1.000  C
  C311     1.0000 0.74590  0.16210  0.61622  Biso   1.000  C
  C312     1.0000 0.41620  0.25410  0.61622  Biso   1.000  C
  C313     1.0000 0.92077  0.74953  0.71711  Biso   1.000  C
  C314     1.0000 0.25047  0.17123  0.71711  Biso   1.000  C
  C315     1.0000 0.82877  0.07923  0.71711  Biso   1.000  C
  C316     1.0000 0.50457  0.91713  0.94955  Biso   1.000  C
  C317     1.0000 0.41257  0.49543  0.94955  Biso   1.000  C
  C318     1.0000 0.08287  0.58743  0.94955  Biso   1.000  C
  C319     1.0000 0.58743  0.08287  0.05045  Biso   1.000  C
  C320     1.0000 0.91713  0.50457  0.05045  Biso   1.000  C
  C321     1.0000 0.49543  0.41257  0.05045  Biso   1.000  C
  C322     1.0000 0.17123  0.25047  0.28289  Biso   1.000  C
  C323     1.0000 0.07923  0.82877  0.28289  Biso   1.000  C
  C324     1.0000 0.74953  0.92077  0.28289  Biso   1.000  C
  C325     1.0000 0.74590  0.58380  0.61622  Biso   1.000  C
  C326     1.0000 0.41620  0.16210  0.61622  Biso   1.000  C
  C327     1.0000 0.83790  0.25410  0.61622  Biso   1.000  C
  C328     1.0000 0.16210  0.41620  0.38378  Biso   1.000  C
  C329     1.0000 0.25410  0.83790  0.38378  Biso   1.000  C
  C330     1.0000 0.58380  0.74590  0.38378  Biso   1.000  C
  C331     1.0000 0.41257  0.91713  0.94955  Biso   1.000  C
  C332     1.0000 0.08287  0.49543  0.94955  Biso   1.000  C
  C333     1.0000 0.50457  0.58743  0.94955  Biso   1.000  C
  C334     1.0000 0.82877  0.74953  0.71711  Biso   1.000  C
  C335     1.0000 0.92077  0.17123  0.71711  Biso   1.000  C
  C336     1.0000 0.25047  0.07923  0.71711  Biso   1.000  C
  C337     1.0000 0.07923  0.25047  0.28289  Biso   1.000  C
  C338     1.0000 0.74953  0.82877  0.28289  Biso   1.000  C
  C339     1.0000 0.17123  0.92077  0.28289  Biso   1.000  C
  C340     1.0000 0.49543  0.08287  0.05045  Biso   1.000  C
  C341     1.0000 0.58743  0.50457  0.05045  Biso   1.000  C
  C342     1.0000 0.91713  0.41257  0.05045  Biso   1.000  C
  H163     1.0000 0.30530  0.46000  0.39070  Biso   1.000  H
  H164     1.0000 0.54000  0.84530  0.39070  Biso   1.000  H
  H165     1.0000 0.15470  0.69470  0.39070  Biso   1.000  H
  H166     1.0000 0.84530  0.54000  0.60930  Biso   1.000  H
  H167     1.0000 0.69470  0.15470  0.60930  Biso   1.000  H
  H168     1.0000 0.46000  0.30530  0.60930  Biso   1.000  H
  H169     1.0000 0.97197  0.79333  0.72403  Biso   1.000  H
  H170     1.0000 0.20667  0.17863  0.72403  Biso   1.000  H
  H171     1.0000 0.82137  0.02803  0.72403  Biso   1.000  H
  H172     1.0000 0.51197  0.87333  0.94263  Biso   1.000  H
  H173     1.0000 0.36137  0.48803  0.94263  Biso   1.000  H
  H174     1.0000 0.12667  0.63863  0.94263  Biso   1.000  H
  H175     1.0000 0.63863  0.12667  0.05737  Biso   1.000  H
  H176     1.0000 0.87333  0.51197  0.05737  Biso   1.000  H
  H177     1.0000 0.48803  0.36137  0.05737  Biso   1.000  H
  H178     1.0000 0.17863  0.20667  0.27597  Biso   1.000  H
  H179     1.0000 0.02803  0.82137  0.27597  Biso   1.000  H
  H180     1.0000 0.79333  0.97197  0.27597  Biso   1.000  H
  H181     1.0000 0.69470  0.54000  0.60930  Biso   1.000  H
  H182     1.0000 0.46000  0.15470  0.60930  Biso   1.000  H
  H183     1.0000 0.84530  0.30530  0.60930  Biso   1.000  H
  H184     1.0000 0.15470  0.46000  0.39070  Biso   1.000  H
  H185     1.0000 0.30530  0.84530  0.39070  Biso   1.000  H
  H186     1.0000 0.54000  0.69470  0.39070  Biso   1.000  H
  H187     1.0000 0.36137  0.87333  0.94263  Biso   1.000  H
  H188     1.0000 0.12667  0.48803  0.94263  Biso   1.000  H
  H189     1.0000 0.51197  0.63863  0.94263  Biso   1.000  H
  H190     1.0000 0.82137  0.79333  0.72403  Biso   1.000  H
  H191     1.0000 0.97197  0.17863  0.72403  Biso   1.000  H
  H192     1.0000 0.20667  0.02803  0.72403  Biso   1.000  H
  H193     1.0000 0.02803  0.20667  0.27597  Biso   1.000  H
  H194     1.0000 0.79333  0.82137  0.27597  Biso   1.000  H
  H195     1.0000 0.17863  0.97197  0.27597  Biso   1.000  H
  H196     1.0000 0.48803  0.12667  0.05737  Biso   1.000  H
  H197     1.0000 0.63863  0.51197  0.05737  Biso   1.000  H
  H198     1.0000 0.87333  0.36137  0.05737  Biso   1.000  H
  N1       1.0000 0.32040  0.44680  0.34310  Biso   1.000  N
  N2       1.0000 0.55320  0.87360  0.34310  Biso   1.000  N
  N3       1.0000 0.12640  0.67960  0.34310  Biso   1.000  N
  N4       1.0000 0.87360  0.55320  0.65690  Biso   1.000  N
  N5       1.0000 0.67960  0.12640  0.65690  Biso   1.000  N
  N6       1.0000 0.44680  0.32040  0.65690  Biso   1.000  N
  N7       1.0000 0.98707  0.78013  0.67643  Biso   1.000  N
  N8       1.0000 0.21987  0.20693  0.67643  Biso   1.000  N
  N9       1.0000 0.79307  0.01293  0.67643  Biso   1.000  N
  N10      1.0000 0.54027  0.88653  0.99023  Biso   1.000  N
  N11      1.0000 0.34627  0.45973  0.99023  Biso   1.000  N
  N12      1.0000 0.11347  0.65373  0.99023  Biso   1.000  N
  N13      1.0000 0.65373  0.11347  0.00977  Biso   1.000  N
  N14      1.0000 0.88653  0.54027  0.00977  Biso   1.000  N
  N15      1.0000 0.45973  0.34627  0.00977  Biso   1.000  N
  N16      1.0000 0.20693  0.21987  0.32357  Biso   1.000  N
  N17      1.0000 0.01293  0.79307  0.32357  Biso   1.000  N
  N18      1.0000 0.78013  0.98707  0.32357  Biso   1.000  N
  N19      1.0000 0.67960  0.55320  0.65690  Biso   1.000  N
  N20      1.0000 0.44680  0.12640  0.65690  Biso   1.000  N
  N21      1.0000 0.87360  0.32040  0.65690  Biso   1.000  N
  N22      1.0000 0.12640  0.44680  0.34310  Biso   1.000  N
  N23      1.0000 0.32040  0.87360  0.34310  Biso   1.000  N
  N24      1.0000 0.55320  0.67960  0.34310  Biso   1.000  N
  N25      1.0000 0.34627  0.88653  0.99023  Biso   1.000  N
  N26      1.0000 0.11347  0.45973  0.99023  Biso   1.000  N
  N27      1.0000 0.54027  0.65373  0.99023  Biso   1.000  N
  N28      1.0000 0.79307  0.78013  0.67643  Biso   1.000  N
  N29      1.0000 0.98707  0.20693  0.67643  Biso   1.000  N
  N30      1.0000 0.21987  0.01293  0.67643  Biso   1.000  N
  N31      1.0000 0.01293  0.21987  0.32357  Biso   1.000  N
  N32      1.0000 0.78013  0.79307  0.32357  Biso   1.000  N
  N33      1.0000 0.20693  0.98707  0.32357  Biso   1.000  N
  N34      1.0000 0.45973  0.11347  0.00977  Biso   1.000  N
  N35      1.0000 0.65373  0.54027  0.00977  Biso   1.000  N
  N36      1.0000 0.88653  0.34627  0.00977  Biso   1.000  N
  N37      1.0000 0.03390  0.21720  0.35350  Biso   1.000  N
  N38      1.0000 0.78280  0.81670  0.35350  Biso   1.000  N
  N39      1.0000 0.18330  0.96610  0.35350  Biso   1.000  N
  N40      1.0000 0.81670  0.78280  0.64650  Biso   1.000  N
  N41      1.0000 0.96610  0.18330  0.64650  Biso   1.000  N
  N42      1.0000 0.21720  0.03390  0.64650  Biso   1.000  N
  N43      1.0000 0.70057  0.55053  0.68683  Biso   1.000  N
  N44      1.0000 0.44947  0.15003  0.68683  Biso   1.000  N
  N45      1.0000 0.84997  0.29943  0.68683  Biso   1.000  N
  N46      1.0000 0.48337  0.11613  0.97983  Biso   1.000  N
  N47      1.0000 0.63277  0.51663  0.97983  Biso   1.000  N
  N48      1.0000 0.88387  0.36723  0.97983  Biso   1.000  N
  N49      1.0000 0.36723  0.88387  0.02017  Biso   1.000  N
  N50      1.0000 0.11613  0.48337  0.02017  Biso   1.000  N
  N51      1.0000 0.51663  0.63277  0.02017  Biso   1.000  N
  N52      1.0000 0.15003  0.44947  0.31317  Biso   1.000  N
  N53      1.0000 0.29943  0.84997  0.31317  Biso   1.000  N
  N54      1.0000 0.55053  0.70057  0.31317  Biso   1.000  N
  N55      1.0000 0.96610  0.78280  0.64650  Biso   1.000  N
  N56      1.0000 0.21720  0.18330  0.64650  Biso   1.000  N
  N57      1.0000 0.81670  0.03390  0.64650  Biso   1.000  N
  N58      1.0000 0.18330  0.21720  0.35350  Biso   1.000  N
  N59      1.0000 0.03390  0.81670  0.35350  Biso   1.000  N
  N60      1.0000 0.78280  0.96610  0.35350  Biso   1.000  N
  N61      1.0000 0.63277  0.11613  0.97983  Biso   1.000  N
  N62      1.0000 0.88387  0.51663  0.97983  Biso   1.000  N
  N63      1.0000 0.48337  0.36723  0.97983  Biso   1.000  N
  N64      1.0000 0.84997  0.55053  0.68683  Biso   1.000  N
  N65      1.0000 0.70057  0.15003  0.68683  Biso   1.000  N
  N66      1.0000 0.44947  0.29943  0.68683  Biso   1.000  N
  N67      1.0000 0.29943  0.44947  0.31317  Biso   1.000  N
  N68      1.0000 0.55053  0.84997  0.31317  Biso   1.000  N
  N69      1.0000 0.15003  0.70057  0.31317  Biso   1.000  N
  N70      1.0000 0.51663  0.88387  0.02017  Biso   1.000  N
  N71      1.0000 0.36723  0.48337  0.02017  Biso   1.000  N
  N72      1.0000 0.11613  0.63277  0.02017  Biso   1.000  N
