data_image0
_cell_length_a       19
_cell_length_b       20.12
_cell_length_c       20.192
_cell_angle_alpha    90
_cell_angle_beta     90
_cell_angle_gamma    90

_symmetry_space_group_name_H-M    "P 1"
_symmetry_int_tables_number       1

loop_
  _symmetry_equiv_pos_as_xyz
  'x, y, z'

loop_
  _atom_site_label
  _atom_site_occupancy
  _atom_site_fract_x
  _atom_site_fract_y
  _atom_site_fract_z
  _atom_site_thermal_displace_type
  _atom_site_B_iso_or_equiv
  _atom_site_type_symbol
  Cu1      1.0000 0.22856  0.01125  0.66689  Biso   1.000  Cu
  Cu2      1.0000 0.27144  0.48875  0.66689  Biso   1.000  Cu
  Cu3      1.0000 0.72856  0.98875  0.83311  Biso   1.000  Cu
  Cu4      1.0000 0.77144  0.51125  0.83311  Biso   1.000  Cu
  Cu5      1.0000 0.77144  0.98875  0.33311  Biso   1.000  Cu
  Cu6      1.0000 0.72856  0.51125  0.33311  Biso   1.000  Cu
  Cu7      1.0000 0.27144  0.01125  0.16689  Biso   1.000  Cu
  Cu8      1.0000 0.22856  0.48875  0.16689  Biso   1.000  Cu
  Cu9      1.0000 0.97261  0.72796  0.72657  Biso   1.000  Cu
  Cu10     1.0000 0.52739  0.77204  0.72657  Biso   1.000  Cu
  Cu11     1.0000 0.47261  0.27204  0.77343  Biso   1.000  Cu
  Cu12     1.0000 0.02739  0.22796  0.77343  Biso   1.000  Cu
  Cu13     1.0000 0.02739  0.27204  0.27343  Biso   1.000  Cu
  Cu14     1.0000 0.47261  0.22796  0.27343  Biso   1.000  Cu
  Cu15     1.0000 0.52739  0.72796  0.22657  Biso   1.000  Cu
  Cu16     1.0000 0.97261  0.77204  0.22657  Biso   1.000  Cu
  Cu17     1.0000 0.25000  0.75000  0.45053  Biso   1.000  Cu
  Cu18     1.0000 0.75000  0.25000  0.04947  Biso   1.000  Cu
  Cu19     1.0000 0.75000  0.25000  0.54947  Biso   1.000  Cu
  Cu20     1.0000 0.25000  0.75000  0.95053  Biso   1.000  Cu
  K1       1.0000 0.19525  0.85197  0.59779  Biso   1.000  K
  K2       1.0000 0.30475  0.64803  0.59779  Biso   1.000  K
  K3       1.0000 0.69525  0.14803  0.90221  Biso   1.000  K
  K4       1.0000 0.80475  0.35197  0.90221  Biso   1.000  K
  K5       1.0000 0.80475  0.14803  0.40221  Biso   1.000  K
  K6       1.0000 0.69525  0.35197  0.40221  Biso   1.000  K
  K7       1.0000 0.30475  0.85197  0.09779  Biso   1.000  K
  K8       1.0000 0.19525  0.64803  0.09779  Biso   1.000  K
  K9       1.0000 0.13093  0.79000  0.80216  Biso   1.000  K
  K10      1.0000 0.36907  0.71000  0.80216  Biso   1.000  K
  K11      1.0000 0.63093  0.21000  0.69784  Biso   1.000  K
  K12      1.0000 0.86907  0.29000  0.69784  Biso   1.000  K
  K13      1.0000 0.86907  0.21000  0.19784  Biso   1.000  K
  K14      1.0000 0.63093  0.29000  0.19784  Biso   1.000  K
  K15      1.0000 0.36907  0.79000  0.30216  Biso   1.000  K
  K16      1.0000 0.13093  0.71000  0.30216  Biso   1.000  K
  K17      1.0000 0.25000  0.25000  0.78062  Biso   1.000  K
  K18      1.0000 0.75000  0.75000  0.71938  Biso   1.000  K
  K19      1.0000 0.75000  0.75000  0.21938  Biso   1.000  K
  K20      1.0000 0.25000  0.25000  0.28062  Biso   1.000  K
  Na1      1.0000 0.28547  0.89046  0.75580  Biso   1.000  Na
  Na2      1.0000 0.21453  0.60954  0.75580  Biso   1.000  Na
  Na3      1.0000 0.78547  0.10954  0.74420  Biso   1.000  Na
  Na4      1.0000 0.71453  0.39046  0.74420  Biso   1.000  Na
  Na5      1.0000 0.71453  0.10954  0.24420  Biso   1.000  Na
  Na6      1.0000 0.78547  0.39046  0.24420  Biso   1.000  Na
  Na7      1.0000 0.21453  0.89046  0.25580  Biso   1.000  Na
  Na8      1.0000 0.28547  0.60954  0.25580  Biso   1.000  Na
  Na9      1.0000 0.38857  0.80650  0.64640  Biso   1.000  Na
  Na10     1.0000 0.11143  0.69350  0.64640  Biso   1.000  Na
  Na11     1.0000 0.88857  0.19350  0.85360  Biso   1.000  Na
  Na12     1.0000 0.61143  0.30650  0.85360  Biso   1.000  Na
  Na13     1.0000 0.61143  0.19350  0.35360  Biso   1.000  Na
  Na14     1.0000 0.88857  0.30650  0.35360  Biso   1.000  Na
  Na15     1.0000 0.11143  0.80650  0.14640  Biso   1.000  Na
  Na16     1.0000 0.38857  0.69350  0.14640  Biso   1.000  Na
  Na17     1.0000 0.13648  0.13481  0.70334  Biso   1.000  Na
  Na18     1.0000 0.36352  0.36519  0.70334  Biso   1.000  Na
  Na19     1.0000 0.63648  0.86519  0.79666  Biso   1.000  Na
  Na20     1.0000 0.86352  0.63481  0.79666  Biso   1.000  Na
  Na21     1.0000 0.86352  0.86519  0.29666  Biso   1.000  Na
  Na22     1.0000 0.63648  0.63481  0.29666  Biso   1.000  Na
  Na23     1.0000 0.36352  0.13481  0.20334  Biso   1.000  Na
  Na24     1.0000 0.13648  0.36519  0.20334  Biso   1.000  Na
  O1       1.0000 0.16402  0.91102  0.73980  Biso   1.000  O
  O2       1.0000 0.33598  0.58898  0.73980  Biso   1.000  O
  O3       1.0000 0.66402  0.08898  0.76020  Biso   1.000  O
  O4       1.0000 0.83598  0.41102  0.76020  Biso   1.000  O
  O5       1.0000 0.83598  0.08898  0.26020  Biso   1.000  O
  O6       1.0000 0.66402  0.41102  0.26020  Biso   1.000  O
  O7       1.0000 0.33598  0.91102  0.23980  Biso   1.000  O
  O8       1.0000 0.16402  0.58898  0.23980  Biso   1.000  O
  O9       1.0000 0.32222  0.90479  0.64046  Biso   1.000  O
  O10      1.0000 0.17778  0.59521  0.64046  Biso   1.000  O
  O11      1.0000 0.82222  0.09521  0.85954  Biso   1.000  O
  O12      1.0000 0.67778  0.40479  0.85954  Biso   1.000  O
  O13      1.0000 0.67778  0.09521  0.35954  Biso   1.000  O
  O14      1.0000 0.82222  0.40479  0.35954  Biso   1.000  O
  O15      1.0000 0.17778  0.90479  0.14046  Biso   1.000  O
  O16      1.0000 0.32222  0.59521  0.14046  Biso   1.000  O
  O17      1.0000 0.15250  0.09528  0.59595  Biso   1.000  O
  O18      1.0000 0.34750  0.40472  0.59595  Biso   1.000  O
  O19      1.0000 0.65250  0.90472  0.90405  Biso   1.000  O
  O20      1.0000 0.84750  0.59528  0.90405  Biso   1.000  O
  O21      1.0000 0.84750  0.90472  0.40405  Biso   1.000  O
  O22      1.0000 0.65250  0.59528  0.40405  Biso   1.000  O
  O23      1.0000 0.34750  0.09528  0.09595  Biso   1.000  O
  O24      1.0000 0.15250  0.40472  0.09595  Biso   1.000  O
  O25      1.0000 0.25647  0.11909  0.73194  Biso   1.000  O
  O26      1.0000 0.24353  0.38091  0.73194  Biso   1.000  O
  O27      1.0000 0.75647  0.88091  0.76806  Biso   1.000  O
  O28      1.0000 0.74353  0.61909  0.76806  Biso   1.000  O
  O29      1.0000 0.74353  0.88091  0.26806  Biso   1.000  O
  O30      1.0000 0.75647  0.61909  0.26806  Biso   1.000  O
  O31      1.0000 0.24353  0.11909  0.23194  Biso   1.000  O
  O32      1.0000 0.25647  0.38091  0.23194  Biso   1.000  O
  O33      1.0000 0.24917  0.85210  0.35908  Biso   1.000  O
  O34      1.0000 0.25083  0.64790  0.35908  Biso   1.000  O
  O35      1.0000 0.74917  0.14790  0.14092  Biso   1.000  O
  O36      1.0000 0.75083  0.35210  0.14092  Biso   1.000  O
  O37      1.0000 0.75083  0.14790  0.64092  Biso   1.000  O
  O38      1.0000 0.74917  0.35210  0.64092  Biso   1.000  O
  O39      1.0000 0.25083  0.85210  0.85908  Biso   1.000  O
  O40      1.0000 0.24917  0.64790  0.85908  Biso   1.000  O
  O41      1.0000 0.35770  0.76266  0.54396  Biso   1.000  O
  O42      1.0000 0.14230  0.73734  0.54396  Biso   1.000  O
  O43      1.0000 0.85770  0.23734  0.95604  Biso   1.000  O
  O44      1.0000 0.64230  0.26266  0.95604  Biso   1.000  O
  O45      1.0000 0.64230  0.23734  0.45604  Biso   1.000  O
  O46      1.0000 0.85770  0.26266  0.45604  Biso   1.000  O
  O47      1.0000 0.14230  0.76266  0.04396  Biso   1.000  O
  O48      1.0000 0.35770  0.73734  0.04396  Biso   1.000  O
  O49      1.0000 0.86963  0.66569  0.67927  Biso   1.000  O
  O50      1.0000 0.63037  0.83431  0.67927  Biso   1.000  O
  O51      1.0000 0.36963  0.33431  0.82073  Biso   1.000  O
  O52      1.0000 0.13037  0.16569  0.82073  Biso   1.000  O
  O53      1.0000 0.13037  0.33431  0.32073  Biso   1.000  O
  O54      1.0000 0.36963  0.16569  0.32073  Biso   1.000  O
  O55      1.0000 0.63037  0.66569  0.17927  Biso   1.000  O
  O56      1.0000 0.86963  0.83431  0.17927  Biso   1.000  O
  O57      1.0000 0.86810  0.75325  0.80866  Biso   1.000  O
  O58      1.0000 0.63190  0.74675  0.80866  Biso   1.000  O
  O59      1.0000 0.36810  0.24675  0.69134  Biso   1.000  O
  O60      1.0000 0.13190  0.25325  0.69134  Biso   1.000  O
  O61      1.0000 0.13190  0.24675  0.19134  Biso   1.000  O
  O62      1.0000 0.36810  0.25325  0.19134  Biso   1.000  O
  O63      1.0000 0.63190  0.75325  0.30866  Biso   1.000  O
  O64      1.0000 0.86810  0.74675  0.30866  Biso   1.000  O
  O65      1.0000 0.24262  0.84551  0.46825  Biso   1.000  O
  O66      1.0000 0.25738  0.65449  0.46825  Biso   1.000  O
  O67      1.0000 0.74262  0.15449  0.03175  Biso   1.000  O
  O68      1.0000 0.75738  0.34551  0.03175  Biso   1.000  O
  O69      1.0000 0.75738  0.15449  0.53175  Biso   1.000  O
  O70      1.0000 0.74262  0.34551  0.53175  Biso   1.000  O
  O71      1.0000 0.25738  0.84551  0.96825  Biso   1.000  O
  O72      1.0000 0.24262  0.65449  0.96825  Biso   1.000  O
  O73      1.0000 0.35167  0.75790  0.43454  Biso   1.000  O
  O74      1.0000 0.14833  0.74210  0.43454  Biso   1.000  O
  O75      1.0000 0.85167  0.24210  0.06546  Biso   1.000  O
  O76      1.0000 0.64833  0.25790  0.06546  Biso   1.000  O
  O77      1.0000 0.64833  0.24210  0.56546  Biso   1.000  O
  O78      1.0000 0.85167  0.25790  0.56546  Biso   1.000  O
  O79      1.0000 0.14833  0.75790  0.93454  Biso   1.000  O
  O80      1.0000 0.35167  0.74210  0.93454  Biso   1.000  O
  O81      1.0000 0.98031  0.66971  0.64572  Biso   1.000  O
  O82      1.0000 0.51969  0.83029  0.64572  Biso   1.000  O
  O83      1.0000 0.48031  0.33029  0.85428  Biso   1.000  O
  O84      1.0000 0.01969  0.16971  0.85428  Biso   1.000  O
  O85      1.0000 0.01969  0.33029  0.35428  Biso   1.000  O
  O86      1.0000 0.48031  0.16971  0.35428  Biso   1.000  O
  O87      1.0000 0.51969  0.66971  0.14572  Biso   1.000  O
  O88      1.0000 0.98031  0.83029  0.14572  Biso   1.000  O
  O89      1.0000 0.98567  0.65116  0.78470  Biso   1.000  O
  O90      1.0000 0.51433  0.84884  0.78470  Biso   1.000  O
  O91      1.0000 0.48567  0.34884  0.71530  Biso   1.000  O
  O92      1.0000 0.01433  0.15116  0.71530  Biso   1.000  O
  O93      1.0000 0.01433  0.34884  0.21530  Biso   1.000  O
  O94      1.0000 0.48567  0.15116  0.21530  Biso   1.000  O
  O95      1.0000 0.51433  0.65116  0.28470  Biso   1.000  O
  O96      1.0000 0.98567  0.84884  0.28470  Biso   1.000  O
  O97      1.0000 0.97830  0.78891  0.80297  Biso   1.000  O
  O98      1.0000 0.52170  0.71109  0.80297  Biso   1.000  O
  O99      1.0000 0.47830  0.21109  0.69703  Biso   1.000  O
  O100     1.0000 0.02170  0.28891  0.69703  Biso   1.000  O
  O101     1.0000 0.02170  0.21109  0.19703  Biso   1.000  O
  O102     1.0000 0.47830  0.28891  0.19703  Biso   1.000  O
  O103     1.0000 0.52170  0.78891  0.30297  Biso   1.000  O
  O104     1.0000 0.97830  0.71109  0.30297  Biso   1.000  O
  O105     1.0000 0.95845  0.80471  0.66949  Biso   1.000  O
  O106     1.0000 0.54155  0.69529  0.66949  Biso   1.000  O
  O107     1.0000 0.45845  0.19529  0.83051  Biso   1.000  O
  O108     1.0000 0.04155  0.30471  0.83051  Biso   1.000  O
  O109     1.0000 0.04155  0.19529  0.33051  Biso   1.000  O
  O110     1.0000 0.45845  0.30471  0.33051  Biso   1.000  O
  O111     1.0000 0.54155  0.80471  0.16949  Biso   1.000  O
  O112     1.0000 0.95845  0.69529  0.16949  Biso   1.000  O
  O113     1.0000 0.31271  0.01099  0.61223  Biso   1.000  O
  O114     1.0000 0.18729  0.48901  0.61223  Biso   1.000  O
  O115     1.0000 0.81271  0.98901  0.88777  Biso   1.000  O
  O116     1.0000 0.68729  0.51099  0.88777  Biso   1.000  O
  O117     1.0000 0.68729  0.98901  0.38777  Biso   1.000  O
  O118     1.0000 0.81271  0.51099  0.38777  Biso   1.000  O
  O119     1.0000 0.18729  0.01099  0.11223  Biso   1.000  O
  O120     1.0000 0.31271  0.48901  0.11223  Biso   1.000  O
  O121     1.0000 0.17212  0.98770  0.58784  Biso   1.000  O
  O122     1.0000 0.32788  0.51230  0.58784  Biso   1.000  O
  O123     1.0000 0.67212  0.01230  0.91216  Biso   1.000  O
  O124     1.0000 0.82788  0.48770  0.91216  Biso   1.000  O
  O125     1.0000 0.82788  0.01230  0.41216  Biso   1.000  O
  O126     1.0000 0.67212  0.48770  0.41216  Biso   1.000  O
  O127     1.0000 0.32788  0.98770  0.08784  Biso   1.000  O
  O128     1.0000 0.17212  0.51230  0.08784  Biso   1.000  O
  O129     1.0000 0.14148  0.01698  0.71992  Biso   1.000  O
  O130     1.0000 0.35852  0.48302  0.71992  Biso   1.000  O
  O131     1.0000 0.64148  0.98302  0.78008  Biso   1.000  O
  O132     1.0000 0.85852  0.51698  0.78008  Biso   1.000  O
  O133     1.0000 0.85852  0.98302  0.28008  Biso   1.000  O
  O134     1.0000 0.64148  0.51698  0.28008  Biso   1.000  O
  O135     1.0000 0.35852  0.01698  0.21992  Biso   1.000  O
  O136     1.0000 0.14148  0.48302  0.21992  Biso   1.000  O
  O137     1.0000 0.28521  0.01400  0.74955  Biso   1.000  O
  O138     1.0000 0.21479  0.48600  0.74955  Biso   1.000  O
  O139     1.0000 0.78521  0.98600  0.75045  Biso   1.000  O
  O140     1.0000 0.71479  0.51400  0.75045  Biso   1.000  O
  O141     1.0000 0.71479  0.98600  0.25045  Biso   1.000  O
  O142     1.0000 0.78521  0.51400  0.25045  Biso   1.000  O
  O143     1.0000 0.21479  0.01400  0.24955  Biso   1.000  O
  O144     1.0000 0.28521  0.48600  0.24955  Biso   1.000  O
  O145     1.0000 0.09995  0.65749  0.76273  Biso   1.000  O
  O146     1.0000 0.40005  0.84251  0.76273  Biso   1.000  O
  O147     1.0000 0.59995  0.34251  0.73727  Biso   1.000  O
  O148     1.0000 0.90005  0.15749  0.73727  Biso   1.000  O
  O149     1.0000 0.90005  0.34251  0.23727  Biso   1.000  O
  O150     1.0000 0.59995  0.15749  0.23727  Biso   1.000  O
  O151     1.0000 0.40005  0.65749  0.26273  Biso   1.000  O
  O152     1.0000 0.09995  0.84251  0.26273  Biso   1.000  O
  O153     1.0000 0.07531  0.80155  0.66921  Biso   1.000  O
  O154     1.0000 0.42469  0.69845  0.66921  Biso   1.000  O
  O155     1.0000 0.57531  0.19845  0.83079  Biso   1.000  O
  O156     1.0000 0.92469  0.30155  0.83079  Biso   1.000  O
  O157     1.0000 0.92469  0.19845  0.33079  Biso   1.000  O
  O158     1.0000 0.57531  0.30155  0.33079  Biso   1.000  O
  O159     1.0000 0.42469  0.80155  0.16921  Biso   1.000  O
  O160     1.0000 0.07531  0.69845  0.16921  Biso   1.000  O
  C1       1.0000 0.46520  0.76700  0.48220  Biso   1.000  C
  C2       1.0000 0.03480  0.73300  0.48220  Biso   1.000  C
  C3       1.0000 0.96520  0.23300  0.01780  Biso   1.000  C
  C4       1.0000 0.53480  0.26700  0.01780  Biso   1.000  C
  C5       1.0000 0.53480  0.23300  0.51780  Biso   1.000  C
  C6       1.0000 0.96520  0.26700  0.51780  Biso   1.000  C
  C7       1.0000 0.03480  0.76700  0.98220  Biso   1.000  C
  C8       1.0000 0.46520  0.73300  0.98220  Biso   1.000  C
  H1       1.0000 0.48570  0.77060  0.52550  Biso   1.000  H
  H2       1.0000 0.01430  0.72940  0.52550  Biso   1.000  H
  H3       1.0000 0.98570  0.22940  0.97450  Biso   1.000  H
  H4       1.0000 0.51430  0.27060  0.97450  Biso   1.000  H
  H5       1.0000 0.51430  0.22940  0.47450  Biso   1.000  H
  H6       1.0000 0.98570  0.27060  0.47450  Biso   1.000  H
  H7       1.0000 0.01430  0.77060  0.02550  Biso   1.000  H
  H8       1.0000 0.48570  0.72940  0.02550  Biso   1.000  H
  H9       1.0000 0.47740  0.80550  0.45660  Biso   1.000  H
  H10      1.0000 0.02260  0.69450  0.45660  Biso   1.000  H
  H11      1.0000 0.97740  0.19450  0.04340  Biso   1.000  H
  H12      1.0000 0.52260  0.30550  0.04340  Biso   1.000  H
  H13      1.0000 0.52260  0.19450  0.54340  Biso   1.000  H
  H14      1.0000 0.97740  0.30550  0.54340  Biso   1.000  H
  H15      1.0000 0.02260  0.80550  0.95660  Biso   1.000  H
  H16      1.0000 0.47740  0.69450  0.95660  Biso   1.000  H
  H17      1.0000 0.48270  0.72790  0.46070  Biso   1.000  H
  H18      1.0000 0.01730  0.77210  0.46070  Biso   1.000  H
  H19      1.0000 0.98270  0.27210  0.03930  Biso   1.000  H
  H20      1.0000 0.51730  0.22790  0.03930  Biso   1.000  H
  H21      1.0000 0.51730  0.27210  0.53930  Biso   1.000  H
  H22      1.0000 0.98270  0.22790  0.53930  Biso   1.000  H
  H23      1.0000 0.01730  0.72790  0.96070  Biso   1.000  H
  H24      1.0000 0.48270  0.77210  0.96070  Biso   1.000  H
  C9       1.0000 0.06090  0.57450  0.83770  Biso   1.000  C
  C10      1.0000 0.43910  0.92550  0.83770  Biso   1.000  C
  C11      1.0000 0.56090  0.42550  0.66230  Biso   1.000  C
  C12      1.0000 0.93910  0.07450  0.66230  Biso   1.000  C
  C13      1.0000 0.93910  0.42550  0.16230  Biso   1.000  C
  C14      1.0000 0.56090  0.07450  0.16230  Biso   1.000  C
  C15      1.0000 0.43910  0.57450  0.33770  Biso   1.000  C
  C16      1.0000 0.06090  0.92550  0.33770  Biso   1.000  C
  H25      1.0000 0.11010  0.56410  0.83920  Biso   1.000  H
  H26      1.0000 0.38990  0.93590  0.83920  Biso   1.000  H
  H27      1.0000 0.61010  0.43590  0.66080  Biso   1.000  H
  H28      1.0000 0.88990  0.06410  0.66080  Biso   1.000  H
  H29      1.0000 0.88990  0.43590  0.16080  Biso   1.000  H
  H30      1.0000 0.61010  0.06410  0.16080  Biso   1.000  H
  H31      1.0000 0.38990  0.56410  0.33920  Biso   1.000  H
  H32      1.0000 0.11010  0.93590  0.33920  Biso   1.000  H
  H33      1.0000 0.03510  0.53650  0.82220  Biso   1.000  H
  H34      1.0000 0.46490  0.96350  0.82220  Biso   1.000  H
  H35      1.0000 0.53510  0.46350  0.67780  Biso   1.000  H
  H36      1.0000 0.96490  0.03650  0.67780  Biso   1.000  H
  H37      1.0000 0.96490  0.46350  0.17780  Biso   1.000  H
  H38      1.0000 0.53510  0.03650  0.17780  Biso   1.000  H
  H39      1.0000 0.46490  0.53650  0.32220  Biso   1.000  H
  H40      1.0000 0.03510  0.96350  0.32220  Biso   1.000  H
  H41      1.0000 0.04490  0.58620  0.88120  Biso   1.000  H
  H42      1.0000 0.45510  0.91380  0.88120  Biso   1.000  H
  H43      1.0000 0.54490  0.41380  0.61880  Biso   1.000  H
  H44      1.0000 0.95510  0.08620  0.61880  Biso   1.000  H
  H45      1.0000 0.95510  0.41380  0.11880  Biso   1.000  H
  H46      1.0000 0.54490  0.08620  0.11880  Biso   1.000  H
  H47      1.0000 0.45510  0.58620  0.38120  Biso   1.000  H
  H48      1.0000 0.04490  0.91380  0.38120  Biso   1.000  H
  C17      1.0000 0.90080  0.84550  0.87590  Biso   1.000  C
  C18      1.0000 0.59920  0.65450  0.87590  Biso   1.000  C
  C19      1.0000 0.40080  0.15450  0.62410  Biso   1.000  C
  C20      1.0000 0.09920  0.34550  0.62410  Biso   1.000  C
  C21      1.0000 0.09920  0.15450  0.12410  Biso   1.000  C
  C22      1.0000 0.40080  0.34550  0.12410  Biso   1.000  C
  C23      1.0000 0.59920  0.84550  0.37590  Biso   1.000  C
  C24      1.0000 0.90080  0.65450  0.37590  Biso   1.000  C
  H49      1.0000 0.85250  0.84290  0.88960  Biso   1.000  H
  H50      1.0000 0.64750  0.65710  0.88960  Biso   1.000  H
  H51      1.0000 0.35250  0.15710  0.61040  Biso   1.000  H
  H52      1.0000 0.14750  0.34290  0.61040  Biso   1.000  H
  H53      1.0000 0.14750  0.15710  0.11040  Biso   1.000  H
  H54      1.0000 0.35250  0.34290  0.11040  Biso   1.000  H
  H55      1.0000 0.64750  0.84290  0.38960  Biso   1.000  H
  H56      1.0000 0.85250  0.65710  0.38960  Biso   1.000  H
  H57      1.0000 0.90960  0.88820  0.85630  Biso   1.000  H
  H58      1.0000 0.59040  0.61180  0.85630  Biso   1.000  H
  H59      1.0000 0.40960  0.11180  0.64370  Biso   1.000  H
  H60      1.0000 0.09040  0.38820  0.64370  Biso   1.000  H
  H61      1.0000 0.09040  0.11180  0.14370  Biso   1.000  H
  H62      1.0000 0.40960  0.38820  0.14370  Biso   1.000  H
  H63      1.0000 0.59040  0.88820  0.35630  Biso   1.000  H
  H64      1.0000 0.90960  0.61180  0.35630  Biso   1.000  H
  H65      1.0000 0.93080  0.83970  0.91370  Biso   1.000  H
  H66      1.0000 0.56920  0.66030  0.91370  Biso   1.000  H
  H67      1.0000 0.43080  0.16030  0.58630  Biso   1.000  H
  H68      1.0000 0.06920  0.33970  0.58630  Biso   1.000  H
  H69      1.0000 0.06920  0.16030  0.08630  Biso   1.000  H
  H70      1.0000 0.43080  0.33970  0.08630  Biso   1.000  H
  H71      1.0000 0.56920  0.83970  0.41370  Biso   1.000  H
  H72      1.0000 0.93080  0.66030  0.41370  Biso   1.000  H
  C25      1.0000 0.06350  0.95950  0.79120  Biso   1.000  C
  C26      1.0000 0.43650  0.54050  0.79120  Biso   1.000  C
  C27      1.0000 0.56350  0.04050  0.70880  Biso   1.000  C
  C28      1.0000 0.93650  0.45950  0.70880  Biso   1.000  C
  C29      1.0000 0.93650  0.04050  0.20880  Biso   1.000  C
  C30      1.0000 0.56350  0.45950  0.20880  Biso   1.000  C
  C31      1.0000 0.43650  0.95950  0.29120  Biso   1.000  C
  C32      1.0000 0.06350  0.54050  0.29120  Biso   1.000  C
  H73      1.0000 0.05820  0.91560  0.80910  Biso   1.000  H
  H74      1.0000 0.44180  0.58440  0.80910  Biso   1.000  H
  H75      1.0000 0.55820  0.08440  0.69090  Biso   1.000  H
  H76      1.0000 0.94180  0.41560  0.69090  Biso   1.000  H
  H77      1.0000 0.94180  0.08440  0.19090  Biso   1.000  H
  H78      1.0000 0.55820  0.41560  0.19090  Biso   1.000  H
  H79      1.0000 0.44180  0.91560  0.30910  Biso   1.000  H
  H80      1.0000 0.05820  0.58440  0.30910  Biso   1.000  H
  H81      1.0000 0.02260  0.97060  0.76550  Biso   1.000  H
  H82      1.0000 0.47740  0.52940  0.76550  Biso   1.000  H
  H83      1.0000 0.52260  0.02940  0.73450  Biso   1.000  H
  H84      1.0000 0.97740  0.47060  0.73450  Biso   1.000  H
  H85      1.0000 0.97740  0.02940  0.23450  Biso   1.000  H
  H86      1.0000 0.52260  0.47060  0.23450  Biso   1.000  H
  H87      1.0000 0.47740  0.97060  0.26550  Biso   1.000  H
  H88      1.0000 0.02260  0.52940  0.26550  Biso   1.000  H
  H89      1.0000 0.06860  0.99080  0.82670  Biso   1.000  H
  H90      1.0000 0.43140  0.50920  0.82670  Biso   1.000  H
  H91      1.0000 0.56860  0.00920  0.67330  Biso   1.000  H
  H92      1.0000 0.93140  0.49080  0.67330  Biso   1.000  H
  H93      1.0000 0.93140  0.00920  0.17330  Biso   1.000  H
  H94      1.0000 0.56860  0.49080  0.17330  Biso   1.000  H
  H95      1.0000 0.43140  0.99080  0.32670  Biso   1.000  H
  H96      1.0000 0.06860  0.50920  0.32670  Biso   1.000  H
  C33      1.0000 0.89770  0.61260  0.57720  Biso   1.000  C
  C34      1.0000 0.60230  0.88740  0.57720  Biso   1.000  C
  C35      1.0000 0.39770  0.38740  0.92280  Biso   1.000  C
  C36      1.0000 0.10230  0.11260  0.92280  Biso   1.000  C
  C37      1.0000 0.10230  0.38740  0.42280  Biso   1.000  C
  C38      1.0000 0.39770  0.11260  0.42280  Biso   1.000  C
  C39      1.0000 0.60230  0.61260  0.07720  Biso   1.000  C
  C40      1.0000 0.89770  0.88740  0.07720  Biso   1.000  C
  H97      1.0000 0.84840  0.60230  0.57790  Biso   1.000  H
  H98      1.0000 0.65160  0.89770  0.57790  Biso   1.000  H
  H99      1.0000 0.34840  0.39770  0.92210  Biso   1.000  H
  H100     1.0000 0.15160  0.10230  0.92210  Biso   1.000  H
  H101     1.0000 0.15160  0.39770  0.42210  Biso   1.000  H
  H102     1.0000 0.34840  0.10230  0.42210  Biso   1.000  H
  H103     1.0000 0.65160  0.60230  0.07790  Biso   1.000  H
  H104     1.0000 0.84840  0.89770  0.07790  Biso   1.000  H
  H105     1.0000 0.92450  0.57210  0.57630  Biso   1.000  H
  H106     1.0000 0.57550  0.92790  0.57630  Biso   1.000  H
  H107     1.0000 0.42450  0.42790  0.92370  Biso   1.000  H
  H108     1.0000 0.07550  0.07210  0.92370  Biso   1.000  H
  H109     1.0000 0.07550  0.42790  0.42370  Biso   1.000  H
  H110     1.0000 0.42450  0.07210  0.42370  Biso   1.000  H
  H111     1.0000 0.57550  0.57210  0.07630  Biso   1.000  H
  H112     1.0000 0.92450  0.92790  0.07630  Biso   1.000  H
  H113     1.0000 0.90830  0.63850  0.53850  Biso   1.000  H
  H114     1.0000 0.59170  0.86150  0.53850  Biso   1.000  H
  H115     1.0000 0.40830  0.36150  0.96150  Biso   1.000  H
  H116     1.0000 0.09170  0.13850  0.96150  Biso   1.000  H
  H117     1.0000 0.09170  0.36150  0.46150  Biso   1.000  H
  H118     1.0000 0.40830  0.13850  0.46150  Biso   1.000  H
  H119     1.0000 0.59170  0.63850  0.03850  Biso   1.000  H
  H120     1.0000 0.90830  0.86150  0.03850  Biso   1.000  H
  C41      1.0000 0.38590  0.76250  0.48843  Biso   1.000  C
  C42      1.0000 0.11410  0.73750  0.48843  Biso   1.000  C
  C43      1.0000 0.88590  0.23750  0.01157  Biso   1.000  C
  C44      1.0000 0.61410  0.26250  0.01157  Biso   1.000  C
  C45      1.0000 0.61410  0.23750  0.51157  Biso   1.000  C
  C46      1.0000 0.88590  0.26250  0.51157  Biso   1.000  C
  C47      1.0000 0.11410  0.76250  0.98843  Biso   1.000  C
  C48      1.0000 0.38590  0.73750  0.98843  Biso   1.000  C
  C49      1.0000 0.32020  0.09450  0.83010  Biso   1.000  C
  C50      1.0000 0.17980  0.40550  0.83010  Biso   1.000  C
  C51      1.0000 0.82020  0.90550  0.66990  Biso   1.000  C
  C52      1.0000 0.67980  0.59450  0.66990  Biso   1.000  C
  C53      1.0000 0.67980  0.90550  0.16990  Biso   1.000  C
  C54      1.0000 0.82020  0.59450  0.16990  Biso   1.000  C
  C55      1.0000 0.17980  0.09450  0.33010  Biso   1.000  C
  C56      1.0000 0.32020  0.40550  0.33010  Biso   1.000  C
  H121     1.0000 0.31630  0.14170  0.83650  Biso   1.000  H
  H122     1.0000 0.18370  0.35830  0.83650  Biso   1.000  H
  H123     1.0000 0.81630  0.85830  0.66350  Biso   1.000  H
  H124     1.0000 0.68370  0.64170  0.66350  Biso   1.000  H
  H125     1.0000 0.68370  0.85830  0.16350  Biso   1.000  H
  H126     1.0000 0.81630  0.64170  0.16350  Biso   1.000  H
  H127     1.0000 0.18370  0.14170  0.33650  Biso   1.000  H
  H128     1.0000 0.31630  0.35830  0.33650  Biso   1.000  H
  H129     1.0000 0.36900  0.08220  0.82860  Biso   1.000  H
  H130     1.0000 0.13100  0.41780  0.82860  Biso   1.000  H
  H131     1.0000 0.86900  0.91780  0.67140  Biso   1.000  H
  H132     1.0000 0.63100  0.58220  0.67140  Biso   1.000  H
  H133     1.0000 0.63100  0.91780  0.17140  Biso   1.000  H
  H134     1.0000 0.86900  0.58220  0.17140  Biso   1.000  H
  H135     1.0000 0.13100  0.08220  0.32860  Biso   1.000  H
  H136     1.0000 0.36900  0.41780  0.32860  Biso   1.000  H
  H137     1.0000 0.29760  0.07190  0.86620  Biso   1.000  H
  H138     1.0000 0.20240  0.42810  0.86620  Biso   1.000  H
  H139     1.0000 0.79760  0.92810  0.63380  Biso   1.000  H
  H140     1.0000 0.70240  0.57190  0.63380  Biso   1.000  H
  H141     1.0000 0.70240  0.92810  0.13380  Biso   1.000  H
  H142     1.0000 0.79760  0.57190  0.13380  Biso   1.000  H
  H143     1.0000 0.20240  0.07190  0.36620  Biso   1.000  H
  H144     1.0000 0.29760  0.42810  0.36620  Biso   1.000  H
  C57      1.0000 0.24905  0.87861  0.41481  Biso   1.000  C
  C58      1.0000 0.25095  0.62139  0.41481  Biso   1.000  C
  C59      1.0000 0.74905  0.12139  0.08519  Biso   1.000  C
  C60      1.0000 0.75095  0.37861  0.08519  Biso   1.000  C
  C61      1.0000 0.75095  0.12139  0.58519  Biso   1.000  C
  C62      1.0000 0.74905  0.37861  0.58519  Biso   1.000  C
  C63      1.0000 0.25095  0.87861  0.91481  Biso   1.000  C
  C64      1.0000 0.24905  0.62139  0.91481  Biso   1.000  C
  C65      1.0000 0.01880  0.89070  0.61310  Biso   1.000  C
  C66      1.0000 0.48120  0.60930  0.61310  Biso   1.000  C
  C67      1.0000 0.51880  0.10930  0.88690  Biso   1.000  C
  C68      1.0000 0.98120  0.39070  0.88690  Biso   1.000  C
  C69      1.0000 0.98120  0.10930  0.38690  Biso   1.000  C
  C70      1.0000 0.51880  0.39070  0.38690  Biso   1.000  C
  C71      1.0000 0.48120  0.89070  0.11310  Biso   1.000  C
  C72      1.0000 0.01880  0.60930  0.11310  Biso   1.000  C
  H145     1.0000 0.06650  0.90350  0.60440  Biso   1.000  H
  H146     1.0000 0.43350  0.59650  0.60440  Biso   1.000  H
  H147     1.0000 0.56650  0.09650  0.89560  Biso   1.000  H
  H148     1.0000 0.93350  0.40350  0.89560  Biso   1.000  H
  H149     1.0000 0.93350  0.09650  0.39560  Biso   1.000  H
  H150     1.0000 0.56650  0.40350  0.39560  Biso   1.000  H
  H151     1.0000 0.43350  0.90350  0.10440  Biso   1.000  H
  H152     1.0000 0.06650  0.59650  0.10440  Biso   1.000  H
  H153     1.0000 0.99540  0.92550  0.63720  Biso   1.000  H
  H154     1.0000 0.50460  0.57450  0.63720  Biso   1.000  H
  H155     1.0000 0.49540  0.07450  0.86280  Biso   1.000  H
  H156     1.0000 0.00460  0.42550  0.86280  Biso   1.000  H
  H157     1.0000 0.00460  0.07450  0.36280  Biso   1.000  H
  H158     1.0000 0.49540  0.42550  0.36280  Biso   1.000  H
  H159     1.0000 0.50460  0.92550  0.13720  Biso   1.000  H
  H160     1.0000 0.99540  0.57450  0.13720  Biso   1.000  H
  H161     1.0000 0.99470  0.88310  0.57200  Biso   1.000  H
  H162     1.0000 0.50530  0.61690  0.57200  Biso   1.000  H
  H163     1.0000 0.49470  0.11690  0.92800  Biso   1.000  H
  H164     1.0000 0.00530  0.38310  0.92800  Biso   1.000  H
  H165     1.0000 0.00530  0.11690  0.42800  Biso   1.000  H
  H166     1.0000 0.49470  0.38310  0.42800  Biso   1.000  H
  H167     1.0000 0.50530  0.88310  0.07200  Biso   1.000  H
  H168     1.0000 0.99470  0.61690  0.07200  Biso   1.000  H
  C73      1.0000 0.09780  0.03680  0.50750  Biso   1.000  C
  C74      1.0000 0.40220  0.46320  0.50750  Biso   1.000  C
  C75      1.0000 0.59780  0.96320  0.99250  Biso   1.000  C
  C76      1.0000 0.90220  0.53680  0.99250  Biso   1.000  C
  C77      1.0000 0.90220  0.96320  0.49250  Biso   1.000  C
  C78      1.0000 0.59780  0.53680  0.49250  Biso   1.000  C
  C79      1.0000 0.40220  0.03680  0.00750  Biso   1.000  C
  C80      1.0000 0.09780  0.46320  0.00750  Biso   1.000  C
  H169     1.0000 0.07920  0.07990  0.49710  Biso   1.000  H
  H170     1.0000 0.42080  0.42010  0.49710  Biso   1.000  H
  H171     1.0000 0.57920  0.92010  0.00290  Biso   1.000  H
  H172     1.0000 0.92080  0.57990  0.00290  Biso   1.000  H
  H173     1.0000 0.92080  0.92010  0.50290  Biso   1.000  H
  H174     1.0000 0.57920  0.57990  0.50290  Biso   1.000  H
  H175     1.0000 0.42080  0.07990  0.99710  Biso   1.000  H
  H176     1.0000 0.07920  0.42010  0.99710  Biso   1.000  H
  H177     1.0000 0.05970  0.00660  0.51590  Biso   1.000  H
  H178     1.0000 0.44030  0.49340  0.51590  Biso   1.000  H
  H179     1.0000 0.55970  0.99340  0.98410  Biso   1.000  H
  H180     1.0000 0.94030  0.50660  0.98410  Biso   1.000  H
  H181     1.0000 0.94030  0.99340  0.48410  Biso   1.000  H
  H182     1.0000 0.55970  0.50660  0.48410  Biso   1.000  H
  H183     1.0000 0.44030  0.00660  0.01590  Biso   1.000  H
  H184     1.0000 0.05970  0.49340  0.01590  Biso   1.000  H
  H185     1.0000 0.12520  0.02080  0.47090  Biso   1.000  H
  H186     1.0000 0.37480  0.47920  0.47090  Biso   1.000  H
  H187     1.0000 0.62520  0.97920  0.02910  Biso   1.000  H
  H188     1.0000 0.87480  0.52080  0.02910  Biso   1.000  H
  H189     1.0000 0.87480  0.97920  0.52910  Biso   1.000  H
  H190     1.0000 0.62520  0.52080  0.52910  Biso   1.000  H
  H191     1.0000 0.37480  0.02080  0.97090  Biso   1.000  H
  H192     1.0000 0.12520  0.47920  0.97090  Biso   1.000  H
  C81      1.0000 0.14390  0.04160  0.56837  Biso   1.000  C
  C82      1.0000 0.35610  0.45840  0.56837  Biso   1.000  C
  C83      1.0000 0.64390  0.95840  0.93163  Biso   1.000  C
  C84      1.0000 0.85610  0.54160  0.93163  Biso   1.000  C
  C85      1.0000 0.85610  0.95840  0.43163  Biso   1.000  C
  C86      1.0000 0.64390  0.54160  0.43163  Biso   1.000  C
  C87      1.0000 0.35610  0.04160  0.06837  Biso   1.000  C
  C88      1.0000 0.14390  0.45840  0.06837  Biso   1.000  C
  C89      1.0000 0.91566  0.79191  0.82608  Biso   1.000  C
  C90      1.0000 0.58434  0.70809  0.82608  Biso   1.000  C
  C91      1.0000 0.41566  0.20809  0.67392  Biso   1.000  C
  C92      1.0000 0.08434  0.29191  0.67392  Biso   1.000  C
  C93      1.0000 0.08434  0.20809  0.17392  Biso   1.000  C
  C94      1.0000 0.41566  0.29191  0.17392  Biso   1.000  C
  C95      1.0000 0.58434  0.79191  0.32608  Biso   1.000  C
  C96      1.0000 0.91566  0.70809  0.32608  Biso   1.000  C
  C97      1.0000 0.12778  0.96195  0.74754  Biso   1.000  C
  C98      1.0000 0.37222  0.53805  0.74754  Biso   1.000  C
  C99      1.0000 0.62778  0.03805  0.75246  Biso   1.000  C
  C100     1.0000 0.87222  0.46195  0.75246  Biso   1.000  C
  C101     1.0000 0.87222  0.03805  0.25246  Biso   1.000  C
  C102     1.0000 0.62778  0.46195  0.25246  Biso   1.000  C
  C103     1.0000 0.37222  0.96195  0.24754  Biso   1.000  C
  C104     1.0000 0.12778  0.53805  0.24754  Biso   1.000  C
  C105     1.0000 0.34313  0.95579  0.61044  Biso   1.000  C
  C106     1.0000 0.15687  0.54421  0.61044  Biso   1.000  C
  C107     1.0000 0.84313  0.04421  0.88956  Biso   1.000  C
  C108     1.0000 0.65687  0.45579  0.88956  Biso   1.000  C
  C109     1.0000 0.65687  0.04421  0.38956  Biso   1.000  C
  C110     1.0000 0.84313  0.45579  0.38956  Biso   1.000  C
  C111     1.0000 0.15687  0.95579  0.11044  Biso   1.000  C
  C112     1.0000 0.34313  0.54421  0.11044  Biso   1.000  C
  C113     1.0000 0.91650  0.65176  0.63835  Biso   1.000  C
  C114     1.0000 0.58350  0.84824  0.63835  Biso   1.000  C
  C115     1.0000 0.41650  0.34824  0.86165  Biso   1.000  C
  C116     1.0000 0.08350  0.15176  0.86165  Biso   1.000  C
  C117     1.0000 0.08350  0.34824  0.36165  Biso   1.000  C
  C118     1.0000 0.41650  0.15176  0.36165  Biso   1.000  C
  C119     1.0000 0.58350  0.65176  0.13835  Biso   1.000  C
  C120     1.0000 0.91650  0.84824  0.13835  Biso   1.000  C
  C121     1.0000 0.04902  0.63184  0.79145  Biso   1.000  C
  C122     1.0000 0.45098  0.86816  0.79145  Biso   1.000  C
  C123     1.0000 0.54902  0.36816  0.70855  Biso   1.000  C
  C124     1.0000 0.95098  0.13184  0.70855  Biso   1.000  C
  C125     1.0000 0.95098  0.36816  0.20855  Biso   1.000  C
  C126     1.0000 0.54902  0.13184  0.20855  Biso   1.000  C
  C127     1.0000 0.45098  0.63184  0.29145  Biso   1.000  C
  C128     1.0000 0.04902  0.86816  0.29145  Biso   1.000  C
  C129     1.0000 0.25910  0.95200  0.42230  Biso   1.000  C
  C130     1.0000 0.24090  0.54800  0.42230  Biso   1.000  C
  C131     1.0000 0.75910  0.04800  0.07770  Biso   1.000  C
  C132     1.0000 0.74090  0.45200  0.07770  Biso   1.000  C
  C133     1.0000 0.74090  0.04800  0.57770  Biso   1.000  C
  C134     1.0000 0.75910  0.45200  0.57770  Biso   1.000  C
  C135     1.0000 0.24090  0.95200  0.92230  Biso   1.000  C
  C136     1.0000 0.25910  0.54800  0.92230  Biso   1.000  C
  H193     1.0000 0.26320  0.97200  0.37930  Biso   1.000  H
  H194     1.0000 0.23680  0.52800  0.37930  Biso   1.000  H
  H195     1.0000 0.76320  0.02800  0.12070  Biso   1.000  H
  H196     1.0000 0.73680  0.47200  0.12070  Biso   1.000  H
  H197     1.0000 0.73680  0.02800  0.62070  Biso   1.000  H
  H198     1.0000 0.76320  0.47200  0.62070  Biso   1.000  H
  H199     1.0000 0.23680  0.97200  0.87930  Biso   1.000  H
  H200     1.0000 0.26320  0.52800  0.87930  Biso   1.000  H
  H201     1.0000 0.30110  0.96040  0.44730  Biso   1.000  H
  H202     1.0000 0.19890  0.53960  0.44730  Biso   1.000  H
  H203     1.0000 0.80110  0.03960  0.05270  Biso   1.000  H
  H204     1.0000 0.69890  0.46040  0.05270  Biso   1.000  H
  H205     1.0000 0.69890  0.03960  0.55270  Biso   1.000  H
  H206     1.0000 0.80110  0.46040  0.55270  Biso   1.000  H
  H207     1.0000 0.19890  0.96040  0.94730  Biso   1.000  H
  H208     1.0000 0.30110  0.53960  0.94730  Biso   1.000  H
  H209     1.0000 0.21930  0.97060  0.44510  Biso   1.000  H
  H210     1.0000 0.28070  0.52940  0.44510  Biso   1.000  H
  H211     1.0000 0.71930  0.02940  0.05490  Biso   1.000  H
  H212     1.0000 0.78070  0.47060  0.05490  Biso   1.000  H
  H213     1.0000 0.78070  0.02940  0.55490  Biso   1.000  H
  H214     1.0000 0.71930  0.47060  0.55490  Biso   1.000  H
  H215     1.0000 0.28070  0.97060  0.94510  Biso   1.000  H
  H216     1.0000 0.21930  0.52940  0.94510  Biso   1.000  H
  C137     1.0000 0.01816  0.82809  0.65353  Biso   1.000  C
  C138     1.0000 0.48184  0.67191  0.65353  Biso   1.000  C
  C139     1.0000 0.51816  0.17191  0.84647  Biso   1.000  C
  C140     1.0000 0.98184  0.32809  0.84647  Biso   1.000  C
  C141     1.0000 0.98184  0.17191  0.34647  Biso   1.000  C
  C142     1.0000 0.51816  0.32809  0.34647  Biso   1.000  C
  C143     1.0000 0.48184  0.82809  0.15353  Biso   1.000  C
  C144     1.0000 0.01816  0.67191  0.15353  Biso   1.000  C
  C145     1.0000 0.28527  0.07554  0.76625  Biso   1.000  C
  C146     1.0000 0.21473  0.42446  0.76625  Biso   1.000  C
  C147     1.0000 0.78527  0.92446  0.73375  Biso   1.000  C
  C148     1.0000 0.71473  0.57554  0.73375  Biso   1.000  C
  C149     1.0000 0.71473  0.92446  0.23375  Biso   1.000  C
  C150     1.0000 0.78527  0.57554  0.23375  Biso   1.000  C
  C151     1.0000 0.21473  0.07554  0.26625  Biso   1.000  C
  C152     1.0000 0.28527  0.42446  0.26625  Biso   1.000  C
  C153     1.0000 0.40900  0.95160  0.56840  Biso   1.000  C
  C154     1.0000 0.09100  0.54840  0.56840  Biso   1.000  C
  C155     1.0000 0.90900  0.04840  0.93160  Biso   1.000  C
  C156     1.0000 0.59100  0.45160  0.93160  Biso   1.000  C
  C157     1.0000 0.59100  0.04840  0.43160  Biso   1.000  C
  C158     1.0000 0.90900  0.45160  0.43160  Biso   1.000  C
  C159     1.0000 0.09100  0.95160  0.06840  Biso   1.000  C
  C160     1.0000 0.40900  0.54840  0.06840  Biso   1.000  C
  H217     1.0000 0.42790  0.90740  0.57070  Biso   1.000  H
  H218     1.0000 0.07210  0.59260  0.57070  Biso   1.000  H
  H219     1.0000 0.92790  0.09260  0.92930  Biso   1.000  H
  H220     1.0000 0.57210  0.40740  0.92930  Biso   1.000  H
  H221     1.0000 0.57210  0.09260  0.42930  Biso   1.000  H
  H222     1.0000 0.92790  0.40740  0.42930  Biso   1.000  H
  H223     1.0000 0.07210  0.90740  0.07070  Biso   1.000  H
  H224     1.0000 0.42790  0.59260  0.07070  Biso   1.000  H
  H225     1.0000 0.44330  0.98270  0.58470  Biso   1.000  H
  H226     1.0000 0.05670  0.51730  0.58470  Biso   1.000  H
  H227     1.0000 0.94330  0.01730  0.91530  Biso   1.000  H
  H228     1.0000 0.55670  0.48270  0.91530  Biso   1.000  H
  H229     1.0000 0.55670  0.01730  0.41530  Biso   1.000  H
  H230     1.0000 0.94330  0.48270  0.41530  Biso   1.000  H
  H231     1.0000 0.05670  0.98270  0.08470  Biso   1.000  H
  H232     1.0000 0.44330  0.51730  0.08470  Biso   1.000  H
  H233     1.0000 0.39760  0.96210  0.52330  Biso   1.000  H
  H234     1.0000 0.10240  0.53790  0.52330  Biso   1.000  H
  H235     1.0000 0.89760  0.03790  0.97670  Biso   1.000  H
  H236     1.0000 0.60240  0.46210  0.97670  Biso   1.000  H
  H237     1.0000 0.60240  0.03790  0.47670  Biso   1.000  H
  H238     1.0000 0.89760  0.46210  0.47670  Biso   1.000  H
  H239     1.0000 0.10240  0.96210  0.02330  Biso   1.000  H
  H240     1.0000 0.39760  0.53790  0.02330  Biso   1.000  H
  N1       1.0000 0.25000  0.25000  0.92420  Biso   1.000  N
  N2       1.0000 0.75000  0.75000  0.57580  Biso   1.000  N
  N3       1.0000 0.75000  0.75000  0.07580  Biso   1.000  N
  N4       1.0000 0.25000  0.25000  0.42420  Biso   1.000  N
  C161     1.0000 0.25000  0.25000  0.04620  Biso   1.000  C
  C162     1.0000 0.75000  0.75000  0.45380  Biso   1.000  C
  C163     1.0000 0.75000  0.75000  0.95380  Biso   1.000  C
  C164     1.0000 0.25000  0.25000  0.54620  Biso   1.000  C
  C165     1.0000 0.25000  0.25000  0.98260  Biso   1.000  C
  C166     1.0000 0.75000  0.75000  0.51740  Biso   1.000  C
  C167     1.0000 0.75000  0.75000  0.01740  Biso   1.000  C
  C168     1.0000 0.25000  0.25000  0.48260  Biso   1.000  C
  Cl1      1.0000 0.25000  0.75000  0.70229  Biso   1.000  Cl
  Cl2      1.0000 0.75000  0.25000  0.79771  Biso   1.000  Cl
  Cl3      1.0000 0.75000  0.25000  0.29771  Biso   1.000  Cl
  Cl4      1.0000 0.25000  0.75000  0.20229  Biso   1.000  Cl
  H241     1.0000 0.26000  0.28900  0.06550  Biso   1.000  H
  H242     1.0000 0.24000  0.21100  0.06550  Biso   1.000  H
  H243     1.0000 0.76000  0.71100  0.43450  Biso   1.000  H
  H244     1.0000 0.74000  0.78900  0.43450  Biso   1.000  H
  H245     1.0000 0.74000  0.71100  0.93450  Biso   1.000  H
  H246     1.0000 0.76000  0.78900  0.93450  Biso   1.000  H
  H247     1.0000 0.24000  0.28900  0.56550  Biso   1.000  H
  H248     1.0000 0.26000  0.21100  0.56550  Biso   1.000  H
  H249     1.0000 0.27900  0.22200  0.06580  Biso   1.000  H
  H250     1.0000 0.22100  0.27800  0.06580  Biso   1.000  H
  H251     1.0000 0.77900  0.77800  0.43420  Biso   1.000  H
  H252     1.0000 0.72100  0.72200  0.43420  Biso   1.000  H
  H253     1.0000 0.72100  0.77800  0.93420  Biso   1.000  H
  H254     1.0000 0.77900  0.72200  0.93420  Biso   1.000  H
  H255     1.0000 0.22100  0.22200  0.56580  Biso   1.000  H
  H256     1.0000 0.27900  0.27800  0.56580  Biso   1.000  H
  H257     1.0000 0.20800  0.24000  0.06430  Biso   1.000  H
  H258     1.0000 0.29200  0.26000  0.06430  Biso   1.000  H
  H259     1.0000 0.70800  0.76000  0.43570  Biso   1.000  H
  H260     1.0000 0.79200  0.74000  0.43570  Biso   1.000  H
  H261     1.0000 0.79200  0.76000  0.93570  Biso   1.000  H
  H262     1.0000 0.70800  0.74000  0.93570  Biso   1.000  H
  H263     1.0000 0.29200  0.24000  0.56430  Biso   1.000  H
  H264     1.0000 0.20800  0.26000  0.56430  Biso   1.000  H
