data_image0
_cell_length_a       13.259
_cell_length_b       20.591
_cell_length_c       24.931
_cell_angle_alpha    90
_cell_angle_beta     96.201
_cell_angle_gamma    90

_symmetry_space_group_name_H-M    "P 1"
_symmetry_int_tables_number       1

loop_
  _symmetry_equiv_pos_as_xyz
  'x, y, z'

loop_
  _atom_site_label
  _atom_site_occupancy
  _atom_site_fract_x
  _atom_site_fract_y
  _atom_site_fract_z
  _atom_site_thermal_displace_type
  _atom_site_B_iso_or_equiv
  _atom_site_type_symbol
  Cu1      1.0000 0.23558  0.01525  0.71294  Biso   1.000  Cu
  Cu2      1.0000 0.73558  0.51525  0.71294  Biso   1.000  Cu
  Cu3      1.0000 0.76442  0.01525  0.78706  Biso   1.000  Cu
  Cu4      1.0000 0.26442  0.51525  0.78706  Biso   1.000  Cu
  Cu5      1.0000 0.76442  0.98475  0.28706  Biso   1.000  Cu
  Cu6      1.0000 0.26442  0.48475  0.28706  Biso   1.000  Cu
  Cu7      1.0000 0.23558  0.98475  0.21294  Biso   1.000  Cu
  Cu8      1.0000 0.73558  0.48475  0.21294  Biso   1.000  Cu
  Cu9      1.0000 0.23665  0.80388  0.71525  Biso   1.000  Cu
  Cu10     1.0000 0.73665  0.30388  0.71525  Biso   1.000  Cu
  Cu11     1.0000 0.76335  0.80388  0.78475  Biso   1.000  Cu
  Cu12     1.0000 0.26335  0.30388  0.78475  Biso   1.000  Cu
  Cu13     1.0000 0.76335  0.19612  0.28475  Biso   1.000  Cu
  Cu14     1.0000 0.26335  0.69612  0.28475  Biso   1.000  Cu
  Cu15     1.0000 0.23665  0.19612  0.21525  Biso   1.000  Cu
  Cu16     1.0000 0.73665  0.69612  0.21525  Biso   1.000  Cu
  O1       1.0000 0.36260  0.98330  0.75100  Biso   1.000  O
  O2       1.0000 0.86260  0.48330  0.75100  Biso   1.000  O
  O3       1.0000 0.63740  0.98330  0.74900  Biso   1.000  O
  O4       1.0000 0.13740  0.48330  0.74900  Biso   1.000  O
  O5       1.0000 0.63740  0.01670  0.24900  Biso   1.000  O
  O6       1.0000 0.13740  0.51670  0.24900  Biso   1.000  O
  O7       1.0000 0.36260  0.01670  0.25100  Biso   1.000  O
  O8       1.0000 0.86260  0.51670  0.25100  Biso   1.000  O
  O9       1.0000 0.44770  0.98240  0.83300  Biso   1.000  O
  O10      1.0000 0.94770  0.48240  0.83300  Biso   1.000  O
  O11      1.0000 0.55230  0.98240  0.66700  Biso   1.000  O
  O12      1.0000 0.05230  0.48240  0.66700  Biso   1.000  O
  O13      1.0000 0.55230  0.01760  0.16700  Biso   1.000  O
  O14      1.0000 0.05230  0.51760  0.16700  Biso   1.000  O
  O15      1.0000 0.44770  0.01760  0.33300  Biso   1.000  O
  O16      1.0000 0.94770  0.51760  0.33300  Biso   1.000  O
  O17      1.0000 0.27620  0.03080  0.87400  Biso   1.000  O
  O18      1.0000 0.77620  0.53080  0.87400  Biso   1.000  O
  O19      1.0000 0.72380  0.03080  0.62600  Biso   1.000  O
  O20      1.0000 0.22380  0.53080  0.62600  Biso   1.000  O
  O21      1.0000 0.72380  0.96920  0.12600  Biso   1.000  O
  O22      1.0000 0.22380  0.46920  0.12600  Biso   1.000  O
  O23      1.0000 0.27620  0.96920  0.37400  Biso   1.000  O
  O24      1.0000 0.77620  0.46920  0.37400  Biso   1.000  O
  O25      1.0000 0.90430  0.07510  0.93020  Biso   1.000  O
  O26      1.0000 0.40430  0.57510  0.93020  Biso   1.000  O
  O27      1.0000 0.09570  0.07510  0.56980  Biso   1.000  O
  O28      1.0000 0.59570  0.57510  0.56980  Biso   1.000  O
  O29      1.0000 0.09570  0.92490  0.06980  Biso   1.000  O
  O30      1.0000 0.59570  0.42490  0.06980  Biso   1.000  O
  O31      1.0000 0.90430  0.92490  0.43020  Biso   1.000  O
  O32      1.0000 0.40430  0.42490  0.43020  Biso   1.000  O
  O33      1.0000 0.73500  0.00330  0.94400  Biso   1.000  O
  O34      1.0000 0.23500  0.50330  0.94400  Biso   1.000  O
  O35      1.0000 0.26500  0.00330  0.55600  Biso   1.000  O
  O36      1.0000 0.76500  0.50330  0.55600  Biso   1.000  O
  O37      1.0000 0.26500  0.99670  0.05600  Biso   1.000  O
  O38      1.0000 0.76500  0.49670  0.05600  Biso   1.000  O
  O39      1.0000 0.73500  0.99670  0.44400  Biso   1.000  O
  O40      1.0000 0.23500  0.49670  0.44400  Biso   1.000  O
  O41      1.0000 0.70310  0.99270  0.85480  Biso   1.000  O
  O42      1.0000 0.20310  0.49270  0.85480  Biso   1.000  O
  O43      1.0000 0.29690  0.99270  0.64520  Biso   1.000  O
  O44      1.0000 0.79690  0.49270  0.64520  Biso   1.000  O
  O45      1.0000 0.29690  0.00730  0.14520  Biso   1.000  O
  O46      1.0000 0.79690  0.50730  0.14520  Biso   1.000  O
  O47      1.0000 0.70310  0.00730  0.35480  Biso   1.000  O
  O48      1.0000 0.20310  0.50730  0.35480  Biso   1.000  O
  O49      1.0000 0.30290  0.82420  0.64930  Biso   1.000  O
  O50      1.0000 0.80290  0.32420  0.64930  Biso   1.000  O
  O51      1.0000 0.69710  0.82420  0.85070  Biso   1.000  O
  O52      1.0000 0.19710  0.32420  0.85070  Biso   1.000  O
  O53      1.0000 0.69710  0.17580  0.35070  Biso   1.000  O
  O54      1.0000 0.19710  0.67580  0.35070  Biso   1.000  O
  O55      1.0000 0.30290  0.17580  0.14930  Biso   1.000  O
  O56      1.0000 0.80290  0.67580  0.14930  Biso   1.000  O
  O57      1.0000 0.28580  0.80410  0.56110  Biso   1.000  O
  O58      1.0000 0.78580  0.30410  0.56110  Biso   1.000  O
  O59      1.0000 0.71420  0.80410  0.93890  Biso   1.000  O
  O60      1.0000 0.21420  0.30410  0.93890  Biso   1.000  O
  O61      1.0000 0.71420  0.19590  0.43890  Biso   1.000  O
  O62      1.0000 0.21420  0.69590  0.43890  Biso   1.000  O
  O63      1.0000 0.28580  0.19590  0.06110  Biso   1.000  O
  O64      1.0000 0.78580  0.69590  0.06110  Biso   1.000  O
  O65      1.0000 0.11260  0.73410  0.57220  Biso   1.000  O
  O66      1.0000 0.61260  0.23410  0.57220  Biso   1.000  O
  O67      1.0000 0.88740  0.73410  0.92780  Biso   1.000  O
  O68      1.0000 0.38740  0.23410  0.92780  Biso   1.000  O
  O69      1.0000 0.88740  0.26590  0.42780  Biso   1.000  O
  O70      1.0000 0.38740  0.76590  0.42780  Biso   1.000  O
  O71      1.0000 0.11260  0.26590  0.07220  Biso   1.000  O
  O72      1.0000 0.61260  0.76590  0.07220  Biso   1.000  O
  O73      1.0000 0.73220  0.79760  0.62320  Biso   1.000  O
  O74      1.0000 0.23220  0.29760  0.62320  Biso   1.000  O
  O75      1.0000 0.26780  0.79760  0.87680  Biso   1.000  O
  O76      1.0000 0.76780  0.29760  0.87680  Biso   1.000  O
  O77      1.0000 0.26780  0.20240  0.37680  Biso   1.000  O
  O78      1.0000 0.76780  0.70240  0.37680  Biso   1.000  O
  O79      1.0000 0.73220  0.20240  0.12320  Biso   1.000  O
  O80      1.0000 0.23220  0.70240  0.12320  Biso   1.000  O
  O81      1.0000 0.55650  0.84080  0.66260  Biso   1.000  O
  O82      1.0000 0.05650  0.34080  0.66260  Biso   1.000  O
  O83      1.0000 0.44350  0.84080  0.83740  Biso   1.000  O
  O84      1.0000 0.94350  0.34080  0.83740  Biso   1.000  O
  O85      1.0000 0.44350  0.15920  0.33740  Biso   1.000  O
  O86      1.0000 0.94350  0.65920  0.33740  Biso   1.000  O
  O87      1.0000 0.55650  0.15920  0.16260  Biso   1.000  O
  O88      1.0000 0.05650  0.65920  0.16260  Biso   1.000  O
  O89      1.0000 0.63850  0.83810  0.74540  Biso   1.000  O
  O90      1.0000 0.13850  0.33810  0.74540  Biso   1.000  O
  O91      1.0000 0.36150  0.83810  0.75460  Biso   1.000  O
  O92      1.0000 0.86150  0.33810  0.75460  Biso   1.000  O
  O93      1.0000 0.36150  0.16190  0.25460  Biso   1.000  O
  O94      1.0000 0.86150  0.66190  0.25460  Biso   1.000  O
  O95      1.0000 0.63850  0.16190  0.24540  Biso   1.000  O
  O96      1.0000 0.13850  0.66190  0.24540  Biso   1.000  O
  N1       1.0000 0.21130  0.04710  0.78560  Biso   1.000  N
  N2       1.0000 0.71130  0.54710  0.78560  Biso   1.000  N
  N3       1.0000 0.78870  0.04710  0.71440  Biso   1.000  N
  N4       1.0000 0.28870  0.54710  0.71440  Biso   1.000  N
  N5       1.0000 0.78870  0.95290  0.21440  Biso   1.000  N
  N6       1.0000 0.28870  0.45290  0.21440  Biso   1.000  N
  N7       1.0000 0.21130  0.95290  0.28560  Biso   1.000  N
  N8       1.0000 0.71130  0.45290  0.28560  Biso   1.000  N
  N9       1.0000 0.86660  0.05800  0.83820  Biso   1.000  N
  N10      1.0000 0.36660  0.55800  0.83820  Biso   1.000  N
  N11      1.0000 0.13340  0.05800  0.66180  Biso   1.000  N
  N12      1.0000 0.63340  0.55800  0.66180  Biso   1.000  N
  N13      1.0000 0.13340  0.94200  0.16180  Biso   1.000  N
  N14      1.0000 0.63340  0.44200  0.16180  Biso   1.000  N
  N15      1.0000 0.86660  0.94200  0.33820  Biso   1.000  N
  N16      1.0000 0.36660  0.44200  0.33820  Biso   1.000  N
  N17      1.0000 0.13800  0.75870  0.66360  Biso   1.000  N
  N18      1.0000 0.63800  0.25870  0.66360  Biso   1.000  N
  N19      1.0000 0.86200  0.75870  0.83640  Biso   1.000  N
  N20      1.0000 0.36200  0.25870  0.83640  Biso   1.000  N
  N21      1.0000 0.86200  0.24130  0.33640  Biso   1.000  N
  N22      1.0000 0.36200  0.74130  0.33640  Biso   1.000  N
  N23      1.0000 0.13800  0.24130  0.16360  Biso   1.000  N
  N24      1.0000 0.63800  0.74130  0.16360  Biso   1.000  N
  N25      1.0000 0.79020  0.77470  0.71210  Biso   1.000  N
  N26      1.0000 0.29020  0.27470  0.71210  Biso   1.000  N
  N27      1.0000 0.20980  0.77470  0.78790  Biso   1.000  N
  N28      1.0000 0.70980  0.27470  0.78790  Biso   1.000  N
  N29      1.0000 0.20980  0.22530  0.28790  Biso   1.000  N
  N30      1.0000 0.70980  0.72530  0.28790  Biso   1.000  N
  N31      1.0000 0.79020  0.22530  0.21210  Biso   1.000  N
  N32      1.0000 0.29020  0.72530  0.21210  Biso   1.000  N
  N33      1.0000 0.14880  0.90920  0.70360  Biso   1.000  N
  N34      1.0000 0.64880  0.40920  0.70360  Biso   1.000  N
  N35      1.0000 0.85120  0.90920  0.79640  Biso   1.000  N
  N36      1.0000 0.35120  0.40920  0.79640  Biso   1.000  N
  N37      1.0000 0.85120  0.09080  0.29640  Biso   1.000  N
  N38      1.0000 0.35120  0.59080  0.29640  Biso   1.000  N
  N39      1.0000 0.14880  0.09080  0.20360  Biso   1.000  N
  N40      1.0000 0.64880  0.59080  0.20360  Biso   1.000  N
  N41      1.0000 0.11540  0.90750  0.65630  Biso   1.000  N
  N42      1.0000 0.61540  0.40750  0.65630  Biso   1.000  N
  N43      1.0000 0.88460  0.90750  0.84370  Biso   1.000  N
  N44      1.0000 0.38460  0.40750  0.84370  Biso   1.000  N
  N45      1.0000 0.88460  0.09250  0.34370  Biso   1.000  N
  N46      1.0000 0.38460  0.59250  0.34370  Biso   1.000  N
  N47      1.0000 0.11540  0.09250  0.15630  Biso   1.000  N
  N48      1.0000 0.61540  0.59250  0.15630  Biso   1.000  N
  N49      1.0000 0.08760  0.90610  0.60840  Biso   1.000  N
  N50      1.0000 0.58760  0.40610  0.60840  Biso   1.000  N
  N51      1.0000 0.91240  0.90610  0.89160  Biso   1.000  N
  N52      1.0000 0.41240  0.40610  0.89160  Biso   1.000  N
  N53      1.0000 0.91240  0.09390  0.39160  Biso   1.000  N
  N54      1.0000 0.41240  0.59390  0.39160  Biso   1.000  N
  N55      1.0000 0.08760  0.09390  0.10840  Biso   1.000  N
  N56      1.0000 0.58760  0.59390  0.10840  Biso   1.000  N
  C1       1.0000 0.37140  0.99420  0.80190  Biso   1.000  C
  C2       1.0000 0.87140  0.49420  0.80190  Biso   1.000  C
  C3       1.0000 0.62860  0.99420  0.69810  Biso   1.000  C
  C4       1.0000 0.12860  0.49420  0.69810  Biso   1.000  C
  C5       1.0000 0.62860  0.00580  0.19810  Biso   1.000  C
  C6       1.0000 0.12860  0.50580  0.19810  Biso   1.000  C
  C7       1.0000 0.37140  0.00580  0.30190  Biso   1.000  C
  C8       1.0000 0.87140  0.50580  0.30190  Biso   1.000  C
  C9       1.0000 0.27950  0.02560  0.82390  Biso   1.000  C
  C10      1.0000 0.77950  0.52560  0.82390  Biso   1.000  C
  C11      1.0000 0.72050  0.02560  0.67610  Biso   1.000  C
  C12      1.0000 0.22050  0.52560  0.67610  Biso   1.000  C
  C13      1.0000 0.72050  0.97440  0.17610  Biso   1.000  C
  C14      1.0000 0.22050  0.47440  0.17610  Biso   1.000  C
  C15      1.0000 0.27950  0.97440  0.32390  Biso   1.000  C
  C16      1.0000 0.77950  0.47440  0.32390  Biso   1.000  C
  C17      1.0000 0.12860  0.08390  0.80210  Biso   1.000  C
  C18      1.0000 0.62860  0.58390  0.80210  Biso   1.000  C
  C19      1.0000 0.87140  0.08390  0.69790  Biso   1.000  C
  C20      1.0000 0.37140  0.58390  0.69790  Biso   1.000  C
  C21      1.0000 0.87140  0.91610  0.19790  Biso   1.000  C
  C22      1.0000 0.37140  0.41610  0.19790  Biso   1.000  C
  C23      1.0000 0.12860  0.91610  0.30210  Biso   1.000  C
  C24      1.0000 0.62860  0.41610  0.30210  Biso   1.000  C
  C25      1.0000 0.13610  0.15070  0.80580  Biso   1.000  C
  C26      1.0000 0.63610  0.65070  0.80580  Biso   1.000  C
  C27      1.0000 0.86390  0.15070  0.69420  Biso   1.000  C
  C28      1.0000 0.36390  0.65070  0.69420  Biso   1.000  C
  C29      1.0000 0.86390  0.84930  0.19420  Biso   1.000  C
  C30      1.0000 0.36390  0.34930  0.19420  Biso   1.000  C
  C31      1.0000 0.13610  0.84930  0.30580  Biso   1.000  C
  C32      1.0000 0.63610  0.34930  0.30580  Biso   1.000  C
  H1       1.0000 0.19590  0.17120  0.79900  Biso   1.000  H
  H2       1.0000 0.69590  0.67120  0.79900  Biso   1.000  H
  H3       1.0000 0.80410  0.17120  0.70100  Biso   1.000  H
  H4       1.0000 0.30410  0.67120  0.70100  Biso   1.000  H
  H5       1.0000 0.80410  0.82880  0.20100  Biso   1.000  H
  H6       1.0000 0.30410  0.32880  0.20100  Biso   1.000  H
  H7       1.0000 0.19590  0.82880  0.29900  Biso   1.000  H
  H8       1.0000 0.69590  0.32880  0.29900  Biso   1.000  H
  C33      1.0000 0.05540  0.18740  0.81950  Biso   1.000  C
  C34      1.0000 0.55540  0.68740  0.81950  Biso   1.000  C
  C35      1.0000 0.94460  0.18740  0.68050  Biso   1.000  C
  C36      1.0000 0.44460  0.68740  0.68050  Biso   1.000  C
  C37      1.0000 0.94460  0.81260  0.18050  Biso   1.000  C
  C38      1.0000 0.44460  0.31260  0.18050  Biso   1.000  C
  C39      1.0000 0.05540  0.81260  0.31950  Biso   1.000  C
  C40      1.0000 0.55540  0.31260  0.31950  Biso   1.000  C
  H9       1.0000 0.06100  0.23240  0.82140  Biso   1.000  H
  H10      1.0000 0.56100  0.73240  0.82140  Biso   1.000  H
  H11      1.0000 0.93900  0.23240  0.67860  Biso   1.000  H
  H12      1.0000 0.43900  0.73240  0.67860  Biso   1.000  H
  H13      1.0000 0.93900  0.76760  0.17860  Biso   1.000  H
  H14      1.0000 0.43900  0.26760  0.17860  Biso   1.000  H
  H15      1.0000 0.06100  0.76760  0.32140  Biso   1.000  H
  H16      1.0000 0.56100  0.26760  0.32140  Biso   1.000  H
  C41      1.0000 0.96680  0.15790  0.83040  Biso   1.000  C
  C42      1.0000 0.46680  0.65790  0.83040  Biso   1.000  C
  C43      1.0000 0.03320  0.15790  0.66960  Biso   1.000  C
  C44      1.0000 0.53320  0.65790  0.66960  Biso   1.000  C
  C45      1.0000 0.03320  0.84210  0.16960  Biso   1.000  C
  C46      1.0000 0.53320  0.34210  0.16960  Biso   1.000  C
  C47      1.0000 0.96680  0.84210  0.33040  Biso   1.000  C
  C48      1.0000 0.46680  0.34210  0.33040  Biso   1.000  C
  H17      1.0000 0.91270  0.18270  0.83970  Biso   1.000  H
  H18      1.0000 0.41270  0.68270  0.83970  Biso   1.000  H
  H19      1.0000 0.08730  0.18270  0.66030  Biso   1.000  H
  H20      1.0000 0.58730  0.68270  0.66030  Biso   1.000  H
  H21      1.0000 0.08730  0.81730  0.16030  Biso   1.000  H
  H22      1.0000 0.58730  0.31730  0.16030  Biso   1.000  H
  H23      1.0000 0.91270  0.81730  0.33970  Biso   1.000  H
  H24      1.0000 0.41270  0.31730  0.33970  Biso   1.000  H
  C49      1.0000 0.95860  0.09070  0.82740  Biso   1.000  C
  C50      1.0000 0.45860  0.59070  0.82740  Biso   1.000  C
  C51      1.0000 0.04140  0.09070  0.67260  Biso   1.000  C
  C52      1.0000 0.54140  0.59070  0.67260  Biso   1.000  C
  C53      1.0000 0.04140  0.90930  0.17260  Biso   1.000  C
  C54      1.0000 0.54140  0.40930  0.17260  Biso   1.000  C
  C55      1.0000 0.95860  0.90930  0.32740  Biso   1.000  C
  C56      1.0000 0.45860  0.40930  0.32740  Biso   1.000  C
  C57      1.0000 0.03880  0.05320  0.81280  Biso   1.000  C
  C58      1.0000 0.53880  0.55320  0.81280  Biso   1.000  C
  C59      1.0000 0.96120  0.05320  0.68720  Biso   1.000  C
  C60      1.0000 0.46120  0.55320  0.68720  Biso   1.000  C
  C61      1.0000 0.96120  0.94680  0.18720  Biso   1.000  C
  C62      1.0000 0.46120  0.44680  0.18720  Biso   1.000  C
  C63      1.0000 0.03880  0.94680  0.31280  Biso   1.000  C
  C64      1.0000 0.53880  0.44680  0.31280  Biso   1.000  C
  H25      1.0000 0.03270  0.00830  0.81010  Biso   1.000  H
  H26      1.0000 0.53270  0.50830  0.81010  Biso   1.000  H
  H27      1.0000 0.96730  0.00830  0.68990  Biso   1.000  H
  H28      1.0000 0.46730  0.50830  0.68990  Biso   1.000  H
  H29      1.0000 0.96730  0.99170  0.18990  Biso   1.000  H
  H30      1.0000 0.46730  0.49170  0.18990  Biso   1.000  H
  H31      1.0000 0.03270  0.99170  0.31010  Biso   1.000  H
  H32      1.0000 0.53270  0.49170  0.31010  Biso   1.000  H
  C65      1.0000 0.85150  0.05250  0.88870  Biso   1.000  C
  C66      1.0000 0.35150  0.55250  0.88870  Biso   1.000  C
  C67      1.0000 0.14850  0.05250  0.61130  Biso   1.000  C
  C68      1.0000 0.64850  0.55250  0.61130  Biso   1.000  C
  C69      1.0000 0.14850  0.94750  0.11130  Biso   1.000  C
  C70      1.0000 0.64850  0.44750  0.11130  Biso   1.000  C
  C71      1.0000 0.85150  0.94750  0.38870  Biso   1.000  C
  C72      1.0000 0.35150  0.44750  0.38870  Biso   1.000  C
  C73      1.0000 0.75520  0.01320  0.89700  Biso   1.000  C
  C74      1.0000 0.25520  0.51320  0.89700  Biso   1.000  C
  C75      1.0000 0.24480  0.01320  0.60300  Biso   1.000  C
  C76      1.0000 0.74480  0.51320  0.60300  Biso   1.000  C
  C77      1.0000 0.24480  0.98680  0.10300  Biso   1.000  C
  C78      1.0000 0.74480  0.48680  0.10300  Biso   1.000  C
  C79      1.0000 0.75520  0.98680  0.39700  Biso   1.000  C
  C80      1.0000 0.25520  0.48680  0.39700  Biso   1.000  C
  C81      1.0000 0.25770  0.79840  0.60700  Biso   1.000  C
  C82      1.0000 0.75770  0.29840  0.60700  Biso   1.000  C
  C83      1.0000 0.74230  0.79840  0.89300  Biso   1.000  C
  C84      1.0000 0.24230  0.29840  0.89300  Biso   1.000  C
  C85      1.0000 0.74230  0.20160  0.39300  Biso   1.000  C
  C86      1.0000 0.24230  0.70160  0.39300  Biso   1.000  C
  C87      1.0000 0.25770  0.20160  0.10700  Biso   1.000  C
  C88      1.0000 0.75770  0.70160  0.10700  Biso   1.000  C
  C89      1.0000 0.16040  0.75940  0.61340  Biso   1.000  C
  C90      1.0000 0.66040  0.25940  0.61340  Biso   1.000  C
  C91      1.0000 0.83960  0.75940  0.88660  Biso   1.000  C
  C92      1.0000 0.33960  0.25940  0.88660  Biso   1.000  C
  C93      1.0000 0.83960  0.24060  0.38660  Biso   1.000  C
  C94      1.0000 0.33960  0.74060  0.38660  Biso   1.000  C
  C95      1.0000 0.16040  0.24060  0.11340  Biso   1.000  C
  C96      1.0000 0.66040  0.74060  0.11340  Biso   1.000  C
  C97      1.0000 0.04480  0.72800  0.67350  Biso   1.000  C
  C98      1.0000 0.54480  0.22800  0.67350  Biso   1.000  C
  C99      1.0000 0.95520  0.72800  0.82650  Biso   1.000  C
  C100     1.0000 0.45520  0.22800  0.82650  Biso   1.000  C
  C101     1.0000 0.95520  0.27200  0.32650  Biso   1.000  C
  C102     1.0000 0.45520  0.77200  0.32650  Biso   1.000  C
  C103     1.0000 0.04480  0.27200  0.17350  Biso   1.000  C
  C104     1.0000 0.54480  0.77200  0.17350  Biso   1.000  C
  C105     1.0000 0.96410  0.76590  0.68670  Biso   1.000  C
  C106     1.0000 0.46410  0.26590  0.68670  Biso   1.000  C
  C107     1.0000 0.03590  0.76590  0.81330  Biso   1.000  C
  C108     1.0000 0.53590  0.26590  0.81330  Biso   1.000  C
  C109     1.0000 0.03590  0.23410  0.31330  Biso   1.000  C
  C110     1.0000 0.53590  0.73410  0.31330  Biso   1.000  C
  C111     1.0000 0.96410  0.23410  0.18670  Biso   1.000  C
  C112     1.0000 0.46410  0.73410  0.18670  Biso   1.000  C
  H33      1.0000 0.97140  0.81080  0.68880  Biso   1.000  H
  H34      1.0000 0.47140  0.31080  0.68880  Biso   1.000  H
  H35      1.0000 0.02860  0.81080  0.81120  Biso   1.000  H
  H36      1.0000 0.52860  0.31080  0.81120  Biso   1.000  H
  H37      1.0000 0.02860  0.18920  0.31120  Biso   1.000  H
  H38      1.0000 0.52860  0.68920  0.31120  Biso   1.000  H
  H39      1.0000 0.97140  0.18920  0.18880  Biso   1.000  H
  H40      1.0000 0.47140  0.68920  0.18880  Biso   1.000  H
  C113     1.0000 0.87340  0.73790  0.69670  Biso   1.000  C
  C114     1.0000 0.37340  0.23790  0.69670  Biso   1.000  C
  C115     1.0000 0.12660  0.73790  0.80330  Biso   1.000  C
  C116     1.0000 0.62660  0.23790  0.80330  Biso   1.000  C
  C117     1.0000 0.12660  0.26210  0.30330  Biso   1.000  C
  C118     1.0000 0.62660  0.76210  0.30330  Biso   1.000  C
  C119     1.0000 0.87340  0.26210  0.19670  Biso   1.000  C
  C120     1.0000 0.37340  0.76210  0.19670  Biso   1.000  C
  C121     1.0000 0.86350  0.67040  0.69300  Biso   1.000  C
  C122     1.0000 0.36350  0.17040  0.69300  Biso   1.000  C
  C123     1.0000 0.13650  0.67040  0.80700  Biso   1.000  C
  C124     1.0000 0.63650  0.17040  0.80700  Biso   1.000  C
  C125     1.0000 0.13650  0.32960  0.30700  Biso   1.000  C
  C126     1.0000 0.63650  0.82960  0.30700  Biso   1.000  C
  C127     1.0000 0.86350  0.32960  0.19300  Biso   1.000  C
  C128     1.0000 0.36350  0.82960  0.19300  Biso   1.000  C
  H41      1.0000 0.80250  0.65090  0.69910  Biso   1.000  H
  H42      1.0000 0.30250  0.15090  0.69910  Biso   1.000  H
  H43      1.0000 0.19750  0.65090  0.80090  Biso   1.000  H
  H44      1.0000 0.69750  0.15090  0.80090  Biso   1.000  H
  H45      1.0000 0.19750  0.34910  0.30090  Biso   1.000  H
  H46      1.0000 0.69750  0.84910  0.30090  Biso   1.000  H
  H47      1.0000 0.80250  0.34910  0.19910  Biso   1.000  H
  H48      1.0000 0.30250  0.84910  0.19910  Biso   1.000  H
  C129     1.0000 0.94280  0.63260  0.68050  Biso   1.000  C
  C130     1.0000 0.44280  0.13260  0.68050  Biso   1.000  C
  C131     1.0000 0.05720  0.63260  0.81950  Biso   1.000  C
  C132     1.0000 0.55720  0.13260  0.81950  Biso   1.000  C
  C133     1.0000 0.05720  0.36740  0.31950  Biso   1.000  C
  C134     1.0000 0.55720  0.86740  0.31950  Biso   1.000  C
  C135     1.0000 0.94280  0.36740  0.18050  Biso   1.000  C
  C136     1.0000 0.44280  0.86740  0.18050  Biso   1.000  C
  H49      1.0000 0.93550  0.58770  0.67890  Biso   1.000  H
  H50      1.0000 0.43550  0.08770  0.67890  Biso   1.000  H
  H51      1.0000 0.06450  0.58770  0.82110  Biso   1.000  H
  H52      1.0000 0.56450  0.08770  0.82110  Biso   1.000  H
  H53      1.0000 0.06450  0.41230  0.32110  Biso   1.000  H
  H54      1.0000 0.56450  0.91230  0.32110  Biso   1.000  H
  H55      1.0000 0.93550  0.41230  0.17890  Biso   1.000  H
  H56      1.0000 0.43550  0.91230  0.17890  Biso   1.000  H
  C137     1.0000 0.03350  0.66040  0.67020  Biso   1.000  C
  C138     1.0000 0.53350  0.16040  0.67020  Biso   1.000  C
  C139     1.0000 0.96650  0.66040  0.82980  Biso   1.000  C
  C140     1.0000 0.46650  0.16040  0.82980  Biso   1.000  C
  C141     1.0000 0.96650  0.33960  0.32980  Biso   1.000  C
  C142     1.0000 0.46650  0.83960  0.32980  Biso   1.000  C
  C143     1.0000 0.03350  0.33960  0.17020  Biso   1.000  C
  C144     1.0000 0.53350  0.83960  0.17020  Biso   1.000  C
  H57      1.0000 0.08660  0.63450  0.66120  Biso   1.000  H
  H58      1.0000 0.58660  0.13450  0.66120  Biso   1.000  H
  H59      1.0000 0.91340  0.63450  0.83880  Biso   1.000  H
  H60      1.0000 0.41340  0.13450  0.83880  Biso   1.000  H
  H61      1.0000 0.91340  0.36550  0.33880  Biso   1.000  H
  H62      1.0000 0.41340  0.86550  0.33880  Biso   1.000  H
  H63      1.0000 0.08660  0.36550  0.16120  Biso   1.000  H
  H64      1.0000 0.58660  0.86550  0.16120  Biso   1.000  H
  C145     1.0000 0.72620  0.79870  0.67330  Biso   1.000  C
  C146     1.0000 0.22620  0.29870  0.67330  Biso   1.000  C
  C147     1.0000 0.27380  0.79870  0.82670  Biso   1.000  C
  C148     1.0000 0.77380  0.29870  0.82670  Biso   1.000  C
  C149     1.0000 0.27380  0.20130  0.32670  Biso   1.000  C
  C150     1.0000 0.77380  0.70130  0.32670  Biso   1.000  C
  C151     1.0000 0.72620  0.20130  0.17330  Biso   1.000  C
  C152     1.0000 0.22620  0.70130  0.17330  Biso   1.000  C
  C153     1.0000 0.63210  0.82910  0.69500  Biso   1.000  C
  C154     1.0000 0.13210  0.32910  0.69500  Biso   1.000  C
  C155     1.0000 0.36790  0.82910  0.80500  Biso   1.000  C
  C156     1.0000 0.86790  0.32910  0.80500  Biso   1.000  C
  C157     1.0000 0.36790  0.17090  0.30500  Biso   1.000  C
  C158     1.0000 0.86790  0.67090  0.30500  Biso   1.000  C
  C159     1.0000 0.63210  0.17090  0.19500  Biso   1.000  C
  C160     1.0000 0.13210  0.67090  0.19500  Biso   1.000  C
  Na1      1.0000 0.42040  0.90881  0.68614  Biso   1.000  Na
  Na2      1.0000 0.92040  0.40881  0.68614  Biso   1.000  Na
  Na3      1.0000 0.57960  0.90881  0.81386  Biso   1.000  Na
  Na4      1.0000 0.07960  0.40881  0.81386  Biso   1.000  Na
  Na5      1.0000 0.57960  0.09119  0.31386  Biso   1.000  Na
  Na6      1.0000 0.07960  0.59119  0.31386  Biso   1.000  Na
  Na7      1.0000 0.42040  0.09119  0.18614  Biso   1.000  Na
  Na8      1.0000 0.92040  0.59119  0.18614  Biso   1.000  Na
  Na9      1.0000 0.82990  0.06994  0.01242  Biso   1.000  Na
  Na10     1.0000 0.32990  0.56994  0.01242  Biso   1.000  Na
  Na11     1.0000 0.17010  0.06994  0.48758  Biso   1.000  Na
  Na12     1.0000 0.67010  0.56994  0.48758  Biso   1.000  Na
  Na13     1.0000 0.17010  0.93006  0.98758  Biso   1.000  Na
  Na14     1.0000 0.67010  0.43006  0.98758  Biso   1.000  Na
  Na15     1.0000 0.82990  0.93006  0.51242  Biso   1.000  Na
  Na16     1.0000 0.32990  0.43006  0.51242  Biso   1.000  Na
  Na17     1.0000 0.97090  0.75979  0.51046  Biso   1.000  Na
  Na18     1.0000 0.47090  0.25979  0.51046  Biso   1.000  Na
  Na19     1.0000 0.02910  0.75979  0.98954  Biso   1.000  Na
  Na20     1.0000 0.52910  0.25979  0.98954  Biso   1.000  Na
  Na21     1.0000 0.02910  0.24021  0.48954  Biso   1.000  Na
  Na22     1.0000 0.52910  0.74021  0.48954  Biso   1.000  Na
  Na23     1.0000 0.97090  0.24021  0.01046  Biso   1.000  Na
  Na24     1.0000 0.47090  0.74021  0.01046  Biso   1.000  Na
  Na25     1.0000 0.47530  0.91297  0.99676  Biso   1.000  Na
  Na26     1.0000 0.97530  0.41297  0.99676  Biso   1.000  Na
  Na27     1.0000 0.52470  0.91297  0.50324  Biso   1.000  Na
  Na28     1.0000 0.02470  0.41297  0.50324  Biso   1.000  Na
  Na29     1.0000 0.52470  0.08703  0.00324  Biso   1.000  Na
  Na30     1.0000 0.02470  0.58703  0.00324  Biso   1.000  Na
  Na31     1.0000 0.47530  0.08703  0.49676  Biso   1.000  Na
  Na32     1.0000 0.97530  0.58703  0.49676  Biso   1.000  Na
  Na33     1.0000 0.79570  0.90090  0.98490  Biso   1.000  Na
  Na34     1.0000 0.29570  0.40090  0.98490  Biso   1.000  Na
  Na35     1.0000 0.20430  0.90090  0.51510  Biso   1.000  Na
  Na36     1.0000 0.70430  0.40090  0.51510  Biso   1.000  Na
  Na37     1.0000 0.20430  0.09910  0.01510  Biso   1.000  Na
  Na38     1.0000 0.70430  0.59910  0.01510  Biso   1.000  Na
  Na39     1.0000 0.79570  0.09910  0.48490  Biso   1.000  Na
  Na40     1.0000 0.29570  0.59910  0.48490  Biso   1.000  Na
  O97      1.0000 0.90160  0.82290  0.03120  Biso   1.000  O
  O98      1.0000 0.40160  0.32290  0.03120  Biso   1.000  O
  O99      1.0000 0.09840  0.82290  0.46880  Biso   1.000  O
  O100     1.0000 0.59840  0.32290  0.46880  Biso   1.000  O
  O101     1.0000 0.09840  0.17710  0.96880  Biso   1.000  O
  O102     1.0000 0.59840  0.67710  0.96880  Biso   1.000  O
  O103     1.0000 0.90160  0.17710  0.53120  Biso   1.000  O
  O104     1.0000 0.40160  0.67710  0.53120  Biso   1.000  O
  H65      1.0000 0.92490  0.83620  0.06230  Biso   1.000  H
  H66      1.0000 0.42490  0.33620  0.06230  Biso   1.000  H
  H67      1.0000 0.07510  0.83620  0.43770  Biso   1.000  H
  H68      1.0000 0.57510  0.33620  0.43770  Biso   1.000  H
  H69      1.0000 0.07510  0.16380  0.93770  Biso   1.000  H
  H70      1.0000 0.57510  0.66380  0.93770  Biso   1.000  H
  H71      1.0000 0.92490  0.16380  0.56230  Biso   1.000  H
  H72      1.0000 0.42490  0.66380  0.56230  Biso   1.000  H
  H73      1.0000 0.86190  0.79130  0.03540  Biso   1.000  H
  H74      1.0000 0.36190  0.29130  0.03540  Biso   1.000  H
  H75      1.0000 0.13810  0.79130  0.46460  Biso   1.000  H
  H76      1.0000 0.63810  0.29130  0.46460  Biso   1.000  H
  H77      1.0000 0.13810  0.20870  0.96460  Biso   1.000  H
  H78      1.0000 0.63810  0.70870  0.96460  Biso   1.000  H
  H79      1.0000 0.86190  0.20870  0.53540  Biso   1.000  H
  H80      1.0000 0.36190  0.70870  0.53540  Biso   1.000  H
  O105     1.0000 0.90620  0.15790  0.06590  Biso   1.000  O
  O106     1.0000 0.40620  0.65790  0.06590  Biso   1.000  O
  O107     1.0000 0.09380  0.15790  0.43410  Biso   1.000  O
  O108     1.0000 0.59380  0.65790  0.43410  Biso   1.000  O
  O109     1.0000 0.09380  0.84210  0.93410  Biso   1.000  O
  O110     1.0000 0.59380  0.34210  0.93410  Biso   1.000  O
  O111     1.0000 0.90620  0.84210  0.56590  Biso   1.000  O
  O112     1.0000 0.40620  0.34210  0.56590  Biso   1.000  O
  H81      1.0000 0.85430  0.13380  0.06670  Biso   1.000  H
  H82      1.0000 0.35430  0.63380  0.06670  Biso   1.000  H
  H83      1.0000 0.14570  0.13380  0.43330  Biso   1.000  H
  H84      1.0000 0.64570  0.63380  0.43330  Biso   1.000  H
  H85      1.0000 0.14570  0.86620  0.93330  Biso   1.000  H
  H86      1.0000 0.64570  0.36620  0.93330  Biso   1.000  H
  H87      1.0000 0.85430  0.86620  0.56670  Biso   1.000  H
  H88      1.0000 0.35430  0.36620  0.56670  Biso   1.000  H
  H89      1.0000 0.95150  0.14450  0.09000  Biso   1.000  H
  H90      1.0000 0.45150  0.64450  0.09000  Biso   1.000  H
  H91      1.0000 0.04850  0.14450  0.41000  Biso   1.000  H
  H92      1.0000 0.54850  0.64450  0.41000  Biso   1.000  H
  H93      1.0000 0.04850  0.85550  0.91000  Biso   1.000  H
  H94      1.0000 0.54850  0.35550  0.91000  Biso   1.000  H
  H95      1.0000 0.95150  0.85550  0.59000  Biso   1.000  H
  H96      1.0000 0.45150  0.35550  0.59000  Biso   1.000  H
  O113     1.0000 0.88890  0.66940  0.54860  Biso   1.000  O
  O114     1.0000 0.38890  0.16940  0.54860  Biso   1.000  O
  O115     1.0000 0.11110  0.66940  0.95140  Biso   1.000  O
  O116     1.0000 0.61110  0.16940  0.95140  Biso   1.000  O
  O117     1.0000 0.11110  0.33060  0.45140  Biso   1.000  O
  O118     1.0000 0.61110  0.83060  0.45140  Biso   1.000  O
  O119     1.0000 0.88890  0.33060  0.04860  Biso   1.000  O
  O120     1.0000 0.38890  0.83060  0.04860  Biso   1.000  O
  H97      1.0000 0.90590  0.66760  0.58250  Biso   1.000  H
  H98      1.0000 0.40590  0.16760  0.58250  Biso   1.000  H
  H99      1.0000 0.09410  0.66760  0.91750  Biso   1.000  H
  H100     1.0000 0.59410  0.16760  0.91750  Biso   1.000  H
  H101     1.0000 0.09410  0.33240  0.41750  Biso   1.000  H
  H102     1.0000 0.59410  0.83240  0.41750  Biso   1.000  H
  H103     1.0000 0.90590  0.33240  0.08250  Biso   1.000  H
  H104     1.0000 0.40590  0.83240  0.08250  Biso   1.000  H
  H105     1.0000 0.82450  0.67040  0.54350  Biso   1.000  H
  H106     1.0000 0.32450  0.17040  0.54350  Biso   1.000  H
  H107     1.0000 0.17550  0.67040  0.95650  Biso   1.000  H
  H108     1.0000 0.67550  0.17040  0.95650  Biso   1.000  H
  H109     1.0000 0.17550  0.32960  0.45650  Biso   1.000  H
  H110     1.0000 0.67550  0.82960  0.45650  Biso   1.000  H
  H111     1.0000 0.82450  0.32960  0.04350  Biso   1.000  H
  H112     1.0000 0.32450  0.82960  0.04350  Biso   1.000  H
  O121     1.0000 0.88270  0.97130  0.05600  Biso   1.000  O
  O122     1.0000 0.38270  0.47130  0.05600  Biso   1.000  O
  O123     1.0000 0.11730  0.97130  0.44400  Biso   1.000  O
  O124     1.0000 0.61730  0.47130  0.44400  Biso   1.000  O
  O125     1.0000 0.11730  0.02870  0.94400  Biso   1.000  O
  O126     1.0000 0.61730  0.52870  0.94400  Biso   1.000  O
  O127     1.0000 0.88270  0.02870  0.55600  Biso   1.000  O
  O128     1.0000 0.38270  0.52870  0.55600  Biso   1.000  O
  H113     1.0000 0.85990  0.96670  0.08630  Biso   1.000  H
  H114     1.0000 0.35990  0.46670  0.08630  Biso   1.000  H
  H115     1.0000 0.14010  0.96670  0.41370  Biso   1.000  H
  H116     1.0000 0.64010  0.46670  0.41370  Biso   1.000  H
  H117     1.0000 0.14010  0.03330  0.91370  Biso   1.000  H
  H118     1.0000 0.64010  0.53330  0.91370  Biso   1.000  H
  H119     1.0000 0.85990  0.03330  0.58630  Biso   1.000  H
  H120     1.0000 0.35990  0.53330  0.58630  Biso   1.000  H
  H121     1.0000 0.94680  0.96660  0.05940  Biso   1.000  H
  H122     1.0000 0.44680  0.46660  0.05940  Biso   1.000  H
  H123     1.0000 0.05320  0.96660  0.44060  Biso   1.000  H
  H124     1.0000 0.55320  0.46660  0.44060  Biso   1.000  H
  H125     1.0000 0.05320  0.03340  0.94060  Biso   1.000  H
  H126     1.0000 0.55320  0.53340  0.94060  Biso   1.000  H
  H127     1.0000 0.94680  0.03340  0.55940  Biso   1.000  H
  H128     1.0000 0.44680  0.53340  0.55940  Biso   1.000  H
  O129     1.0000 0.65340  0.89230  0.03640  Biso   1.000  O
  O130     1.0000 0.15340  0.39230  0.03640  Biso   1.000  O
  O131     1.0000 0.34660  0.89230  0.46360  Biso   1.000  O
  O132     1.0000 0.84660  0.39230  0.46360  Biso   1.000  O
  O133     1.0000 0.34660  0.10770  0.96360  Biso   1.000  O
  O134     1.0000 0.84660  0.60770  0.96360  Biso   1.000  O
  O135     1.0000 0.65340  0.10770  0.53640  Biso   1.000  O
  O136     1.0000 0.15340  0.60770  0.53640  Biso   1.000  O
  H129     1.0000 0.65550  0.85800  0.05550  Biso   1.000  H
  H130     1.0000 0.15550  0.35800  0.05550  Biso   1.000  H
  H131     1.0000 0.34450  0.85800  0.44450  Biso   1.000  H
  H132     1.0000 0.84450  0.35800  0.44450  Biso   1.000  H
  H133     1.0000 0.34450  0.14200  0.94450  Biso   1.000  H
  H134     1.0000 0.84450  0.64200  0.94450  Biso   1.000  H
  H135     1.0000 0.65550  0.14200  0.55550  Biso   1.000  H
  H136     1.0000 0.15550  0.64200  0.55550  Biso   1.000  H
  H137     1.0000 0.67940  0.92290  0.05620  Biso   1.000  H
  H138     1.0000 0.17940  0.42290  0.05620  Biso   1.000  H
  H139     1.0000 0.32060  0.92290  0.44380  Biso   1.000  H
  H140     1.0000 0.82060  0.42290  0.44380  Biso   1.000  H
  H141     1.0000 0.32060  0.07710  0.94380  Biso   1.000  H
  H142     1.0000 0.82060  0.57710  0.94380  Biso   1.000  H
  H143     1.0000 0.67940  0.07710  0.55620  Biso   1.000  H
  H144     1.0000 0.17940  0.57710  0.55620  Biso   1.000  H
  O137     1.0000 0.00760  0.68020  0.44470  Biso   1.000  O
  O138     1.0000 0.50760  0.18020  0.44470  Biso   1.000  O
  O139     1.0000 0.99240  0.68020  0.05530  Biso   1.000  O
  O140     1.0000 0.49240  0.18020  0.05530  Biso   1.000  O
  O141     1.0000 0.99240  0.31980  0.55530  Biso   1.000  O
  O142     1.0000 0.49240  0.81980  0.55530  Biso   1.000  O
  O143     1.0000 0.00760  0.31980  0.94470  Biso   1.000  O
  O144     1.0000 0.50760  0.81980  0.94470  Biso   1.000  O
  H145     1.0000 0.07130  0.68400  0.44390  Biso   1.000  H
  H146     1.0000 0.57130  0.18400  0.44390  Biso   1.000  H
  H147     1.0000 0.92870  0.68400  0.05610  Biso   1.000  H
  H148     1.0000 0.42870  0.18400  0.05610  Biso   1.000  H
  H149     1.0000 0.92870  0.31600  0.55610  Biso   1.000  H
  H150     1.0000 0.42870  0.81600  0.55610  Biso   1.000  H
  H151     1.0000 0.07130  0.31600  0.94390  Biso   1.000  H
  H152     1.0000 0.57130  0.81600  0.94390  Biso   1.000  H
  H153     1.0000 0.97900  0.68970  0.41350  Biso   1.000  H
  H154     1.0000 0.47900  0.18970  0.41350  Biso   1.000  H
  H155     1.0000 0.02100  0.68970  0.08650  Biso   1.000  H
  H156     1.0000 0.52100  0.18970  0.08650  Biso   1.000  H
  H157     1.0000 0.02100  0.31030  0.58650  Biso   1.000  H
  H158     1.0000 0.52100  0.81030  0.58650  Biso   1.000  H
  H159     1.0000 0.97900  0.31030  0.91350  Biso   1.000  H
  H160     1.0000 0.47900  0.81030  0.91350  Biso   1.000  H
  O145     1.0000 0.47600  0.00040  0.05970  Biso   1.000  O
  O146     1.0000 0.97600  0.50040  0.05970  Biso   1.000  O
  O147     1.0000 0.52400  0.00040  0.44030  Biso   1.000  O
  O148     1.0000 0.02400  0.50040  0.44030  Biso   1.000  O
  O149     1.0000 0.52400  0.99960  0.94030  Biso   1.000  O
  O150     1.0000 0.02400  0.49960  0.94030  Biso   1.000  O
  O151     1.0000 0.47600  0.99960  0.55970  Biso   1.000  O
  O152     1.0000 0.97600  0.49960  0.55970  Biso   1.000  O
  H161     1.0000 0.41760  0.00670  0.06980  Biso   1.000  H
  H162     1.0000 0.91760  0.50670  0.06980  Biso   1.000  H
  H163     1.0000 0.58240  0.00670  0.43020  Biso   1.000  H
  H164     1.0000 0.08240  0.50670  0.43020  Biso   1.000  H
  H165     1.0000 0.58240  0.99330  0.93020  Biso   1.000  H
  H166     1.0000 0.08240  0.49330  0.93020  Biso   1.000  H
  H167     1.0000 0.41760  0.99330  0.56980  Biso   1.000  H
  H168     1.0000 0.91760  0.49330  0.56980  Biso   1.000  H
  H169     1.0000 0.51900  0.99460  0.08720  Biso   1.000  H
  H170     1.0000 0.01900  0.49460  0.08720  Biso   1.000  H
  H171     1.0000 0.48100  0.99460  0.41280  Biso   1.000  H
  H172     1.0000 0.98100  0.49460  0.41280  Biso   1.000  H
  H173     1.0000 0.48100  0.00540  0.91280  Biso   1.000  H
  H174     1.0000 0.98100  0.50540  0.91280  Biso   1.000  H
  H175     1.0000 0.51900  0.00540  0.58720  Biso   1.000  H
  H176     1.0000 0.01900  0.50540  0.58720  Biso   1.000  H
  O153     1.0000 0.82590  0.79880  0.44930  Biso   1.000  O
  O154     1.0000 0.32590  0.29880  0.44930  Biso   1.000  O
  O155     1.0000 0.17410  0.79880  0.05070  Biso   1.000  O
  O156     1.0000 0.67410  0.29880  0.05070  Biso   1.000  O
  O157     1.0000 0.17410  0.20120  0.55070  Biso   1.000  O
  O158     1.0000 0.67410  0.70120  0.55070  Biso   1.000  O
  O159     1.0000 0.82590  0.20120  0.94930  Biso   1.000  O
  O160     1.0000 0.32590  0.70120  0.94930  Biso   1.000  O
  H177     1.0000 0.78880  0.77180  0.43030  Biso   1.000  H
  H178     1.0000 0.28880  0.27180  0.43030  Biso   1.000  H
  H179     1.0000 0.21120  0.77180  0.06970  Biso   1.000  H
  H180     1.0000 0.71120  0.27180  0.06970  Biso   1.000  H
  H181     1.0000 0.21120  0.22820  0.56970  Biso   1.000  H
  H182     1.0000 0.71120  0.72820  0.56970  Biso   1.000  H
  H183     1.0000 0.78880  0.22820  0.93030  Biso   1.000  H
  H184     1.0000 0.28880  0.72820  0.93030  Biso   1.000  H
  H185     1.0000 0.81270  0.83920  0.44710  Biso   1.000  H
  H186     1.0000 0.31270  0.33920  0.44710  Biso   1.000  H
  H187     1.0000 0.18730  0.83920  0.05290  Biso   1.000  H
  H188     1.0000 0.68730  0.33920  0.05290  Biso   1.000  H
  H189     1.0000 0.18730  0.16080  0.55290  Biso   1.000  H
  H190     1.0000 0.68730  0.66080  0.55290  Biso   1.000  H
  H191     1.0000 0.81270  0.16080  0.94710  Biso   1.000  H
  H192     1.0000 0.31270  0.66080  0.94710  Biso   1.000  H
  O161     1.0000 0.68560  0.08260  0.06170  Biso   1.000  O
  O162     1.0000 0.18560  0.58260  0.06170  Biso   1.000  O
  O163     1.0000 0.31440  0.08260  0.43830  Biso   1.000  O
  O164     1.0000 0.81440  0.58260  0.43830  Biso   1.000  O
  O165     1.0000 0.31440  0.91740  0.93830  Biso   1.000  O
  O166     1.0000 0.81440  0.41740  0.93830  Biso   1.000  O
  O167     1.0000 0.68560  0.91740  0.56170  Biso   1.000  O
  O168     1.0000 0.18560  0.41740  0.56170  Biso   1.000  O
  H193     1.0000 0.68910  0.08260  0.09590  Biso   1.000  H
  H194     1.0000 0.18910  0.58260  0.09590  Biso   1.000  H
  H195     1.0000 0.31090  0.08260  0.40410  Biso   1.000  H
  H196     1.0000 0.81090  0.58260  0.40410  Biso   1.000  H
  H197     1.0000 0.31090  0.91740  0.90410  Biso   1.000  H
  H198     1.0000 0.81090  0.41740  0.90410  Biso   1.000  H
  H199     1.0000 0.68910  0.91740  0.59590  Biso   1.000  H
  H200     1.0000 0.18910  0.41740  0.59590  Biso   1.000  H
  H201     1.0000 0.74270  0.09490  0.05290  Biso   1.000  H
  H202     1.0000 0.24270  0.59490  0.05290  Biso   1.000  H
  H203     1.0000 0.25730  0.09490  0.44710  Biso   1.000  H
  H204     1.0000 0.75730  0.59490  0.44710  Biso   1.000  H
  H205     1.0000 0.25730  0.90510  0.94710  Biso   1.000  H
  H206     1.0000 0.75730  0.40510  0.94710  Biso   1.000  H
  H207     1.0000 0.74270  0.90510  0.55290  Biso   1.000  H
  H208     1.0000 0.24270  0.40510  0.55290  Biso   1.000  H
