data_image0
_cell_length_a       24.263
_cell_length_b       16.387
_cell_length_c       24.45
_cell_angle_alpha    90
_cell_angle_beta     90
_cell_angle_gamma    90

_symmetry_space_group_name_H-M    "P 1"
_symmetry_int_tables_number       1

loop_
  _symmetry_equiv_pos_as_xyz
  'x, y, z'

loop_
  _atom_site_label
  _atom_site_occupancy
  _atom_site_fract_x
  _atom_site_fract_y
  _atom_site_fract_z
  _atom_site_thermal_displace_type
  _atom_site_B_iso_or_equiv
  _atom_site_type_symbol
  Cu1      1.0000 0.73192  0.37975  0.49910  Biso   1.000  Cu
  Cu2      1.0000 0.76808  0.62025  0.99910  Biso   1.000  Cu
  Cu3      1.0000 0.26808  0.87975  0.00090  Biso   1.000  Cu
  Cu4      1.0000 0.23192  0.12025  0.50090  Biso   1.000  Cu
  Cu5      1.0000 0.26808  0.62025  0.50090  Biso   1.000  Cu
  Cu6      1.0000 0.23192  0.37975  0.00090  Biso   1.000  Cu
  Cu7      1.0000 0.73192  0.12025  0.99910  Biso   1.000  Cu
  Cu8      1.0000 0.76808  0.87975  0.49910  Biso   1.000  Cu
  S1       1.0000 0.79629  0.16069  0.62106  Biso   1.000  S
  S2       1.0000 0.70371  0.83931  0.12106  Biso   1.000  S
  S3       1.0000 0.20371  0.66069  0.87894  Biso   1.000  S
  S4       1.0000 0.29629  0.33931  0.37894  Biso   1.000  S
  S5       1.0000 0.20371  0.83931  0.37894  Biso   1.000  S
  S6       1.0000 0.29629  0.16069  0.87894  Biso   1.000  S
  S7       1.0000 0.79629  0.33931  0.12106  Biso   1.000  S
  S8       1.0000 0.70371  0.66069  0.62106  Biso   1.000  S
  S9       1.0000 0.80363  0.58703  0.38174  Biso   1.000  S
  S10      1.0000 0.69637  0.41297  0.88174  Biso   1.000  S
  S11      1.0000 0.19637  0.08703  0.11826  Biso   1.000  S
  S12      1.0000 0.30363  0.91297  0.61826  Biso   1.000  S
  S13      1.0000 0.19637  0.41297  0.61826  Biso   1.000  S
  S14      1.0000 0.30363  0.58703  0.11826  Biso   1.000  S
  S15      1.0000 0.80363  0.91297  0.88174  Biso   1.000  S
  S16      1.0000 0.69637  0.08703  0.38174  Biso   1.000  S
  N1       1.0000 0.29271  0.43510  0.95636  Biso   1.000  N
  N2       1.0000 0.20729  0.56490  0.45636  Biso   1.000  N
  N3       1.0000 0.70729  0.93510  0.54364  Biso   1.000  N
  N4       1.0000 0.79271  0.06490  0.04364  Biso   1.000  N
  N5       1.0000 0.70729  0.56490  0.04364  Biso   1.000  N
  N6       1.0000 0.79271  0.43510  0.54364  Biso   1.000  N
  N7       1.0000 0.29271  0.06490  0.45636  Biso   1.000  N
  N8       1.0000 0.20729  0.93510  0.95636  Biso   1.000  N
  N9       1.0000 0.51363  0.56510  0.83968  Biso   1.000  N
  N10      1.0000 0.98637  0.43490  0.33968  Biso   1.000  N
  N11      1.0000 0.48637  0.06510  0.66032  Biso   1.000  N
  N12      1.0000 0.01363  0.93490  0.16032  Biso   1.000  N
  N13      1.0000 0.48637  0.43490  0.16032  Biso   1.000  N
  N14      1.0000 0.01363  0.56510  0.66032  Biso   1.000  N
  N15      1.0000 0.51363  0.93490  0.33968  Biso   1.000  N
  N16      1.0000 0.98637  0.06510  0.83968  Biso   1.000  N
  N17      1.0000 0.47639  0.60880  0.80908  Biso   1.000  N
  N18      1.0000 0.02361  0.39120  0.30908  Biso   1.000  N
  N19      1.0000 0.52361  0.10880  0.69092  Biso   1.000  N
  N20      1.0000 0.97639  0.89120  0.19092  Biso   1.000  N
  N21      1.0000 0.52361  0.39120  0.19092  Biso   1.000  N
  N22      1.0000 0.97639  0.60880  0.69092  Biso   1.000  N
  N23      1.0000 0.47639  0.89120  0.30908  Biso   1.000  N
  N24      1.0000 0.02361  0.10880  0.80908  Biso   1.000  N
  N25      1.0000 0.51027  0.60570  0.71711  Biso   1.000  N
  N26      1.0000 0.98973  0.39430  0.21711  Biso   1.000  N
  N27      1.0000 0.48973  0.10570  0.78289  Biso   1.000  N
  N28      1.0000 0.01027  0.89430  0.28289  Biso   1.000  N
  N29      1.0000 0.48973  0.39430  0.28289  Biso   1.000  N
  N30      1.0000 0.01027  0.60570  0.78289  Biso   1.000  N
  N31      1.0000 0.51027  0.89430  0.21711  Biso   1.000  N
  N32      1.0000 0.98973  0.10570  0.71711  Biso   1.000  N
  N33      1.0000 0.46824  0.58150  0.68365  Biso   1.000  N
  N34      1.0000 0.03176  0.41850  0.18365  Biso   1.000  N
  N35      1.0000 0.53176  0.08150  0.81635  Biso   1.000  N
  N36      1.0000 0.96824  0.91850  0.31635  Biso   1.000  N
  N37      1.0000 0.53176  0.41850  0.31635  Biso   1.000  N
  N38      1.0000 0.96824  0.58150  0.81635  Biso   1.000  N
  N39      1.0000 0.46824  0.91850  0.18365  Biso   1.000  N
  N40      1.0000 0.03176  0.08150  0.68365  Biso   1.000  N
  N41      1.0000 0.67328  0.43210  0.54765  Biso   1.000  N
  N42      1.0000 0.82672  0.56790  0.04765  Biso   1.000  N
  N43      1.0000 0.32672  0.93210  0.95235  Biso   1.000  N
  N44      1.0000 0.17328  0.06790  0.45235  Biso   1.000  N
  N45      1.0000 0.32672  0.56790  0.45235  Biso   1.000  N
  N46      1.0000 0.17328  0.43210  0.95235  Biso   1.000  N
  N47      1.0000 0.67328  0.06790  0.04765  Biso   1.000  N
  N48      1.0000 0.82672  0.93210  0.54765  Biso   1.000  N
  N49      1.0000 0.67225  0.32570  0.45334  Biso   1.000  N
  N50      1.0000 0.82775  0.67430  0.95334  Biso   1.000  N
  N51      1.0000 0.32775  0.82570  0.04666  Biso   1.000  N
  N52      1.0000 0.17225  0.17430  0.54666  Biso   1.000  N
  N53      1.0000 0.32775  0.67430  0.54666  Biso   1.000  N
  N54      1.0000 0.17225  0.32570  0.04666  Biso   1.000  N
  N55      1.0000 0.67225  0.17430  0.95334  Biso   1.000  N
  N56      1.0000 0.82775  0.82570  0.45334  Biso   1.000  N
  N57      1.0000 0.49965  0.15030  0.29396  Biso   1.000  N
  N58      1.0000 0.00035  0.84970  0.79396  Biso   1.000  N
  N59      1.0000 0.50035  0.65030  0.20604  Biso   1.000  N
  N60      1.0000 0.99965  0.34970  0.70604  Biso   1.000  N
  N61      1.0000 0.50035  0.84970  0.70604  Biso   1.000  N
  N62      1.0000 0.99965  0.15030  0.20604  Biso   1.000  N
  N63      1.0000 0.49965  0.34970  0.79396  Biso   1.000  N
  N64      1.0000 0.00035  0.65030  0.29396  Biso   1.000  N
  N65      1.0000 0.46005  0.18380  0.32648  Biso   1.000  N
  N66      1.0000 0.03995  0.81620  0.82648  Biso   1.000  N
  N67      1.0000 0.53995  0.68380  0.17352  Biso   1.000  N
  N68      1.0000 0.96005  0.31620  0.67352  Biso   1.000  N
  N69      1.0000 0.53995  0.81620  0.67352  Biso   1.000  N
  N70      1.0000 0.96005  0.18380  0.17352  Biso   1.000  N
  N71      1.0000 0.46005  0.31620  0.82648  Biso   1.000  N
  N72      1.0000 0.03995  0.68380  0.32648  Biso   1.000  N
  N73      1.0000 0.46582  0.14160  0.20193  Biso   1.000  N
  N74      1.0000 0.03418  0.85840  0.70193  Biso   1.000  N
  N75      1.0000 0.53418  0.64160  0.29807  Biso   1.000  N
  N76      1.0000 0.96582  0.35840  0.79807  Biso   1.000  N
  N77      1.0000 0.53418  0.85840  0.79807  Biso   1.000  N
  N78      1.0000 0.96582  0.14160  0.29807  Biso   1.000  N
  N79      1.0000 0.46582  0.35840  0.70193  Biso   1.000  N
  N80      1.0000 0.03418  0.64160  0.20193  Biso   1.000  N
  N81      1.0000 0.50576  0.17180  0.16778  Biso   1.000  N
  N82      1.0000 0.99424  0.82820  0.66778  Biso   1.000  N
  N83      1.0000 0.49424  0.67180  0.33222  Biso   1.000  N
  N84      1.0000 0.00576  0.32820  0.83222  Biso   1.000  N
  N85      1.0000 0.49424  0.82820  0.83222  Biso   1.000  N
  N86      1.0000 0.00576  0.17180  0.33222  Biso   1.000  N
  N87      1.0000 0.50576  0.32820  0.66778  Biso   1.000  N
  N88      1.0000 0.99424  0.67180  0.16778  Biso   1.000  N
  N89      1.0000 0.29258  0.32460  0.04720  Biso   1.000  N
  N90      1.0000 0.20742  0.67540  0.54720  Biso   1.000  N
  N91      1.0000 0.70742  0.82460  0.45280  Biso   1.000  N
  N92      1.0000 0.79258  0.17540  0.95280  Biso   1.000  N
  N93      1.0000 0.70742  0.67540  0.95280  Biso   1.000  N
  N94      1.0000 0.79258  0.32460  0.45280  Biso   1.000  N
  N95      1.0000 0.29258  0.17540  0.54720  Biso   1.000  N
  N96      1.0000 0.20742  0.82460  0.04720  Biso   1.000  N
  N97      1.0000 0.72909  0.25840  0.55792  Biso   1.000  N
  N98      1.0000 0.77091  0.74160  0.05792  Biso   1.000  N
  N99      1.0000 0.27091  0.75840  0.94208  Biso   1.000  N
  N100     1.0000 0.22909  0.24160  0.44208  Biso   1.000  N
  N101     1.0000 0.27091  0.74160  0.44208  Biso   1.000  N
  N102     1.0000 0.22909  0.25840  0.94208  Biso   1.000  N
  N103     1.0000 0.72909  0.24160  0.05792  Biso   1.000  N
  N104     1.0000 0.77091  0.75840  0.55792  Biso   1.000  N
  N105     1.0000 0.72718  0.49700  0.43824  Biso   1.000  N
  N106     1.0000 0.77282  0.50300  0.93824  Biso   1.000  N
  N107     1.0000 0.27282  0.99700  0.06176  Biso   1.000  N
  N108     1.0000 0.22718  0.00300  0.56176  Biso   1.000  N
  N109     1.0000 0.27282  0.50300  0.56176  Biso   1.000  N
  N110     1.0000 0.22718  0.49700  0.06176  Biso   1.000  N
  N111     1.0000 0.72718  0.00300  0.93824  Biso   1.000  N
  N112     1.0000 0.77282  0.99700  0.43824  Biso   1.000  N
  C1       1.0000 0.33898  0.55410  0.92360  Biso   1.000  C
  C2       1.0000 0.16102  0.44590  0.42360  Biso   1.000  C
  C3       1.0000 0.66102  0.05410  0.57640  Biso   1.000  C
  C4       1.0000 0.83898  0.94590  0.07640  Biso   1.000  C
  C5       1.0000 0.66102  0.44590  0.07640  Biso   1.000  C
  C6       1.0000 0.83898  0.55410  0.57640  Biso   1.000  C
  C7       1.0000 0.33898  0.94590  0.42360  Biso   1.000  C
  C8       1.0000 0.16102  0.05410  0.92360  Biso   1.000  C
  H1       1.0000 0.34040  0.61070  0.92160  Biso   1.000  H
  H2       1.0000 0.15960  0.38930  0.42160  Biso   1.000  H
  H3       1.0000 0.65960  0.11070  0.57840  Biso   1.000  H
  H4       1.0000 0.84040  0.88930  0.07840  Biso   1.000  H
  H5       1.0000 0.65960  0.38930  0.07840  Biso   1.000  H
  H6       1.0000 0.84040  0.61070  0.57840  Biso   1.000  H
  H7       1.0000 0.34040  0.88930  0.42160  Biso   1.000  H
  H8       1.0000 0.15960  0.11070  0.92160  Biso   1.000  H
  C9       1.0000 0.29595  0.51630  0.95086  Biso   1.000  C
  C10      1.0000 0.20405  0.48370  0.45086  Biso   1.000  C
  C11      1.0000 0.70405  0.01630  0.54914  Biso   1.000  C
  C12      1.0000 0.79595  0.98370  0.04914  Biso   1.000  C
  C13      1.0000 0.70405  0.48370  0.04914  Biso   1.000  C
  C14      1.0000 0.79595  0.51630  0.54914  Biso   1.000  C
  C15      1.0000 0.29595  0.98370  0.45086  Biso   1.000  C
  C16      1.0000 0.20405  0.01630  0.95086  Biso   1.000  C
  H9       1.0000 0.26830  0.54840  0.96590  Biso   1.000  H
  H10      1.0000 0.23170  0.45160  0.46590  Biso   1.000  H
  H11      1.0000 0.73170  0.04840  0.53410  Biso   1.000  H
  H12      1.0000 0.76830  0.95160  0.03410  Biso   1.000  H
  H13      1.0000 0.73170  0.45160  0.03410  Biso   1.000  H
  H14      1.0000 0.76830  0.54840  0.53410  Biso   1.000  H
  H15      1.0000 0.26830  0.95160  0.46590  Biso   1.000  H
  H16      1.0000 0.23170  0.04840  0.96590  Biso   1.000  H
  C17      1.0000 0.33201  0.39000  0.93300  Biso   1.000  C
  C18      1.0000 0.16799  0.61000  0.43300  Biso   1.000  C
  C19      1.0000 0.66799  0.89000  0.56700  Biso   1.000  C
  C20      1.0000 0.83201  0.11000  0.06700  Biso   1.000  C
  C21      1.0000 0.66799  0.61000  0.06700  Biso   1.000  C
  C22      1.0000 0.83201  0.39000  0.56700  Biso   1.000  C
  C23      1.0000 0.33201  0.11000  0.43300  Biso   1.000  C
  C24      1.0000 0.16799  0.89000  0.93300  Biso   1.000  C
  H17      1.0000 0.33010  0.33350  0.93610  Biso   1.000  H
  H18      1.0000 0.16990  0.66650  0.43610  Biso   1.000  H
  H19      1.0000 0.66990  0.83350  0.56390  Biso   1.000  H
  H20      1.0000 0.83010  0.16650  0.06390  Biso   1.000  H
  H21      1.0000 0.66990  0.66650  0.06390  Biso   1.000  H
  H22      1.0000 0.83010  0.33350  0.56390  Biso   1.000  H
  H23      1.0000 0.33010  0.16650  0.43610  Biso   1.000  H
  H24      1.0000 0.16990  0.83350  0.93610  Biso   1.000  H
  C25      1.0000 0.37489  0.42350  0.90490  Biso   1.000  C
  C26      1.0000 0.12511  0.57650  0.40490  Biso   1.000  C
  C27      1.0000 0.62511  0.92350  0.59510  Biso   1.000  C
  C28      1.0000 0.87489  0.07650  0.09510  Biso   1.000  C
  C29      1.0000 0.62511  0.57650  0.09510  Biso   1.000  C
  C30      1.0000 0.87489  0.42350  0.59510  Biso   1.000  C
  C31      1.0000 0.37489  0.07650  0.40490  Biso   1.000  C
  C32      1.0000 0.12511  0.92350  0.90490  Biso   1.000  C
  H25      1.0000 0.40130  0.38970  0.88910  Biso   1.000  H
  H26      1.0000 0.09870  0.61030  0.38910  Biso   1.000  H
  H27      1.0000 0.59870  0.88970  0.61090  Biso   1.000  H
  H28      1.0000 0.90130  0.11030  0.11090  Biso   1.000  H
  H29      1.0000 0.59870  0.61030  0.11090  Biso   1.000  H
  H30      1.0000 0.90130  0.38970  0.61090  Biso   1.000  H
  H31      1.0000 0.40130  0.11030  0.38910  Biso   1.000  H
  H32      1.0000 0.09870  0.88970  0.88910  Biso   1.000  H
  C33      1.0000 0.37962  0.50780  0.89945  Biso   1.000  C
  C34      1.0000 0.12038  0.49220  0.39945  Biso   1.000  C
  C35      1.0000 0.62038  0.00780  0.60055  Biso   1.000  C
  C36      1.0000 0.87962  0.99220  0.10055  Biso   1.000  C
  C37      1.0000 0.62038  0.49220  0.10055  Biso   1.000  C
  C38      1.0000 0.87962  0.50780  0.60055  Biso   1.000  C
  C39      1.0000 0.37962  0.99220  0.39945  Biso   1.000  C
  C40      1.0000 0.12038  0.00780  0.89945  Biso   1.000  C
  C41      1.0000 0.42617  0.54340  0.86874  Biso   1.000  C
  C42      1.0000 0.07383  0.45660  0.36874  Biso   1.000  C
  C43      1.0000 0.57383  0.04340  0.63126  Biso   1.000  C
  C44      1.0000 0.92617  0.95660  0.13126  Biso   1.000  C
  C45      1.0000 0.57383  0.45660  0.13126  Biso   1.000  C
  C46      1.0000 0.92617  0.54340  0.63126  Biso   1.000  C
  C47      1.0000 0.42617  0.95660  0.36874  Biso   1.000  C
  C48      1.0000 0.07383  0.04340  0.86874  Biso   1.000  C
  C49      1.0000 0.48319  0.52520  0.87611  Biso   1.000  C
  C50      1.0000 0.01681  0.47480  0.37611  Biso   1.000  C
  C51      1.0000 0.51681  0.02520  0.62389  Biso   1.000  C
  C52      1.0000 0.98319  0.97480  0.12389  Biso   1.000  C
  C53      1.0000 0.51681  0.47480  0.12389  Biso   1.000  C
  C54      1.0000 0.98319  0.52520  0.62389  Biso   1.000  C
  C55      1.0000 0.48319  0.97480  0.37611  Biso   1.000  C
  C56      1.0000 0.01681  0.02520  0.87611  Biso   1.000  C
  C57      1.0000 0.51080  0.47570  0.91890  Biso   1.000  C
  C58      1.0000 0.98920  0.52430  0.41890  Biso   1.000  C
  C59      1.0000 0.48920  0.97570  0.58110  Biso   1.000  C
  C60      1.0000 0.01080  0.02430  0.08110  Biso   1.000  C
  C61      1.0000 0.48920  0.52430  0.08110  Biso   1.000  C
  C62      1.0000 0.01080  0.47570  0.58110  Biso   1.000  C
  C63      1.0000 0.51080  0.02430  0.41890  Biso   1.000  C
  C64      1.0000 0.98920  0.97570  0.91890  Biso   1.000  C
  H33      1.0000 0.54920  0.47040  0.91030  Biso   1.000  H
  H34      1.0000 0.95080  0.52960  0.41030  Biso   1.000  H
  H35      1.0000 0.45080  0.97040  0.58970  Biso   1.000  H
  H36      1.0000 0.04920  0.02960  0.08970  Biso   1.000  H
  H37      1.0000 0.45080  0.52960  0.08970  Biso   1.000  H
  H38      1.0000 0.04920  0.47040  0.58970  Biso   1.000  H
  H39      1.0000 0.54920  0.02960  0.41030  Biso   1.000  H
  H40      1.0000 0.95080  0.97040  0.91030  Biso   1.000  H
  H41      1.0000 0.49420  0.42260  0.92030  Biso   1.000  H
  H42      1.0000 0.00580  0.57740  0.42030  Biso   1.000  H
  H43      1.0000 0.50580  0.92260  0.57970  Biso   1.000  H
  H44      1.0000 0.99420  0.07740  0.07970  Biso   1.000  H
  H45      1.0000 0.50580  0.57740  0.07970  Biso   1.000  H
  H46      1.0000 0.99420  0.42260  0.57970  Biso   1.000  H
  H47      1.0000 0.49420  0.07740  0.42030  Biso   1.000  H
  H48      1.0000 0.00580  0.92260  0.92030  Biso   1.000  H
  H49      1.0000 0.50680  0.50210  0.95370  Biso   1.000  H
  H50      1.0000 0.99320  0.49790  0.45370  Biso   1.000  H
  H51      1.0000 0.49320  0.00210  0.54630  Biso   1.000  H
  H52      1.0000 0.00680  0.99790  0.04630  Biso   1.000  H
  H53      1.0000 0.49320  0.49790  0.04630  Biso   1.000  H
  H54      1.0000 0.00680  0.50210  0.54630  Biso   1.000  H
  H55      1.0000 0.50680  0.99790  0.45370  Biso   1.000  H
  H56      1.0000 0.99320  0.00210  0.95370  Biso   1.000  H
  C65      1.0000 0.42379  0.59730  0.82558  Biso   1.000  C
  C66      1.0000 0.07621  0.40270  0.32558  Biso   1.000  C
  C67      1.0000 0.57621  0.09730  0.67442  Biso   1.000  C
  C68      1.0000 0.92379  0.90270  0.17442  Biso   1.000  C
  C69      1.0000 0.57621  0.40270  0.17442  Biso   1.000  C
  C70      1.0000 0.92379  0.59730  0.67442  Biso   1.000  C
  C71      1.0000 0.42379  0.90270  0.32558  Biso   1.000  C
  C72      1.0000 0.07621  0.09730  0.82558  Biso   1.000  C
  C73      1.0000 0.37630  0.63670  0.79880  Biso   1.000  C
  C74      1.0000 0.12370  0.36330  0.29880  Biso   1.000  C
  C75      1.0000 0.62370  0.13670  0.70120  Biso   1.000  C
  C76      1.0000 0.87630  0.86330  0.20120  Biso   1.000  C
  C77      1.0000 0.62370  0.36330  0.20120  Biso   1.000  C
  C78      1.0000 0.87630  0.63670  0.70120  Biso   1.000  C
  C79      1.0000 0.37630  0.86330  0.29880  Biso   1.000  C
  C80      1.0000 0.12370  0.13670  0.79880  Biso   1.000  C
  H57      1.0000 0.37830  0.69460  0.80430  Biso   1.000  H
  H58      1.0000 0.12170  0.30540  0.30430  Biso   1.000  H
  H59      1.0000 0.62170  0.19460  0.69570  Biso   1.000  H
  H60      1.0000 0.87830  0.80540  0.19570  Biso   1.000  H
  H61      1.0000 0.62170  0.30540  0.19570  Biso   1.000  H
  H62      1.0000 0.87830  0.69460  0.69570  Biso   1.000  H
  H63      1.0000 0.37830  0.80540  0.30430  Biso   1.000  H
  H64      1.0000 0.12170  0.19460  0.80430  Biso   1.000  H
  H65      1.0000 0.34280  0.61620  0.81450  Biso   1.000  H
  H66      1.0000 0.15720  0.38380  0.31450  Biso   1.000  H
  H67      1.0000 0.65720  0.11620  0.68550  Biso   1.000  H
  H68      1.0000 0.84280  0.88380  0.18550  Biso   1.000  H
  H69      1.0000 0.65720  0.38380  0.18550  Biso   1.000  H
  H70      1.0000 0.84280  0.61620  0.68550  Biso   1.000  H
  H71      1.0000 0.34280  0.88380  0.31450  Biso   1.000  H
  H72      1.0000 0.15720  0.11620  0.81450  Biso   1.000  H
  H73      1.0000 0.37700  0.62490  0.76040  Biso   1.000  H
  H74      1.0000 0.12300  0.37510  0.26040  Biso   1.000  H
  H75      1.0000 0.62300  0.12490  0.73960  Biso   1.000  H
  H76      1.0000 0.87700  0.87510  0.23960  Biso   1.000  H
  H77      1.0000 0.62300  0.37510  0.23960  Biso   1.000  H
  H78      1.0000 0.87700  0.62490  0.73960  Biso   1.000  H
  H79      1.0000 0.37700  0.87510  0.26040  Biso   1.000  H
  H80      1.0000 0.12300  0.12490  0.76040  Biso   1.000  H
  C81      1.0000 0.49680  0.65590  0.76384  Biso   1.000  C
  C82      1.0000 0.00320  0.34410  0.26384  Biso   1.000  C
  C83      1.0000 0.50320  0.15590  0.73616  Biso   1.000  C
  C84      1.0000 0.99680  0.84410  0.23616  Biso   1.000  C
  C85      1.0000 0.50320  0.34410  0.23616  Biso   1.000  C
  C86      1.0000 0.99680  0.65590  0.73616  Biso   1.000  C
  C87      1.0000 0.49680  0.84410  0.26384  Biso   1.000  C
  C88      1.0000 0.00320  0.15590  0.76384  Biso   1.000  C
  H81      1.0000 0.52940  0.68550  0.77530  Biso   1.000  H
  H82      1.0000 0.97060  0.31450  0.27530  Biso   1.000  H
  H83      1.0000 0.47060  0.18550  0.72470  Biso   1.000  H
  H84      1.0000 0.02940  0.81450  0.22470  Biso   1.000  H
  H85      1.0000 0.47060  0.31450  0.22470  Biso   1.000  H
  H86      1.0000 0.02940  0.68550  0.72470  Biso   1.000  H
  H87      1.0000 0.52940  0.81450  0.27530  Biso   1.000  H
  H88      1.0000 0.97060  0.18550  0.77530  Biso   1.000  H
  H89      1.0000 0.46910  0.69560  0.75330  Biso   1.000  H
  H90      1.0000 0.03090  0.30440  0.25330  Biso   1.000  H
  H91      1.0000 0.53090  0.19560  0.74670  Biso   1.000  H
  H92      1.0000 0.96910  0.80440  0.24670  Biso   1.000  H
  H93      1.0000 0.53090  0.30440  0.24670  Biso   1.000  H
  H94      1.0000 0.96910  0.69560  0.74670  Biso   1.000  H
  H95      1.0000 0.46910  0.80440  0.25330  Biso   1.000  H
  H96      1.0000 0.03090  0.19560  0.75330  Biso   1.000  H
  C89      1.0000 0.56037  0.58060  0.69964  Biso   1.000  C
  C90      1.0000 0.93963  0.41940  0.19964  Biso   1.000  C
  C91      1.0000 0.43963  0.08060  0.80036  Biso   1.000  C
  C92      1.0000 0.06037  0.91940  0.30036  Biso   1.000  C
  C93      1.0000 0.43963  0.41940  0.30036  Biso   1.000  C
  C94      1.0000 0.06037  0.58060  0.80036  Biso   1.000  C
  C95      1.0000 0.56037  0.91940  0.19964  Biso   1.000  C
  C96      1.0000 0.93963  0.08060  0.69964  Biso   1.000  C
  C97      1.0000 0.61165  0.60230  0.72870  Biso   1.000  C
  C98      1.0000 0.88835  0.39770  0.22870  Biso   1.000  C
  C99      1.0000 0.38835  0.10230  0.77130  Biso   1.000  C
  C100     1.0000 0.11165  0.89770  0.27130  Biso   1.000  C
  C101     1.0000 0.38835  0.39770  0.27130  Biso   1.000  C
  C102     1.0000 0.11165  0.60230  0.77130  Biso   1.000  C
  C103     1.0000 0.61165  0.89770  0.22870  Biso   1.000  C
  C104     1.0000 0.88835  0.10230  0.72870  Biso   1.000  C
  H97      1.0000 0.61410  0.66060  0.73200  Biso   1.000  H
  H98      1.0000 0.88590  0.33940  0.23200  Biso   1.000  H
  H99      1.0000 0.38590  0.16060  0.76800  Biso   1.000  H
  H100     1.0000 0.11410  0.83940  0.26800  Biso   1.000  H
  H101     1.0000 0.38590  0.33940  0.26800  Biso   1.000  H
  H102     1.0000 0.11410  0.66060  0.76800  Biso   1.000  H
  H103     1.0000 0.61410  0.83940  0.23200  Biso   1.000  H
  H104     1.0000 0.88590  0.16060  0.73200  Biso   1.000  H
  H105     1.0000 0.64280  0.58230  0.70850  Biso   1.000  H
  H106     1.0000 0.85720  0.41770  0.20850  Biso   1.000  H
  H107     1.0000 0.35720  0.08230  0.79150  Biso   1.000  H
  H108     1.0000 0.14280  0.91770  0.29150  Biso   1.000  H
  H109     1.0000 0.35720  0.41770  0.29150  Biso   1.000  H
  H110     1.0000 0.14280  0.58230  0.79150  Biso   1.000  H
  H111     1.0000 0.64280  0.91770  0.20850  Biso   1.000  H
  H112     1.0000 0.85720  0.08230  0.70850  Biso   1.000  H
  H113     1.0000 0.61140  0.57820  0.76440  Biso   1.000  H
  H114     1.0000 0.88860  0.42180  0.26440  Biso   1.000  H
  H115     1.0000 0.38860  0.07820  0.73560  Biso   1.000  H
  H116     1.0000 0.11140  0.92180  0.23560  Biso   1.000  H
  H117     1.0000 0.38860  0.42180  0.23560  Biso   1.000  H
  H118     1.0000 0.11140  0.57820  0.73560  Biso   1.000  H
  H119     1.0000 0.61140  0.92180  0.26440  Biso   1.000  H
  H120     1.0000 0.88860  0.07820  0.76440  Biso   1.000  H
  C105     1.0000 0.55083  0.53820  0.65154  Biso   1.000  C
  C106     1.0000 0.94917  0.46180  0.15154  Biso   1.000  C
  C107     1.0000 0.44917  0.03820  0.84846  Biso   1.000  C
  C108     1.0000 0.05083  0.96180  0.34846  Biso   1.000  C
  C109     1.0000 0.44917  0.46180  0.34846  Biso   1.000  C
  C110     1.0000 0.05083  0.53820  0.84846  Biso   1.000  C
  C111     1.0000 0.55083  0.96180  0.15154  Biso   1.000  C
  C112     1.0000 0.94917  0.03820  0.65154  Biso   1.000  C
  C113     1.0000 0.49281  0.54190  0.64291  Biso   1.000  C
  C114     1.0000 0.00719  0.45810  0.14291  Biso   1.000  C
  C115     1.0000 0.50719  0.04190  0.85709  Biso   1.000  C
  C116     1.0000 0.99281  0.95810  0.35709  Biso   1.000  C
  C117     1.0000 0.50719  0.45810  0.35709  Biso   1.000  C
  C118     1.0000 0.99281  0.54190  0.85709  Biso   1.000  C
  C119     1.0000 0.49281  0.95810  0.14291  Biso   1.000  C
  C120     1.0000 0.00719  0.04190  0.64291  Biso   1.000  C
  C121     1.0000 0.45910  0.50660  0.59800  Biso   1.000  C
  C122     1.0000 0.04090  0.49340  0.09800  Biso   1.000  C
  C123     1.0000 0.54090  0.00660  0.90200  Biso   1.000  C
  C124     1.0000 0.95910  0.99340  0.40200  Biso   1.000  C
  C125     1.0000 0.54090  0.49340  0.40200  Biso   1.000  C
  C126     1.0000 0.95910  0.50660  0.90200  Biso   1.000  C
  C127     1.0000 0.45910  0.99340  0.09800  Biso   1.000  C
  C128     1.0000 0.04090  0.00660  0.59800  Biso   1.000  C
  H121     1.0000 0.42170  0.49990  0.61030  Biso   1.000  H
  H122     1.0000 0.07830  0.50010  0.11030  Biso   1.000  H
  H123     1.0000 0.57830  0.99990  0.88970  Biso   1.000  H
  H124     1.0000 0.92170  0.00010  0.38970  Biso   1.000  H
  H125     1.0000 0.57830  0.50010  0.38970  Biso   1.000  H
  H126     1.0000 0.92170  0.49990  0.88970  Biso   1.000  H
  H127     1.0000 0.42170  0.00010  0.11030  Biso   1.000  H
  H128     1.0000 0.07830  0.99990  0.61030  Biso   1.000  H
  H129     1.0000 0.47390  0.45460  0.58770  Biso   1.000  H
  H130     1.0000 0.02610  0.54540  0.08770  Biso   1.000  H
  H131     1.0000 0.52610  0.95460  0.91230  Biso   1.000  H
  H132     1.0000 0.97390  0.04540  0.41230  Biso   1.000  H
  H133     1.0000 0.52610  0.54540  0.41230  Biso   1.000  H
  H134     1.0000 0.97390  0.45460  0.91230  Biso   1.000  H
  H135     1.0000 0.47390  0.04540  0.08770  Biso   1.000  H
  H136     1.0000 0.02610  0.95460  0.58770  Biso   1.000  H
  H137     1.0000 0.45970  0.54270  0.56710  Biso   1.000  H
  H138     1.0000 0.04030  0.45730  0.06710  Biso   1.000  H
  H139     1.0000 0.54030  0.04270  0.93290  Biso   1.000  H
  H140     1.0000 0.95970  0.95730  0.43290  Biso   1.000  H
  H141     1.0000 0.54030  0.45730  0.43290  Biso   1.000  H
  H142     1.0000 0.95970  0.54270  0.93290  Biso   1.000  H
  H143     1.0000 0.45970  0.95730  0.06710  Biso   1.000  H
  H144     1.0000 0.04030  0.04270  0.56710  Biso   1.000  H
  C129     1.0000 0.59236  0.50040  0.61558  Biso   1.000  C
  C130     1.0000 0.90764  0.49960  0.11558  Biso   1.000  C
  C131     1.0000 0.40764  0.00040  0.88442  Biso   1.000  C
  C132     1.0000 0.09236  0.99960  0.38442  Biso   1.000  C
  C133     1.0000 0.40764  0.49960  0.38442  Biso   1.000  C
  C134     1.0000 0.09236  0.50040  0.88442  Biso   1.000  C
  C135     1.0000 0.59236  0.99960  0.11558  Biso   1.000  C
  C136     1.0000 0.90764  0.00040  0.61558  Biso   1.000  C
  C137     1.0000 0.63447  0.45160  0.63615  Biso   1.000  C
  C138     1.0000 0.86553  0.54840  0.13615  Biso   1.000  C
  C139     1.0000 0.36553  0.95160  0.86385  Biso   1.000  C
  C140     1.0000 0.13447  0.04840  0.36385  Biso   1.000  C
  C141     1.0000 0.36553  0.54840  0.36385  Biso   1.000  C
  C142     1.0000 0.13447  0.45160  0.86385  Biso   1.000  C
  C143     1.0000 0.63447  0.04840  0.13615  Biso   1.000  C
  C144     1.0000 0.86553  0.95160  0.63615  Biso   1.000  C
  H145     1.0000 0.63640  0.44090  0.67350  Biso   1.000  H
  H146     1.0000 0.86360  0.55910  0.17350  Biso   1.000  H
  H147     1.0000 0.36360  0.94090  0.82650  Biso   1.000  H
  H148     1.0000 0.13640  0.05910  0.32650  Biso   1.000  H
  H149     1.0000 0.36360  0.55910  0.32650  Biso   1.000  H
  H150     1.0000 0.13640  0.44090  0.82650  Biso   1.000  H
  H151     1.0000 0.63640  0.05910  0.17350  Biso   1.000  H
  H152     1.0000 0.86360  0.94090  0.67350  Biso   1.000  H
  C145     1.0000 0.67324  0.41920  0.60140  Biso   1.000  C
  C146     1.0000 0.82676  0.58080  0.10140  Biso   1.000  C
  C147     1.0000 0.32676  0.91920  0.89860  Biso   1.000  C
  C148     1.0000 0.17324  0.08080  0.39860  Biso   1.000  C
  C149     1.0000 0.32676  0.58080  0.39860  Biso   1.000  C
  C150     1.0000 0.17324  0.41920  0.89860  Biso   1.000  C
  C151     1.0000 0.67324  0.08080  0.10140  Biso   1.000  C
  C152     1.0000 0.82676  0.91920  0.60140  Biso   1.000  C
  H153     1.0000 0.70080  0.38660  0.61620  Biso   1.000  H
  H154     1.0000 0.79920  0.61340  0.11620  Biso   1.000  H
  H155     1.0000 0.29920  0.88660  0.88380  Biso   1.000  H
  H156     1.0000 0.20080  0.11340  0.38380  Biso   1.000  H
  H157     1.0000 0.29920  0.61340  0.38380  Biso   1.000  H
  H158     1.0000 0.20080  0.38660  0.88380  Biso   1.000  H
  H159     1.0000 0.70080  0.11340  0.11620  Biso   1.000  H
  H160     1.0000 0.79920  0.88660  0.61620  Biso   1.000  H
  C153     1.0000 0.63306  0.47920  0.52764  Biso   1.000  C
  C154     1.0000 0.86694  0.52080  0.02764  Biso   1.000  C
  C155     1.0000 0.36694  0.97920  0.97236  Biso   1.000  C
  C156     1.0000 0.13306  0.02080  0.47236  Biso   1.000  C
  C157     1.0000 0.36694  0.52080  0.47236  Biso   1.000  C
  C158     1.0000 0.13306  0.47920  0.97236  Biso   1.000  C
  C159     1.0000 0.63306  0.02080  0.02764  Biso   1.000  C
  C160     1.0000 0.86694  0.97920  0.52764  Biso   1.000  C
  H161     1.0000 0.63250  0.48940  0.49020  Biso   1.000  H
  H162     1.0000 0.86750  0.51060  0.99020  Biso   1.000  H
  H163     1.0000 0.36750  0.98940  0.00980  Biso   1.000  H
  H164     1.0000 0.13250  0.01060  0.50980  Biso   1.000  H
  H165     1.0000 0.36750  0.51060  0.50980  Biso   1.000  H
  H166     1.0000 0.13250  0.48940  0.00980  Biso   1.000  H
  H167     1.0000 0.63250  0.01060  0.99020  Biso   1.000  H
  H168     1.0000 0.86750  0.98940  0.49020  Biso   1.000  H
  C161     1.0000 0.59253  0.51320  0.55952  Biso   1.000  C
  C162     1.0000 0.90747  0.48680  0.05952  Biso   1.000  C
  C163     1.0000 0.40747  0.01320  0.94048  Biso   1.000  C
  C164     1.0000 0.09253  0.98680  0.44048  Biso   1.000  C
  C165     1.0000 0.40747  0.48680  0.44048  Biso   1.000  C
  C166     1.0000 0.09253  0.51320  0.94048  Biso   1.000  C
  C167     1.0000 0.59253  0.98680  0.05952  Biso   1.000  C
  C168     1.0000 0.90747  0.01320  0.55952  Biso   1.000  C
  H169     1.0000 0.56520  0.54500  0.54350  Biso   1.000  H
  H170     1.0000 0.93480  0.45500  0.04350  Biso   1.000  H
  H171     1.0000 0.43480  0.04500  0.95650  Biso   1.000  H
  H172     1.0000 0.06520  0.95500  0.45650  Biso   1.000  H
  H173     1.0000 0.43480  0.45500  0.45650  Biso   1.000  H
  H174     1.0000 0.06520  0.54500  0.95650  Biso   1.000  H
  H175     1.0000 0.56520  0.95500  0.04350  Biso   1.000  H
  H176     1.0000 0.93480  0.04500  0.54350  Biso   1.000  H
  C169     1.0000 0.59055  0.24650  0.44557  Biso   1.000  C
  C170     1.0000 0.90945  0.75350  0.94557  Biso   1.000  C
  C171     1.0000 0.40945  0.74650  0.05443  Biso   1.000  C
  C172     1.0000 0.09055  0.25350  0.55443  Biso   1.000  C
  C173     1.0000 0.40945  0.75350  0.55443  Biso   1.000  C
  C174     1.0000 0.09055  0.24650  0.05443  Biso   1.000  C
  C175     1.0000 0.59055  0.25350  0.94557  Biso   1.000  C
  C176     1.0000 0.90945  0.74650  0.44557  Biso   1.000  C
  H177     1.0000 0.56330  0.21620  0.46300  Biso   1.000  H
  H178     1.0000 0.93670  0.78380  0.96300  Biso   1.000  H
  H179     1.0000 0.43670  0.71620  0.03700  Biso   1.000  H
  H180     1.0000 0.06330  0.28380  0.53700  Biso   1.000  H
  H181     1.0000 0.43670  0.78380  0.53700  Biso   1.000  H
  H182     1.0000 0.06330  0.21620  0.03700  Biso   1.000  H
  H183     1.0000 0.56330  0.28380  0.96300  Biso   1.000  H
  H184     1.0000 0.93670  0.71620  0.46300  Biso   1.000  H
  C177     1.0000 0.63172  0.28140  0.47574  Biso   1.000  C
  C178     1.0000 0.86828  0.71860  0.97574  Biso   1.000  C
  C179     1.0000 0.36828  0.78140  0.02426  Biso   1.000  C
  C180     1.0000 0.13172  0.21860  0.52426  Biso   1.000  C
  C181     1.0000 0.36828  0.71860  0.52426  Biso   1.000  C
  C182     1.0000 0.13172  0.28140  0.02426  Biso   1.000  C
  C183     1.0000 0.63172  0.21860  0.97574  Biso   1.000  C
  C184     1.0000 0.86828  0.78140  0.47574  Biso   1.000  C
  H185     1.0000 0.63160  0.27410  0.51350  Biso   1.000  H
  H186     1.0000 0.86840  0.72590  0.01350  Biso   1.000  H
  H187     1.0000 0.36840  0.77410  0.98650  Biso   1.000  H
  H188     1.0000 0.13160  0.22590  0.48650  Biso   1.000  H
  H189     1.0000 0.36840  0.72590  0.48650  Biso   1.000  H
  H190     1.0000 0.13160  0.27410  0.98650  Biso   1.000  H
  H191     1.0000 0.63160  0.22590  0.01350  Biso   1.000  H
  H192     1.0000 0.86840  0.77410  0.51350  Biso   1.000  H
  C185     1.0000 0.67169  0.33480  0.39876  Biso   1.000  C
  C186     1.0000 0.82831  0.66520  0.89876  Biso   1.000  C
  C187     1.0000 0.32831  0.83480  0.10124  Biso   1.000  C
  C188     1.0000 0.17169  0.16520  0.60124  Biso   1.000  C
  C189     1.0000 0.32831  0.66520  0.60124  Biso   1.000  C
  C190     1.0000 0.17169  0.33480  0.10124  Biso   1.000  C
  C191     1.0000 0.67169  0.16520  0.89876  Biso   1.000  C
  C192     1.0000 0.82831  0.83480  0.39876  Biso   1.000  C
  H193     1.0000 0.69950  0.36510  0.38230  Biso   1.000  H
  H194     1.0000 0.80050  0.63490  0.88230  Biso   1.000  H
  H195     1.0000 0.30050  0.86510  0.11770  Biso   1.000  H
  H196     1.0000 0.19950  0.13490  0.61770  Biso   1.000  H
  H197     1.0000 0.30050  0.63490  0.61770  Biso   1.000  H
  H198     1.0000 0.19950  0.36510  0.11770  Biso   1.000  H
  H199     1.0000 0.69950  0.13490  0.88230  Biso   1.000  H
  H200     1.0000 0.80050  0.86510  0.38230  Biso   1.000  H
  C193     1.0000 0.63150  0.30100  0.36632  Biso   1.000  C
  C194     1.0000 0.86850  0.69900  0.86632  Biso   1.000  C
  C195     1.0000 0.36850  0.80100  0.13368  Biso   1.000  C
  C196     1.0000 0.13150  0.19900  0.63368  Biso   1.000  C
  C197     1.0000 0.36850  0.69900  0.63368  Biso   1.000  C
  C198     1.0000 0.13150  0.30100  0.13368  Biso   1.000  C
  C199     1.0000 0.63150  0.19900  0.86632  Biso   1.000  C
  C200     1.0000 0.86850  0.80100  0.36632  Biso   1.000  C
  H201     1.0000 0.63280  0.30870  0.32870  Biso   1.000  H
  H202     1.0000 0.86720  0.69130  0.82870  Biso   1.000  H
  H203     1.0000 0.36720  0.80870  0.17130  Biso   1.000  H
  H204     1.0000 0.13280  0.19130  0.67130  Biso   1.000  H
  H205     1.0000 0.36720  0.69130  0.67130  Biso   1.000  H
  H206     1.0000 0.13280  0.30870  0.17130  Biso   1.000  H
  H207     1.0000 0.63280  0.19130  0.82870  Biso   1.000  H
  H208     1.0000 0.86720  0.80870  0.32870  Biso   1.000  H
  C201     1.0000 0.58912  0.25580  0.38889  Biso   1.000  C
  C202     1.0000 0.91088  0.74420  0.88889  Biso   1.000  C
  C203     1.0000 0.41088  0.75580  0.11111  Biso   1.000  C
  C204     1.0000 0.08912  0.24420  0.61111  Biso   1.000  C
  C205     1.0000 0.41088  0.74420  0.61111  Biso   1.000  C
  C206     1.0000 0.08912  0.25580  0.11111  Biso   1.000  C
  C207     1.0000 0.58912  0.24420  0.88889  Biso   1.000  C
  C208     1.0000 0.91088  0.75580  0.38889  Biso   1.000  C
  C209     1.0000 0.54530  0.21890  0.35563  Biso   1.000  C
  C210     1.0000 0.95470  0.78110  0.85563  Biso   1.000  C
  C211     1.0000 0.45470  0.71890  0.14437  Biso   1.000  C
  C212     1.0000 0.04530  0.28110  0.64437  Biso   1.000  C
  C213     1.0000 0.45470  0.78110  0.64437  Biso   1.000  C
  C214     1.0000 0.04530  0.21890  0.14437  Biso   1.000  C
  C215     1.0000 0.54530  0.28110  0.85563  Biso   1.000  C
  C216     1.0000 0.95470  0.71890  0.35563  Biso   1.000  C
  C217     1.0000 0.55174  0.17090  0.30940  Biso   1.000  C
  C218     1.0000 0.94826  0.82910  0.80940  Biso   1.000  C
  C219     1.0000 0.44826  0.67090  0.19060  Biso   1.000  C
  C220     1.0000 0.05174  0.32910  0.69060  Biso   1.000  C
  C221     1.0000 0.44826  0.82910  0.69060  Biso   1.000  C
  C222     1.0000 0.05174  0.17090  0.19060  Biso   1.000  C
  C223     1.0000 0.55174  0.32910  0.80940  Biso   1.000  C
  C224     1.0000 0.94826  0.67090  0.30940  Biso   1.000  C
  C225     1.0000 0.60060  0.14060  0.28040  Biso   1.000  C
  C226     1.0000 0.89940  0.85940  0.78040  Biso   1.000  C
  C227     1.0000 0.39940  0.64060  0.21960  Biso   1.000  C
  C228     1.0000 0.10060  0.35940  0.71960  Biso   1.000  C
  C229     1.0000 0.39940  0.85940  0.71960  Biso   1.000  C
  C230     1.0000 0.10060  0.14060  0.21960  Biso   1.000  C
  C231     1.0000 0.60060  0.35940  0.78040  Biso   1.000  C
  C232     1.0000 0.89940  0.64060  0.28040  Biso   1.000  C
  H209     1.0000 0.60360  0.08270  0.28550  Biso   1.000  H
  H210     1.0000 0.89640  0.91730  0.78550  Biso   1.000  H
  H211     1.0000 0.39640  0.58270  0.21450  Biso   1.000  H
  H212     1.0000 0.10360  0.41730  0.71450  Biso   1.000  H
  H213     1.0000 0.39640  0.91730  0.71450  Biso   1.000  H
  H214     1.0000 0.10360  0.08270  0.21450  Biso   1.000  H
  H215     1.0000 0.60360  0.41730  0.78550  Biso   1.000  H
  H216     1.0000 0.89640  0.58270  0.28550  Biso   1.000  H
  H217     1.0000 0.63290  0.16690  0.29460  Biso   1.000  H
  H218     1.0000 0.86710  0.83310  0.79460  Biso   1.000  H
  H219     1.0000 0.36710  0.66690  0.20540  Biso   1.000  H
  H220     1.0000 0.13290  0.33310  0.70540  Biso   1.000  H
  H221     1.0000 0.36710  0.83310  0.70540  Biso   1.000  H
  H222     1.0000 0.13290  0.16690  0.20540  Biso   1.000  H
  H223     1.0000 0.63290  0.33310  0.79460  Biso   1.000  H
  H224     1.0000 0.86710  0.66690  0.29460  Biso   1.000  H
  H225     1.0000 0.59710  0.15240  0.24210  Biso   1.000  H
  H226     1.0000 0.90290  0.84760  0.74210  Biso   1.000  H
  H227     1.0000 0.40290  0.65240  0.25790  Biso   1.000  H
  H228     1.0000 0.09710  0.34760  0.75790  Biso   1.000  H
  H229     1.0000 0.40290  0.84760  0.75790  Biso   1.000  H
  H230     1.0000 0.09710  0.15240  0.25790  Biso   1.000  H
  H231     1.0000 0.59710  0.34760  0.74210  Biso   1.000  H
  H232     1.0000 0.90290  0.65240  0.24210  Biso   1.000  H
  C233     1.0000 0.48824  0.22450  0.36470  Biso   1.000  C
  C234     1.0000 0.01176  0.77550  0.86470  Biso   1.000  C
  C235     1.0000 0.51176  0.72450  0.13530  Biso   1.000  C
  C236     1.0000 0.98824  0.27550  0.63530  Biso   1.000  C
  C237     1.0000 0.51176  0.77550  0.63530  Biso   1.000  C
  C238     1.0000 0.98824  0.22450  0.13530  Biso   1.000  C
  C239     1.0000 0.48824  0.27550  0.86470  Biso   1.000  C
  C240     1.0000 0.01176  0.72450  0.36470  Biso   1.000  C
  C241     1.0000 0.45760  0.26730  0.40909  Biso   1.000  C
  C242     1.0000 0.04240  0.73270  0.90909  Biso   1.000  C
  C243     1.0000 0.54240  0.76730  0.09091  Biso   1.000  C
  C244     1.0000 0.95760  0.23270  0.59091  Biso   1.000  C
  C245     1.0000 0.54240  0.73270  0.59091  Biso   1.000  C
  C246     1.0000 0.95760  0.26730  0.09091  Biso   1.000  C
  C247     1.0000 0.45760  0.23270  0.90909  Biso   1.000  C
  C248     1.0000 0.04240  0.76730  0.40909  Biso   1.000  C
  H233     1.0000 0.42190  0.28320  0.39590  Biso   1.000  H
  H234     1.0000 0.07810  0.71680  0.89590  Biso   1.000  H
  H235     1.0000 0.57810  0.78320  0.10410  Biso   1.000  H
  H236     1.0000 0.92190  0.21680  0.60410  Biso   1.000  H
  H237     1.0000 0.57810  0.71680  0.60410  Biso   1.000  H
  H238     1.0000 0.92190  0.28320  0.10410  Biso   1.000  H
  H239     1.0000 0.42190  0.21680  0.89590  Biso   1.000  H
  H240     1.0000 0.07810  0.78320  0.39590  Biso   1.000  H
  H241     1.0000 0.47780  0.31500  0.42010  Biso   1.000  H
  H242     1.0000 0.02220  0.68500  0.92010  Biso   1.000  H
  H243     1.0000 0.52220  0.81500  0.07990  Biso   1.000  H
  H244     1.0000 0.97780  0.18500  0.57990  Biso   1.000  H
  H245     1.0000 0.52220  0.68500  0.57990  Biso   1.000  H
  H246     1.0000 0.97780  0.31500  0.07990  Biso   1.000  H
  H247     1.0000 0.47780  0.18500  0.92010  Biso   1.000  H
  H248     1.0000 0.02220  0.81500  0.42010  Biso   1.000  H
  H249     1.0000 0.45340  0.23130  0.43980  Biso   1.000  H
  H250     1.0000 0.04660  0.76870  0.93980  Biso   1.000  H
  H251     1.0000 0.54660  0.73130  0.06020  Biso   1.000  H
  H252     1.0000 0.95340  0.26870  0.56020  Biso   1.000  H
  H253     1.0000 0.54660  0.76870  0.56020  Biso   1.000  H
  H254     1.0000 0.95340  0.23130  0.06020  Biso   1.000  H
  H255     1.0000 0.45340  0.26870  0.93980  Biso   1.000  H
  H256     1.0000 0.04660  0.73130  0.43980  Biso   1.000  H
  C249     1.0000 0.48249  0.09690  0.24971  Biso   1.000  C
  C250     1.0000 0.01751  0.90310  0.74971  Biso   1.000  C
  C251     1.0000 0.51751  0.59690  0.25029  Biso   1.000  C
  C252     1.0000 0.98249  0.40310  0.75029  Biso   1.000  C
  C253     1.0000 0.51751  0.90310  0.75029  Biso   1.000  C
  C254     1.0000 0.98249  0.09690  0.25029  Biso   1.000  C
  C255     1.0000 0.48249  0.40310  0.74971  Biso   1.000  C
  C256     1.0000 0.01751  0.59690  0.24971  Biso   1.000  C
  H257     1.0000 0.51270  0.06090  0.24020  Biso   1.000  H
  H258     1.0000 0.98730  0.93910  0.74020  Biso   1.000  H
  H259     1.0000 0.48730  0.56090  0.25980  Biso   1.000  H
  H260     1.0000 0.01270  0.43910  0.75980  Biso   1.000  H
  H261     1.0000 0.48730  0.93910  0.75980  Biso   1.000  H
  H262     1.0000 0.01270  0.06090  0.25980  Biso   1.000  H
  H263     1.0000 0.51270  0.43910  0.74020  Biso   1.000  H
  H264     1.0000 0.98730  0.56090  0.24020  Biso   1.000  H
  H265     1.0000 0.45200  0.06330  0.26210  Biso   1.000  H
  H266     1.0000 0.04800  0.93670  0.76210  Biso   1.000  H
  H267     1.0000 0.54800  0.56330  0.23790  Biso   1.000  H
  H268     1.0000 0.95200  0.43670  0.73790  Biso   1.000  H
  H269     1.0000 0.54800  0.93670  0.73790  Biso   1.000  H
  H270     1.0000 0.95200  0.06330  0.23790  Biso   1.000  H
  H271     1.0000 0.45200  0.43670  0.76210  Biso   1.000  H
  H272     1.0000 0.04800  0.56330  0.26210  Biso   1.000  H
  C257     1.0000 0.47815  0.21340  0.12977  Biso   1.000  C
  C258     1.0000 0.02185  0.78660  0.62977  Biso   1.000  C
  C259     1.0000 0.52185  0.71340  0.37023  Biso   1.000  C
  C260     1.0000 0.97815  0.28660  0.87023  Biso   1.000  C
  C261     1.0000 0.52185  0.78660  0.87023  Biso   1.000  C
  C262     1.0000 0.97815  0.21340  0.37023  Biso   1.000  C
  C263     1.0000 0.47815  0.28660  0.62977  Biso   1.000  C
  C264     1.0000 0.02185  0.71340  0.12977  Biso   1.000  C
  C265     1.0000 0.50780  0.25090  0.08340  Biso   1.000  C
  C266     1.0000 0.99220  0.74910  0.58340  Biso   1.000  C
  C267     1.0000 0.49220  0.75090  0.41660  Biso   1.000  C
  C268     1.0000 0.00780  0.24910  0.91660  Biso   1.000  C
  C269     1.0000 0.49220  0.74910  0.91660  Biso   1.000  C
  C270     1.0000 0.00780  0.25090  0.41660  Biso   1.000  C
  C271     1.0000 0.50780  0.24910  0.58340  Biso   1.000  C
  C272     1.0000 0.99220  0.75090  0.08340  Biso   1.000  C
  H273     1.0000 0.54660  0.25250  0.09130  Biso   1.000  H
  H274     1.0000 0.95340  0.74750  0.59130  Biso   1.000  H
  H275     1.0000 0.45340  0.75250  0.40870  Biso   1.000  H
  H276     1.0000 0.04660  0.24750  0.90870  Biso   1.000  H
  H277     1.0000 0.45340  0.74750  0.90870  Biso   1.000  H
  H278     1.0000 0.04660  0.25250  0.40870  Biso   1.000  H
  H279     1.0000 0.54660  0.24750  0.59130  Biso   1.000  H
  H280     1.0000 0.95340  0.75250  0.09130  Biso   1.000  H
  H281     1.0000 0.49450  0.30540  0.07780  Biso   1.000  H
  H282     1.0000 0.00550  0.69460  0.57780  Biso   1.000  H
  H283     1.0000 0.50550  0.80540  0.42220  Biso   1.000  H
  H284     1.0000 0.99450  0.19460  0.92220  Biso   1.000  H
  H285     1.0000 0.50550  0.69460  0.92220  Biso   1.000  H
  H286     1.0000 0.99450  0.30540  0.42220  Biso   1.000  H
  H287     1.0000 0.49450  0.19460  0.57780  Biso   1.000  H
  H288     1.0000 0.00550  0.80540  0.07780  Biso   1.000  H
  H289     1.0000 0.50170  0.21920  0.05090  Biso   1.000  H
  H290     1.0000 0.99830  0.78080  0.55090  Biso   1.000  H
  H291     1.0000 0.49830  0.71920  0.44910  Biso   1.000  H
  H292     1.0000 0.00170  0.28080  0.94910  Biso   1.000  H
  H293     1.0000 0.49830  0.78080  0.94910  Biso   1.000  H
  H294     1.0000 0.00170  0.21920  0.44910  Biso   1.000  H
  H295     1.0000 0.50170  0.28080  0.55090  Biso   1.000  H
  H296     1.0000 0.99830  0.71920  0.05090  Biso   1.000  H
  C273     1.0000 0.42054  0.21000  0.13949  Biso   1.000  C
  C274     1.0000 0.07946  0.79000  0.63949  Biso   1.000  C
  C275     1.0000 0.57946  0.71000  0.36051  Biso   1.000  C
  C276     1.0000 0.92054  0.29000  0.86051  Biso   1.000  C
  C277     1.0000 0.57946  0.79000  0.86051  Biso   1.000  C
  C278     1.0000 0.92054  0.21000  0.36051  Biso   1.000  C
  C279     1.0000 0.42054  0.29000  0.63949  Biso   1.000  C
  C280     1.0000 0.07946  0.71000  0.13949  Biso   1.000  C
  C281     1.0000 0.41422  0.16310  0.18611  Biso   1.000  C
  C282     1.0000 0.08578  0.83690  0.68611  Biso   1.000  C
  C283     1.0000 0.58578  0.66310  0.31389  Biso   1.000  C
  C284     1.0000 0.91422  0.33690  0.81389  Biso   1.000  C
  C285     1.0000 0.58578  0.83690  0.81389  Biso   1.000  C
  C286     1.0000 0.91422  0.16310  0.31389  Biso   1.000  C
  C287     1.0000 0.41422  0.33690  0.68611  Biso   1.000  C
  C288     1.0000 0.08578  0.66310  0.18611  Biso   1.000  C
  C289     1.0000 0.36440  0.13710  0.21680  Biso   1.000  C
  C290     1.0000 0.13560  0.86290  0.71680  Biso   1.000  C
  C291     1.0000 0.63560  0.63710  0.28320  Biso   1.000  C
  C292     1.0000 0.86440  0.36290  0.78320  Biso   1.000  C
  C293     1.0000 0.63560  0.86290  0.78320  Biso   1.000  C
  C294     1.0000 0.86440  0.13710  0.28320  Biso   1.000  C
  C295     1.0000 0.36440  0.36290  0.71680  Biso   1.000  C
  C296     1.0000 0.13560  0.63710  0.21680  Biso   1.000  C
  H297     1.0000 0.35850  0.07980  0.21130  Biso   1.000  H
  H298     1.0000 0.14150  0.92020  0.71130  Biso   1.000  H
  H299     1.0000 0.64150  0.57980  0.28870  Biso   1.000  H
  H300     1.0000 0.85850  0.42020  0.78870  Biso   1.000  H
  H301     1.0000 0.64150  0.92020  0.78870  Biso   1.000  H
  H302     1.0000 0.85850  0.07980  0.28870  Biso   1.000  H
  H303     1.0000 0.35850  0.42020  0.71130  Biso   1.000  H
  H304     1.0000 0.14150  0.57980  0.21130  Biso   1.000  H
  H305     1.0000 0.33300  0.16700  0.20380  Biso   1.000  H
  H306     1.0000 0.16700  0.83300  0.70380  Biso   1.000  H
  H307     1.0000 0.66700  0.66700  0.29620  Biso   1.000  H
  H308     1.0000 0.83300  0.33300  0.79620  Biso   1.000  H
  H309     1.0000 0.66700  0.83300  0.79620  Biso   1.000  H
  H310     1.0000 0.83300  0.16700  0.29620  Biso   1.000  H
  H311     1.0000 0.33300  0.33300  0.70380  Biso   1.000  H
  H312     1.0000 0.16700  0.66700  0.20380  Biso   1.000  H
  H313     1.0000 0.36960  0.14780  0.25510  Biso   1.000  H
  H314     1.0000 0.13040  0.85220  0.75510  Biso   1.000  H
  H315     1.0000 0.63040  0.64780  0.24490  Biso   1.000  H
  H316     1.0000 0.86960  0.35220  0.74490  Biso   1.000  H
  H317     1.0000 0.63040  0.85220  0.74490  Biso   1.000  H
  H318     1.0000 0.86960  0.14780  0.24490  Biso   1.000  H
  H319     1.0000 0.36960  0.35220  0.75510  Biso   1.000  H
  H320     1.0000 0.13040  0.64780  0.25510  Biso   1.000  H
  C297     1.0000 0.37632  0.24870  0.10721  Biso   1.000  C
  C298     1.0000 0.12368  0.75130  0.60721  Biso   1.000  C
  C299     1.0000 0.62368  0.74870  0.39279  Biso   1.000  C
  C300     1.0000 0.87632  0.25130  0.89279  Biso   1.000  C
  C301     1.0000 0.62368  0.75130  0.89279  Biso   1.000  C
  C302     1.0000 0.87632  0.24870  0.39279  Biso   1.000  C
  C303     1.0000 0.37632  0.25130  0.60721  Biso   1.000  C
  C304     1.0000 0.12368  0.74870  0.10721  Biso   1.000  C
  C305     1.0000 0.37680  0.33210  0.09717  Biso   1.000  C
  C306     1.0000 0.12320  0.66790  0.59717  Biso   1.000  C
  C307     1.0000 0.62320  0.83210  0.40283  Biso   1.000  C
  C308     1.0000 0.87680  0.16790  0.90283  Biso   1.000  C
  C309     1.0000 0.62320  0.66790  0.90283  Biso   1.000  C
  C310     1.0000 0.87680  0.33210  0.40283  Biso   1.000  C
  C311     1.0000 0.37680  0.16790  0.59717  Biso   1.000  C
  C312     1.0000 0.12320  0.83210  0.09717  Biso   1.000  C
  H321     1.0000 0.40550  0.36420  0.11040  Biso   1.000  H
  H322     1.0000 0.09450  0.63580  0.61040  Biso   1.000  H
  H323     1.0000 0.59450  0.86420  0.38960  Biso   1.000  H
  H324     1.0000 0.90550  0.13580  0.88960  Biso   1.000  H
  H325     1.0000 0.59450  0.63580  0.88960  Biso   1.000  H
  H326     1.0000 0.90550  0.36420  0.38960  Biso   1.000  H
  H327     1.0000 0.40550  0.13580  0.61040  Biso   1.000  H
  H328     1.0000 0.09450  0.86420  0.11040  Biso   1.000  H
  C313     1.0000 0.33500  0.36700  0.06779  Biso   1.000  C
  C314     1.0000 0.16500  0.63300  0.56779  Biso   1.000  C
  C315     1.0000 0.66500  0.86700  0.43221  Biso   1.000  C
  C316     1.0000 0.83500  0.13300  0.93221  Biso   1.000  C
  C317     1.0000 0.66500  0.63300  0.93221  Biso   1.000  C
  C318     1.0000 0.83500  0.36700  0.43221  Biso   1.000  C
  C319     1.0000 0.33500  0.13300  0.56779  Biso   1.000  C
  C320     1.0000 0.16500  0.86700  0.06779  Biso   1.000  C
  H329     1.0000 0.33610  0.42300  0.06180  Biso   1.000  H
  H330     1.0000 0.16390  0.57700  0.56180  Biso   1.000  H
  H331     1.0000 0.66390  0.92300  0.43820  Biso   1.000  H
  H332     1.0000 0.83610  0.07700  0.93820  Biso   1.000  H
  H333     1.0000 0.66390  0.57700  0.93820  Biso   1.000  H
  H334     1.0000 0.83610  0.42300  0.43820  Biso   1.000  H
  H335     1.0000 0.33610  0.07700  0.56180  Biso   1.000  H
  H336     1.0000 0.16390  0.92300  0.06180  Biso   1.000  H
  C321     1.0000 0.29180  0.24420  0.05710  Biso   1.000  C
  C322     1.0000 0.20820  0.75580  0.55710  Biso   1.000  C
  C323     1.0000 0.70820  0.74420  0.44290  Biso   1.000  C
  C324     1.0000 0.79180  0.25580  0.94290  Biso   1.000  C
  C325     1.0000 0.70820  0.75580  0.94290  Biso   1.000  C
  C326     1.0000 0.79180  0.24420  0.44290  Biso   1.000  C
  C327     1.0000 0.29180  0.25580  0.55710  Biso   1.000  C
  C328     1.0000 0.20820  0.74420  0.05710  Biso   1.000  C
  H337     1.0000 0.26260  0.21350  0.04340  Biso   1.000  H
  H338     1.0000 0.23740  0.78650  0.54340  Biso   1.000  H
  H339     1.0000 0.73740  0.71350  0.45660  Biso   1.000  H
  H340     1.0000 0.76260  0.28650  0.95660  Biso   1.000  H
  H341     1.0000 0.73740  0.78650  0.95660  Biso   1.000  H
  H342     1.0000 0.76260  0.21350  0.45660  Biso   1.000  H
  H343     1.0000 0.26260  0.28650  0.54340  Biso   1.000  H
  H344     1.0000 0.23740  0.71350  0.04340  Biso   1.000  H
  C329     1.0000 0.33230  0.20490  0.08670  Biso   1.000  C
  C330     1.0000 0.16770  0.79510  0.58670  Biso   1.000  C
  C331     1.0000 0.66770  0.70490  0.41330  Biso   1.000  C
  C332     1.0000 0.83230  0.29510  0.91330  Biso   1.000  C
  C333     1.0000 0.66770  0.79510  0.91330  Biso   1.000  C
  C334     1.0000 0.83230  0.20490  0.41330  Biso   1.000  C
  C335     1.0000 0.33230  0.29510  0.58670  Biso   1.000  C
  C336     1.0000 0.16770  0.70490  0.08670  Biso   1.000  C
  H345     1.0000 0.32990  0.14900  0.09270  Biso   1.000  H
  H346     1.0000 0.17010  0.85100  0.59270  Biso   1.000  H
  H347     1.0000 0.67010  0.64900  0.40730  Biso   1.000  H
  H348     1.0000 0.82990  0.35100  0.90730  Biso   1.000  H
  H349     1.0000 0.67010  0.85100  0.90730  Biso   1.000  H
  H350     1.0000 0.82990  0.14900  0.40730  Biso   1.000  H
  H351     1.0000 0.32990  0.35100  0.59270  Biso   1.000  H
  H352     1.0000 0.17010  0.64900  0.09270  Biso   1.000  H
  C337     1.0000 0.75630  0.21760  0.58400  Biso   1.000  C
  C338     1.0000 0.74370  0.78240  0.08400  Biso   1.000  C
  C339     1.0000 0.24370  0.71760  0.91600  Biso   1.000  C
  C340     1.0000 0.25630  0.28240  0.41600  Biso   1.000  C
  C341     1.0000 0.24370  0.78240  0.41600  Biso   1.000  C
  C342     1.0000 0.25630  0.21760  0.91600  Biso   1.000  C
  C343     1.0000 0.75630  0.28240  0.08400  Biso   1.000  C
  C344     1.0000 0.74370  0.71760  0.58400  Biso   1.000  C
  C345     1.0000 0.75760  0.53460  0.41440  Biso   1.000  C
  C346     1.0000 0.74240  0.46540  0.91440  Biso   1.000  C
  C347     1.0000 0.24240  0.03460  0.08560  Biso   1.000  C
  C348     1.0000 0.25760  0.96540  0.58560  Biso   1.000  C
  C349     1.0000 0.24240  0.46540  0.58560  Biso   1.000  C
  C350     1.0000 0.25760  0.53460  0.08560  Biso   1.000  C
  C351     1.0000 0.75760  0.96540  0.91440  Biso   1.000  C
  C352     1.0000 0.74240  0.03460  0.41440  Biso   1.000  C
  O1       1.0000 0.25490  0.82920  0.80070  Biso   1.000  O
  O2       1.0000 0.24510  0.17080  0.30070  Biso   1.000  O
  O3       1.0000 0.74510  0.32920  0.69930  Biso   1.000  O
  O4       1.0000 0.75490  0.67080  0.19930  Biso   1.000  O
  O5       1.0000 0.74510  0.17080  0.19930  Biso   1.000  O
  O6       1.0000 0.75490  0.82920  0.69930  Biso   1.000  O
  O7       1.0000 0.25490  0.67080  0.30070  Biso   1.000  O
  O8       1.0000 0.24510  0.32920  0.80070  Biso   1.000  O
  O9       1.0000 0.23700  0.00300  0.80040  Biso   1.000  O
  O10      1.0000 0.26300  0.99700  0.30040  Biso   1.000  O
  O11      1.0000 0.76300  0.50300  0.69960  Biso   1.000  O
  O12      1.0000 0.73700  0.49700  0.19960  Biso   1.000  O
  O13      1.0000 0.76300  0.99700  0.19960  Biso   1.000  O
  O14      1.0000 0.73700  0.00300  0.69960  Biso   1.000  O
  O15      1.0000 0.23700  0.49700  0.30040  Biso   1.000  O
  O16      1.0000 0.26300  0.50300  0.80040  Biso   1.000  O
  O17      1.0000 0.25800  0.75200  0.20560  Biso   1.000  O
  O18      1.0000 0.24200  0.24800  0.70560  Biso   1.000  O
  O19      1.0000 0.74200  0.25200  0.29440  Biso   1.000  O
  O20      1.0000 0.75800  0.74800  0.79440  Biso   1.000  O
  O21      1.0000 0.74200  0.24800  0.79440  Biso   1.000  O
  O22      1.0000 0.75800  0.75200  0.29440  Biso   1.000  O
  O23      1.0000 0.25800  0.74800  0.70560  Biso   1.000  O
  O24      1.0000 0.24200  0.25200  0.20560  Biso   1.000  O
  O25      1.0000 0.24700  0.91950  0.20110  Biso   1.000  O
  O26      1.0000 0.25300  0.08050  0.70110  Biso   1.000  O
  O27      1.0000 0.75300  0.41950  0.29890  Biso   1.000  O
  O28      1.0000 0.74700  0.58050  0.79890  Biso   1.000  O
  O29      1.0000 0.75300  0.08050  0.79890  Biso   1.000  O
  O30      1.0000 0.74700  0.91950  0.29890  Biso   1.000  O
  O31      1.0000 0.24700  0.58050  0.70110  Biso   1.000  O
  O32      1.0000 0.25300  0.41950  0.20110  Biso   1.000  O
