data_image0
_cell_length_a       27
_cell_length_b       17.1351
_cell_length_c       21.948
_cell_angle_alpha    90
_cell_angle_beta     90
_cell_angle_gamma    90

_symmetry_space_group_name_H-M    "P 1"
_symmetry_int_tables_number       1

loop_
  _symmetry_equiv_pos_as_xyz
  'x, y, z'

loop_
  _atom_site_label
  _atom_site_occupancy
  _atom_site_fract_x
  _atom_site_fract_y
  _atom_site_fract_z
  _atom_site_thermal_displace_type
  _atom_site_B_iso_or_equiv
  _atom_site_type_symbol
  C1       1.0000 0.14664  0.33200  0.69323  Biso   1.000  C
  C2       1.0000 0.35336  0.16800  0.19323  Biso   1.000  C
  C3       1.0000 0.64664  0.16800  0.30677  Biso   1.000  C
  C4       1.0000 0.85336  0.33200  0.80677  Biso   1.000  C
  C5       1.0000 0.85336  0.66800  0.30677  Biso   1.000  C
  C6       1.0000 0.64664  0.83200  0.80677  Biso   1.000  C
  C7       1.0000 0.35336  0.83200  0.69323  Biso   1.000  C
  C8       1.0000 0.14664  0.66800  0.19323  Biso   1.000  C
  C9       1.0000 0.15236  0.88000  0.72640  Biso   1.000  C
  C10      1.0000 0.34764  0.62000  0.22640  Biso   1.000  C
  C11      1.0000 0.65236  0.62000  0.27360  Biso   1.000  C
  C12      1.0000 0.84764  0.88000  0.77360  Biso   1.000  C
  C13      1.0000 0.84764  0.12000  0.27360  Biso   1.000  C
  C14      1.0000 0.65236  0.38000  0.77360  Biso   1.000  C
  C15      1.0000 0.34764  0.38000  0.72640  Biso   1.000  C
  C16      1.0000 0.15236  0.12000  0.22640  Biso   1.000  C
  C17      1.0000 0.11435  0.39670  0.70870  Biso   1.000  C
  C18      1.0000 0.38565  0.10330  0.20870  Biso   1.000  C
  C19      1.0000 0.61435  0.10330  0.29130  Biso   1.000  C
  C20      1.0000 0.88565  0.39670  0.79130  Biso   1.000  C
  C21      1.0000 0.88565  0.60330  0.29130  Biso   1.000  C
  C22      1.0000 0.61435  0.89670  0.79130  Biso   1.000  C
  C23      1.0000 0.38565  0.89670  0.70870  Biso   1.000  C
  C24      1.0000 0.11435  0.60330  0.20870  Biso   1.000  C
  C25      1.0000 0.11332  0.46420  0.67400  Biso   1.000  C
  C26      1.0000 0.38668  0.03580  0.17400  Biso   1.000  C
  C27      1.0000 0.61332  0.03580  0.32600  Biso   1.000  C
  C28      1.0000 0.88668  0.46420  0.82600  Biso   1.000  C
  C29      1.0000 0.88668  0.53580  0.32600  Biso   1.000  C
  C30      1.0000 0.61332  0.96420  0.82600  Biso   1.000  C
  C31      1.0000 0.38668  0.96420  0.67400  Biso   1.000  C
  C32      1.0000 0.11332  0.53580  0.17400  Biso   1.000  C
  H1       1.0000 0.13470  0.46950  0.63990  Biso   1.000  H
  H2       1.0000 0.36530  0.03050  0.13990  Biso   1.000  H
  H3       1.0000 0.63470  0.03050  0.36010  Biso   1.000  H
  H4       1.0000 0.86530  0.46950  0.86010  Biso   1.000  H
  H5       1.0000 0.86530  0.53050  0.36010  Biso   1.000  H
  H6       1.0000 0.63470  0.96950  0.86010  Biso   1.000  H
  H7       1.0000 0.36530  0.96950  0.63990  Biso   1.000  H
  H8       1.0000 0.13470  0.53050  0.13990  Biso   1.000  H
  C33      1.0000 0.08161  0.52290  0.68880  Biso   1.000  C
  C34      1.0000 0.41839  0.97710  0.18880  Biso   1.000  C
  C35      1.0000 0.58161  0.97710  0.31120  Biso   1.000  C
  C36      1.0000 0.91839  0.52290  0.81120  Biso   1.000  C
  C37      1.0000 0.91839  0.47710  0.31120  Biso   1.000  C
  C38      1.0000 0.58161  0.02290  0.81120  Biso   1.000  C
  C39      1.0000 0.41839  0.02290  0.68880  Biso   1.000  C
  C40      1.0000 0.08161  0.47710  0.18880  Biso   1.000  C
  H9       1.0000 0.08050  0.56780  0.66330  Biso   1.000  H
  H10      1.0000 0.41950  0.93220  0.16330  Biso   1.000  H
  H11      1.0000 0.58050  0.93220  0.33670  Biso   1.000  H
  H12      1.0000 0.91950  0.56780  0.83670  Biso   1.000  H
  H13      1.0000 0.91950  0.43220  0.33670  Biso   1.000  H
  H14      1.0000 0.58050  0.06780  0.83670  Biso   1.000  H
  H15      1.0000 0.41950  0.06780  0.66330  Biso   1.000  H
  H16      1.0000 0.08050  0.43220  0.16330  Biso   1.000  H
  C41      1.0000 0.05328  0.45600  0.77270  Biso   1.000  C
  C42      1.0000 0.44672  0.04400  0.27270  Biso   1.000  C
  C43      1.0000 0.55328  0.04400  0.22730  Biso   1.000  C
  C44      1.0000 0.94672  0.45600  0.72730  Biso   1.000  C
  C45      1.0000 0.94672  0.54400  0.22730  Biso   1.000  C
  C46      1.0000 0.55328  0.95600  0.72730  Biso   1.000  C
  C47      1.0000 0.44672  0.95600  0.77270  Biso   1.000  C
  C48      1.0000 0.05328  0.54400  0.27270  Biso   1.000  C
  H17      1.0000 0.03280  0.45320  0.80780  Biso   1.000  H
  H18      1.0000 0.46720  0.04680  0.30780  Biso   1.000  H
  H19      1.0000 0.53280  0.04680  0.19220  Biso   1.000  H
  H20      1.0000 0.96720  0.45320  0.69220  Biso   1.000  H
  H21      1.0000 0.96720  0.54680  0.19220  Biso   1.000  H
  H22      1.0000 0.53280  0.95320  0.69220  Biso   1.000  H
  H23      1.0000 0.46720  0.95320  0.80780  Biso   1.000  H
  H24      1.0000 0.03280  0.54680  0.30780  Biso   1.000  H
  C49      1.0000 0.08353  0.39410  0.75940  Biso   1.000  C
  C50      1.0000 0.41647  0.10590  0.25940  Biso   1.000  C
  C51      1.0000 0.58353  0.10590  0.24060  Biso   1.000  C
  C52      1.0000 0.91647  0.39410  0.74060  Biso   1.000  C
  C53      1.0000 0.91647  0.60590  0.24060  Biso   1.000  C
  C54      1.0000 0.58353  0.89410  0.74060  Biso   1.000  C
  C55      1.0000 0.41647  0.89410  0.75940  Biso   1.000  C
  C56      1.0000 0.08353  0.60590  0.25940  Biso   1.000  C
  H25      1.0000 0.08350  0.34930  0.78490  Biso   1.000  H
  H26      1.0000 0.41650  0.15070  0.28490  Biso   1.000  H
  H27      1.0000 0.58350  0.15070  0.21510  Biso   1.000  H
  H28      1.0000 0.91650  0.34930  0.71510  Biso   1.000  H
  H29      1.0000 0.91650  0.65070  0.21510  Biso   1.000  H
  H30      1.0000 0.58350  0.84930  0.71510  Biso   1.000  H
  H31      1.0000 0.41650  0.84930  0.78490  Biso   1.000  H
  H32      1.0000 0.08350  0.65070  0.28490  Biso   1.000  H
  C57      1.0000 0.11727  0.81540  0.72960  Biso   1.000  C
  C58      1.0000 0.38273  0.68460  0.22960  Biso   1.000  C
  C59      1.0000 0.61727  0.68460  0.27040  Biso   1.000  C
  C60      1.0000 0.88273  0.81540  0.77040  Biso   1.000  C
  C61      1.0000 0.88273  0.18460  0.27040  Biso   1.000  C
  C62      1.0000 0.61727  0.31540  0.77040  Biso   1.000  C
  C63      1.0000 0.38273  0.31540  0.72960  Biso   1.000  C
  C64      1.0000 0.11727  0.18460  0.22960  Biso   1.000  C
  C65      1.0000 0.12530  0.75500  0.77050  Biso   1.000  C
  C66      1.0000 0.37470  0.74500  0.27050  Biso   1.000  C
  C67      1.0000 0.62530  0.74500  0.22950  Biso   1.000  C
  C68      1.0000 0.87470  0.75500  0.72950  Biso   1.000  C
  C69      1.0000 0.87470  0.24500  0.22950  Biso   1.000  C
  C70      1.0000 0.62530  0.25500  0.72950  Biso   1.000  C
  C71      1.0000 0.37470  0.25500  0.77050  Biso   1.000  C
  C72      1.0000 0.12530  0.24500  0.27050  Biso   1.000  C
  H33      1.0000 0.15360  0.75520  0.79610  Biso   1.000  H
  H34      1.0000 0.34640  0.74480  0.29610  Biso   1.000  H
  H35      1.0000 0.65360  0.74480  0.20390  Biso   1.000  H
  H36      1.0000 0.84640  0.75520  0.70390  Biso   1.000  H
  H37      1.0000 0.84640  0.24480  0.20390  Biso   1.000  H
  H38      1.0000 0.65360  0.25520  0.70390  Biso   1.000  H
  H39      1.0000 0.34640  0.25520  0.79610  Biso   1.000  H
  H40      1.0000 0.15360  0.24480  0.29610  Biso   1.000  H
  C73      1.0000 0.09156  0.69460  0.77330  Biso   1.000  C
  C74      1.0000 0.40844  0.80540  0.27330  Biso   1.000  C
  C75      1.0000 0.59156  0.80540  0.22670  Biso   1.000  C
  C76      1.0000 0.90844  0.69460  0.72670  Biso   1.000  C
  C77      1.0000 0.90844  0.30540  0.22670  Biso   1.000  C
  C78      1.0000 0.59156  0.19460  0.72670  Biso   1.000  C
  C79      1.0000 0.40844  0.19460  0.77330  Biso   1.000  C
  C80      1.0000 0.09156  0.30540  0.27330  Biso   1.000  C
  H41      1.0000 0.09720  0.65360  0.80160  Biso   1.000  H
  H42      1.0000 0.40280  0.84640  0.30160  Biso   1.000  H
  H43      1.0000 0.59720  0.84640  0.19840  Biso   1.000  H
  H44      1.0000 0.90280  0.65360  0.69840  Biso   1.000  H
  H45      1.0000 0.90280  0.34640  0.19840  Biso   1.000  H
  H46      1.0000 0.59720  0.15360  0.69840  Biso   1.000  H
  H47      1.0000 0.40280  0.15360  0.80160  Biso   1.000  H
  H48      1.0000 0.09720  0.34640  0.30160  Biso   1.000  H
  C81      1.0000 0.04355  0.75050  0.69850  Biso   1.000  C
  C82      1.0000 0.45645  0.74950  0.19850  Biso   1.000  C
  C83      1.0000 0.54355  0.74950  0.30150  Biso   1.000  C
  C84      1.0000 0.95645  0.75050  0.80150  Biso   1.000  C
  C85      1.0000 0.95645  0.24950  0.30150  Biso   1.000  C
  C86      1.0000 0.54355  0.25050  0.80150  Biso   1.000  C
  C87      1.0000 0.45645  0.25050  0.69850  Biso   1.000  C
  C88      1.0000 0.04355  0.24950  0.19850  Biso   1.000  C
  H49      1.0000 0.01510  0.74900  0.67310  Biso   1.000  H
  H50      1.0000 0.48490  0.75100  0.17310  Biso   1.000  H
  H51      1.0000 0.51510  0.75100  0.32690  Biso   1.000  H
  H52      1.0000 0.98490  0.74900  0.82690  Biso   1.000  H
  H53      1.0000 0.98490  0.25100  0.32690  Biso   1.000  H
  H54      1.0000 0.51510  0.24900  0.82690  Biso   1.000  H
  H55      1.0000 0.48490  0.24900  0.67310  Biso   1.000  H
  H56      1.0000 0.01510  0.25100  0.17310  Biso   1.000  H
  C89      1.0000 0.07534  0.81290  0.69360  Biso   1.000  C
  C90      1.0000 0.42466  0.68710  0.19360  Biso   1.000  C
  C91      1.0000 0.57534  0.68710  0.30640  Biso   1.000  C
  C92      1.0000 0.92466  0.81290  0.80640  Biso   1.000  C
  C93      1.0000 0.92466  0.18710  0.30640  Biso   1.000  C
  C94      1.0000 0.57534  0.31290  0.80640  Biso   1.000  C
  C95      1.0000 0.42466  0.31290  0.69360  Biso   1.000  C
  C96      1.0000 0.07534  0.18710  0.19360  Biso   1.000  C
  H57      1.0000 0.06850  0.85390  0.66570  Biso   1.000  H
  H58      1.0000 0.43150  0.64610  0.16570  Biso   1.000  H
  H59      1.0000 0.56850  0.64610  0.33430  Biso   1.000  H
  H60      1.0000 0.93150  0.85390  0.83430  Biso   1.000  H
  H61      1.0000 0.93150  0.14610  0.33430  Biso   1.000  H
  H62      1.0000 0.56850  0.35390  0.83430  Biso   1.000  H
  H63      1.0000 0.43150  0.35390  0.66570  Biso   1.000  H
  H64      1.0000 0.06850  0.14610  0.16570  Biso   1.000  H
  C97      1.0000 0.24521  0.09030  0.83870  Biso   1.000  C
  C98      1.0000 0.25479  0.40970  0.33870  Biso   1.000  C
  C99      1.0000 0.74521  0.40970  0.16130  Biso   1.000  C
  C100     1.0000 0.75479  0.09030  0.66130  Biso   1.000  C
  C101     1.0000 0.75479  0.90970  0.16130  Biso   1.000  C
  C102     1.0000 0.74521  0.59030  0.66130  Biso   1.000  C
  C103     1.0000 0.25479  0.59030  0.83870  Biso   1.000  C
  C104     1.0000 0.24521  0.90970  0.33870  Biso   1.000  C
  C105     1.0000 0.28433  0.06660  0.80250  Biso   1.000  C
  C106     1.0000 0.21567  0.43340  0.30250  Biso   1.000  C
  C107     1.0000 0.78433  0.43340  0.19750  Biso   1.000  C
  C108     1.0000 0.71567  0.06660  0.69750  Biso   1.000  C
  C109     1.0000 0.71567  0.93340  0.19750  Biso   1.000  C
  C110     1.0000 0.78433  0.56660  0.69750  Biso   1.000  C
  C111     1.0000 0.21567  0.56660  0.80250  Biso   1.000  C
  C112     1.0000 0.28433  0.93340  0.30250  Biso   1.000  C
  H65      1.0000 0.27940  0.05970  0.76000  Biso   1.000  H
  H66      1.0000 0.22060  0.44030  0.26000  Biso   1.000  H
  H67      1.0000 0.77940  0.44030  0.24000  Biso   1.000  H
  H68      1.0000 0.72060  0.05970  0.74000  Biso   1.000  H
  H69      1.0000 0.72060  0.94030  0.24000  Biso   1.000  H
  H70      1.0000 0.77940  0.55970  0.74000  Biso   1.000  H
  H71      1.0000 0.22060  0.55970  0.76000  Biso   1.000  H
  H72      1.0000 0.27940  0.94030  0.26000  Biso   1.000  H
  C113     1.0000 0.33014  0.05290  0.82730  Biso   1.000  C
  C114     1.0000 0.16986  0.44710  0.32730  Biso   1.000  C
  C115     1.0000 0.83014  0.44710  0.17270  Biso   1.000  C
  C116     1.0000 0.66986  0.05290  0.67270  Biso   1.000  C
  C117     1.0000 0.66986  0.94710  0.17270  Biso   1.000  C
  C118     1.0000 0.83014  0.55290  0.67270  Biso   1.000  C
  C119     1.0000 0.16986  0.55290  0.82730  Biso   1.000  C
  C120     1.0000 0.33014  0.94710  0.32730  Biso   1.000  C
  H73      1.0000 0.35660  0.03620  0.80190  Biso   1.000  H
  H74      1.0000 0.14340  0.46380  0.30190  Biso   1.000  H
  H75      1.0000 0.85660  0.46380  0.19810  Biso   1.000  H
  H76      1.0000 0.64340  0.03620  0.69810  Biso   1.000  H
  H77      1.0000 0.64340  0.96380  0.19810  Biso   1.000  H
  H78      1.0000 0.85660  0.53620  0.69810  Biso   1.000  H
  H79      1.0000 0.14340  0.53620  0.80190  Biso   1.000  H
  H80      1.0000 0.35660  0.96380  0.30190  Biso   1.000  H
  C121     1.0000 0.33805  0.06310  0.88820  Biso   1.000  C
  C122     1.0000 0.16195  0.43690  0.38820  Biso   1.000  C
  C123     1.0000 0.83805  0.43690  0.11180  Biso   1.000  C
  C124     1.0000 0.66195  0.06310  0.61180  Biso   1.000  C
  C125     1.0000 0.66195  0.93690  0.11180  Biso   1.000  C
  C126     1.0000 0.83805  0.56310  0.61180  Biso   1.000  C
  C127     1.0000 0.16195  0.56310  0.88820  Biso   1.000  C
  C128     1.0000 0.33805  0.93690  0.38820  Biso   1.000  C
  H81      1.0000 0.37000  0.05420  0.90490  Biso   1.000  H
  H82      1.0000 0.13000  0.44580  0.40490  Biso   1.000  H
  H83      1.0000 0.87000  0.44580  0.09510  Biso   1.000  H
  H84      1.0000 0.63000  0.05420  0.59510  Biso   1.000  H
  H85      1.0000 0.63000  0.94580  0.09510  Biso   1.000  H
  H86      1.0000 0.87000  0.55420  0.59510  Biso   1.000  H
  H87      1.0000 0.13000  0.55420  0.90490  Biso   1.000  H
  H88      1.0000 0.37000  0.94580  0.40490  Biso   1.000  H
  C129     1.0000 0.29889  0.08680  0.92600  Biso   1.000  C
  C130     1.0000 0.20111  0.41320  0.42600  Biso   1.000  C
  C131     1.0000 0.79889  0.41320  0.07400  Biso   1.000  C
  C132     1.0000 0.70111  0.08680  0.57400  Biso   1.000  C
  C133     1.0000 0.70111  0.91320  0.07400  Biso   1.000  C
  C134     1.0000 0.79889  0.58680  0.57400  Biso   1.000  C
  C135     1.0000 0.20111  0.58680  0.92600  Biso   1.000  C
  C136     1.0000 0.29889  0.91320  0.42600  Biso   1.000  C
  H89      1.0000 0.30430  0.09410  0.96840  Biso   1.000  H
  H90      1.0000 0.19570  0.40590  0.46840  Biso   1.000  H
  H91      1.0000 0.80430  0.40590  0.03160  Biso   1.000  H
  H92      1.0000 0.69570  0.09410  0.53160  Biso   1.000  H
  H93      1.0000 0.69570  0.90590  0.03160  Biso   1.000  H
  H94      1.0000 0.80430  0.59410  0.53160  Biso   1.000  H
  H95      1.0000 0.19570  0.59410  0.96840  Biso   1.000  H
  H96      1.0000 0.30430  0.90590  0.46840  Biso   1.000  H
  C137     1.0000 0.25256  0.09950  0.90150  Biso   1.000  C
  C138     1.0000 0.24744  0.40050  0.40150  Biso   1.000  C
  C139     1.0000 0.75256  0.40050  0.09850  Biso   1.000  C
  C140     1.0000 0.74744  0.09950  0.59850  Biso   1.000  C
  C141     1.0000 0.74744  0.90050  0.09850  Biso   1.000  C
  C142     1.0000 0.75256  0.59950  0.59850  Biso   1.000  C
  C143     1.0000 0.24744  0.59950  0.90150  Biso   1.000  C
  C144     1.0000 0.25256  0.90050  0.40150  Biso   1.000  C
  H97      1.0000 0.22580  0.11430  0.92700  Biso   1.000  H
  H98      1.0000 0.27420  0.38570  0.42700  Biso   1.000  H
  H99      1.0000 0.72580  0.38570  0.07300  Biso   1.000  H
  H100     1.0000 0.77420  0.11430  0.57300  Biso   1.000  H
  H101     1.0000 0.77420  0.88570  0.07300  Biso   1.000  H
  H102     1.0000 0.72580  0.61430  0.57300  Biso   1.000  H
  H103     1.0000 0.27420  0.61430  0.92700  Biso   1.000  H
  H104     1.0000 0.22580  0.88570  0.42700  Biso   1.000  H
  C145     1.0000 0.27126  0.09540  0.58645  Biso   1.000  C
  C146     1.0000 0.22874  0.40460  0.08645  Biso   1.000  C
  C147     1.0000 0.77126  0.40460  0.41355  Biso   1.000  C
  C148     1.0000 0.72874  0.09540  0.91355  Biso   1.000  C
  C149     1.0000 0.72874  0.90460  0.41355  Biso   1.000  C
  C150     1.0000 0.77126  0.59540  0.91355  Biso   1.000  C
  C151     1.0000 0.22874  0.59540  0.58645  Biso   1.000  C
  C152     1.0000 0.27126  0.90460  0.08645  Biso   1.000  C
  C153     1.0000 0.29827  0.14780  0.62240  Biso   1.000  C
  C154     1.0000 0.20173  0.35220  0.12240  Biso   1.000  C
  C155     1.0000 0.79827  0.35220  0.37760  Biso   1.000  C
  C156     1.0000 0.70173  0.14780  0.87760  Biso   1.000  C
  C157     1.0000 0.70173  0.85220  0.37760  Biso   1.000  C
  C158     1.0000 0.79827  0.64780  0.87760  Biso   1.000  C
  C159     1.0000 0.20173  0.64780  0.62240  Biso   1.000  C
  C160     1.0000 0.29827  0.85220  0.12240  Biso   1.000  C
  H105     1.0000 0.28240  0.17520  0.65460  Biso   1.000  H
  H106     1.0000 0.21760  0.32480  0.15460  Biso   1.000  H
  H107     1.0000 0.78240  0.32480  0.34540  Biso   1.000  H
  H108     1.0000 0.71760  0.17520  0.84540  Biso   1.000  H
  H109     1.0000 0.71760  0.82480  0.34540  Biso   1.000  H
  H110     1.0000 0.78240  0.67520  0.84540  Biso   1.000  H
  H111     1.0000 0.21760  0.67520  0.65460  Biso   1.000  H
  H112     1.0000 0.28240  0.82480  0.15460  Biso   1.000  H
  C161     1.0000 0.34814  0.15960  0.61080  Biso   1.000  C
  C162     1.0000 0.15186  0.34040  0.11080  Biso   1.000  C
  C163     1.0000 0.84814  0.34040  0.38920  Biso   1.000  C
  C164     1.0000 0.65186  0.15960  0.88920  Biso   1.000  C
  C165     1.0000 0.65186  0.84040  0.38920  Biso   1.000  C
  C166     1.0000 0.84814  0.65960  0.88920  Biso   1.000  C
  C167     1.0000 0.15186  0.65960  0.61080  Biso   1.000  C
  C168     1.0000 0.34814  0.84040  0.11080  Biso   1.000  C
  H113     1.0000 0.36600  0.19670  0.63430  Biso   1.000  H
  H114     1.0000 0.13400  0.30330  0.13430  Biso   1.000  H
  H115     1.0000 0.86600  0.30330  0.36570  Biso   1.000  H
  H116     1.0000 0.63400  0.19670  0.86570  Biso   1.000  H
  H117     1.0000 0.63400  0.80330  0.36570  Biso   1.000  H
  H118     1.0000 0.86600  0.69670  0.86570  Biso   1.000  H
  H119     1.0000 0.13400  0.69670  0.63430  Biso   1.000  H
  H120     1.0000 0.36600  0.80330  0.13430  Biso   1.000  H
  C169     1.0000 0.37186  0.11890  0.56630  Biso   1.000  C
  C170     1.0000 0.12814  0.38110  0.06630  Biso   1.000  C
  C171     1.0000 0.87186  0.38110  0.43370  Biso   1.000  C
  C172     1.0000 0.62814  0.11890  0.93370  Biso   1.000  C
  C173     1.0000 0.62814  0.88110  0.43370  Biso   1.000  C
  C174     1.0000 0.87186  0.61890  0.93370  Biso   1.000  C
  C175     1.0000 0.12814  0.61890  0.56630  Biso   1.000  C
  C176     1.0000 0.37186  0.88110  0.06630  Biso   1.000  C
  H121     1.0000 0.40600  0.12750  0.55860  Biso   1.000  H
  H122     1.0000 0.09400  0.37250  0.05860  Biso   1.000  H
  H123     1.0000 0.90600  0.37250  0.44140  Biso   1.000  H
  H124     1.0000 0.59400  0.12750  0.94140  Biso   1.000  H
  H125     1.0000 0.59400  0.87250  0.44140  Biso   1.000  H
  H126     1.0000 0.90600  0.62750  0.94140  Biso   1.000  H
  H127     1.0000 0.09400  0.62750  0.55860  Biso   1.000  H
  H128     1.0000 0.40600  0.87250  0.05860  Biso   1.000  H
  C177     1.0000 0.34543  0.06410  0.53200  Biso   1.000  C
  C178     1.0000 0.15457  0.43590  0.03200  Biso   1.000  C
  C179     1.0000 0.84543  0.43590  0.46800  Biso   1.000  C
  C180     1.0000 0.65457  0.06410  0.96800  Biso   1.000  C
  C181     1.0000 0.65457  0.93590  0.46800  Biso   1.000  C
  C182     1.0000 0.84543  0.56410  0.96800  Biso   1.000  C
  C183     1.0000 0.15457  0.56410  0.53200  Biso   1.000  C
  C184     1.0000 0.34543  0.93590  0.03200  Biso   1.000  C
  H129     1.0000 0.36200  0.03400  0.50190  Biso   1.000  H
  H130     1.0000 0.13800  0.46600  0.00190  Biso   1.000  H
  H131     1.0000 0.86200  0.46600  0.49810  Biso   1.000  H
  H132     1.0000 0.63800  0.03400  0.99810  Biso   1.000  H
  H133     1.0000 0.63800  0.96600  0.49810  Biso   1.000  H
  H134     1.0000 0.86200  0.53400  0.99810  Biso   1.000  H
  H135     1.0000 0.13800  0.53400  0.50190  Biso   1.000  H
  H136     1.0000 0.36200  0.96600  0.00190  Biso   1.000  H
  C185     1.0000 0.29535  0.05340  0.54160  Biso   1.000  C
  C186     1.0000 0.20465  0.44660  0.04160  Biso   1.000  C
  C187     1.0000 0.79535  0.44660  0.45840  Biso   1.000  C
  C188     1.0000 0.70465  0.05340  0.95840  Biso   1.000  C
  C189     1.0000 0.70465  0.94660  0.45840  Biso   1.000  C
  C190     1.0000 0.79535  0.55340  0.95840  Biso   1.000  C
  C191     1.0000 0.20465  0.55340  0.54160  Biso   1.000  C
  C192     1.0000 0.29535  0.94660  0.04160  Biso   1.000  C
  H137     1.0000 0.27740  0.01710  0.51740  Biso   1.000  H
  H138     1.0000 0.22260  0.48290  0.01740  Biso   1.000  H
  H139     1.0000 0.77740  0.48290  0.48260  Biso   1.000  H
  H140     1.0000 0.72260  0.01710  0.98260  Biso   1.000  H
  H141     1.0000 0.72260  0.98290  0.48260  Biso   1.000  H
  H142     1.0000 0.77740  0.51710  0.98260  Biso   1.000  H
  H143     1.0000 0.22260  0.51710  0.51740  Biso   1.000  H
  H144     1.0000 0.27740  0.98290  0.01740  Biso   1.000  H
  C193     1.0000 0.13912  0.04880  0.83590  Biso   1.000  C
  C194     1.0000 0.36088  0.45120  0.33590  Biso   1.000  C
  C195     1.0000 0.63912  0.45120  0.16410  Biso   1.000  C
  C196     1.0000 0.86088  0.04880  0.66410  Biso   1.000  C
  C197     1.0000 0.86088  0.95120  0.16410  Biso   1.000  C
  C198     1.0000 0.63912  0.54880  0.66410  Biso   1.000  C
  C199     1.0000 0.36088  0.54880  0.83590  Biso   1.000  C
  C200     1.0000 0.13912  0.95120  0.33590  Biso   1.000  C
  C201     1.0000 0.14949  0.98660  0.87340  Biso   1.000  C
  C202     1.0000 0.35051  0.51340  0.37340  Biso   1.000  C
  C203     1.0000 0.64949  0.51340  0.12660  Biso   1.000  C
  C204     1.0000 0.85051  0.98660  0.62660  Biso   1.000  C
  C205     1.0000 0.85051  0.01340  0.12660  Biso   1.000  C
  C206     1.0000 0.64949  0.48660  0.62660  Biso   1.000  C
  C207     1.0000 0.35051  0.48660  0.87340  Biso   1.000  C
  C208     1.0000 0.14949  0.01340  0.37340  Biso   1.000  C
  H145     1.0000 0.18240  0.97820  0.88740  Biso   1.000  H
  H146     1.0000 0.31760  0.52180  0.38740  Biso   1.000  H
  H147     1.0000 0.68240  0.52180  0.11260  Biso   1.000  H
  H148     1.0000 0.81760  0.97820  0.61260  Biso   1.000  H
  H149     1.0000 0.81760  0.02180  0.11260  Biso   1.000  H
  H150     1.0000 0.68240  0.47820  0.61260  Biso   1.000  H
  H151     1.0000 0.31760  0.47820  0.88740  Biso   1.000  H
  H152     1.0000 0.18240  0.02180  0.38740  Biso   1.000  H
  C209     1.0000 0.11180  0.93610  0.89080  Biso   1.000  C
  C210     1.0000 0.38820  0.56390  0.39080  Biso   1.000  C
  C211     1.0000 0.61180  0.56390  0.10920  Biso   1.000  C
  C212     1.0000 0.88820  0.93610  0.60920  Biso   1.000  C
  C213     1.0000 0.88820  0.06390  0.10920  Biso   1.000  C
  C214     1.0000 0.61180  0.43610  0.60920  Biso   1.000  C
  C215     1.0000 0.38820  0.43610  0.89080  Biso   1.000  C
  C216     1.0000 0.11180  0.06390  0.39080  Biso   1.000  C
  H153     1.0000 0.11890  0.89320  0.91670  Biso   1.000  H
  H154     1.0000 0.38110  0.60680  0.41670  Biso   1.000  H
  H155     1.0000 0.61890  0.60680  0.08330  Biso   1.000  H
  H156     1.0000 0.88110  0.89320  0.58330  Biso   1.000  H
  H157     1.0000 0.88110  0.10680  0.08330  Biso   1.000  H
  H158     1.0000 0.61890  0.39320  0.58330  Biso   1.000  H
  H159     1.0000 0.38110  0.39320  0.91670  Biso   1.000  H
  H160     1.0000 0.11890  0.10680  0.41670  Biso   1.000  H
  C217     1.0000 0.06460  0.94780  0.87090  Biso   1.000  C
  C218     1.0000 0.43540  0.55220  0.37090  Biso   1.000  C
  C219     1.0000 0.56460  0.55220  0.12910  Biso   1.000  C
  C220     1.0000 0.93540  0.94780  0.62910  Biso   1.000  C
  C221     1.0000 0.93540  0.05220  0.12910  Biso   1.000  C
  C222     1.0000 0.56460  0.44780  0.62910  Biso   1.000  C
  C223     1.0000 0.43540  0.44780  0.87090  Biso   1.000  C
  C224     1.0000 0.06460  0.05220  0.37090  Biso   1.000  C
  H161     1.0000 0.03900  0.91350  0.88380  Biso   1.000  H
  H162     1.0000 0.46100  0.58650  0.38380  Biso   1.000  H
  H163     1.0000 0.53900  0.58650  0.11620  Biso   1.000  H
  H164     1.0000 0.96100  0.91350  0.61620  Biso   1.000  H
  H165     1.0000 0.96100  0.08650  0.11620  Biso   1.000  H
  H166     1.0000 0.53900  0.41350  0.61620  Biso   1.000  H
  H167     1.0000 0.46100  0.41350  0.88380  Biso   1.000  H
  H168     1.0000 0.03900  0.08650  0.38380  Biso   1.000  H
  C225     1.0000 0.05362  0.00790  0.83270  Biso   1.000  C
  C226     1.0000 0.44638  0.49210  0.33270  Biso   1.000  C
  C227     1.0000 0.55362  0.49210  0.16730  Biso   1.000  C
  C228     1.0000 0.94638  0.00790  0.66730  Biso   1.000  C
  C229     1.0000 0.94638  0.99210  0.16730  Biso   1.000  C
  C230     1.0000 0.55362  0.50790  0.66730  Biso   1.000  C
  C231     1.0000 0.44638  0.50790  0.83270  Biso   1.000  C
  C232     1.0000 0.05362  0.99210  0.33270  Biso   1.000  C
  H169     1.0000 0.02080  0.01490  0.81820  Biso   1.000  H
  H170     1.0000 0.47920  0.48510  0.31820  Biso   1.000  H
  H171     1.0000 0.52080  0.48510  0.18180  Biso   1.000  H
  H172     1.0000 0.97920  0.01490  0.68180  Biso   1.000  H
  H173     1.0000 0.97920  0.98510  0.18180  Biso   1.000  H
  H174     1.0000 0.52080  0.51490  0.68180  Biso   1.000  H
  H175     1.0000 0.47920  0.51490  0.81820  Biso   1.000  H
  H176     1.0000 0.02080  0.98510  0.31820  Biso   1.000  H
  C233     1.0000 0.09087  0.05860  0.81550  Biso   1.000  C
  C234     1.0000 0.40913  0.44140  0.31550  Biso   1.000  C
  C235     1.0000 0.59087  0.44140  0.18450  Biso   1.000  C
  C236     1.0000 0.90913  0.05860  0.68450  Biso   1.000  C
  C237     1.0000 0.90913  0.94140  0.18450  Biso   1.000  C
  C238     1.0000 0.59087  0.55860  0.68450  Biso   1.000  C
  C239     1.0000 0.40913  0.55860  0.81550  Biso   1.000  C
  C240     1.0000 0.09087  0.94140  0.31550  Biso   1.000  C
  H177     1.0000 0.08330  0.10090  0.78920  Biso   1.000  H
  H178     1.0000 0.41670  0.39910  0.28920  Biso   1.000  H
  H179     1.0000 0.58330  0.39910  0.21080  Biso   1.000  H
  H180     1.0000 0.91670  0.10090  0.71080  Biso   1.000  H
  H181     1.0000 0.91670  0.89910  0.21080  Biso   1.000  H
  H182     1.0000 0.58330  0.60090  0.71080  Biso   1.000  H
  H183     1.0000 0.41670  0.60090  0.78920  Biso   1.000  H
  H184     1.0000 0.08330  0.89910  0.28920  Biso   1.000  H
  C241     1.0000 0.17812  0.15620  0.54530  Biso   1.000  C
  C242     1.0000 0.32188  0.34380  0.04530  Biso   1.000  C
  C243     1.0000 0.67812  0.34380  0.45470  Biso   1.000  C
  C244     1.0000 0.82188  0.15620  0.95470  Biso   1.000  C
  C245     1.0000 0.82188  0.84380  0.45470  Biso   1.000  C
  C246     1.0000 0.67812  0.65620  0.95470  Biso   1.000  C
  C247     1.0000 0.32188  0.65620  0.54530  Biso   1.000  C
  C248     1.0000 0.17812  0.84380  0.04530  Biso   1.000  C
  C249     1.0000 0.13098  0.18610  0.55840  Biso   1.000  C
  C250     1.0000 0.36902  0.31390  0.05840  Biso   1.000  C
  C251     1.0000 0.63098  0.31390  0.44160  Biso   1.000  C
  C252     1.0000 0.86902  0.18610  0.94160  Biso   1.000  C
  C253     1.0000 0.86902  0.81390  0.44160  Biso   1.000  C
  C254     1.0000 0.63098  0.68610  0.94160  Biso   1.000  C
  C255     1.0000 0.36902  0.68610  0.55840  Biso   1.000  C
  C256     1.0000 0.13098  0.81390  0.05840  Biso   1.000  C
  H185     1.0000 0.11460  0.17170  0.59500  Biso   1.000  H
  H186     1.0000 0.38540  0.32830  0.09500  Biso   1.000  H
  H187     1.0000 0.61460  0.32830  0.40500  Biso   1.000  H
  H188     1.0000 0.88540  0.17170  0.90500  Biso   1.000  H
  H189     1.0000 0.88540  0.82830  0.40500  Biso   1.000  H
  H190     1.0000 0.61460  0.67170  0.90500  Biso   1.000  H
  H191     1.0000 0.38540  0.67170  0.59500  Biso   1.000  H
  H192     1.0000 0.11460  0.82830  0.09500  Biso   1.000  H
  C257     1.0000 0.10796  0.23740  0.51730  Biso   1.000  C
  C258     1.0000 0.39204  0.26260  0.01730  Biso   1.000  C
  C259     1.0000 0.60796  0.26260  0.48270  Biso   1.000  C
  C260     1.0000 0.89204  0.23740  0.98270  Biso   1.000  C
  C261     1.0000 0.89204  0.76260  0.48270  Biso   1.000  C
  C262     1.0000 0.60796  0.73740  0.98270  Biso   1.000  C
  C263     1.0000 0.39204  0.73740  0.51730  Biso   1.000  C
  C264     1.0000 0.10796  0.76260  0.01730  Biso   1.000  C
  H193     1.0000 0.07590  0.25760  0.52570  Biso   1.000  H
  H194     1.0000 0.42410  0.24240  0.02570  Biso   1.000  H
  H195     1.0000 0.57590  0.24240  0.47430  Biso   1.000  H
  H196     1.0000 0.92410  0.25760  0.97430  Biso   1.000  H
  H197     1.0000 0.92410  0.74240  0.47430  Biso   1.000  H
  H198     1.0000 0.57590  0.75760  0.97430  Biso   1.000  H
  H199     1.0000 0.42410  0.75760  0.52570  Biso   1.000  H
  H200     1.0000 0.07590  0.74240  0.02570  Biso   1.000  H
  C265     1.0000 0.13258  0.25810  0.46430  Biso   1.000  C
  C266     1.0000 0.36742  0.24190  0.96430  Biso   1.000  C
  C267     1.0000 0.63258  0.24190  0.53570  Biso   1.000  C
  C268     1.0000 0.86742  0.25810  0.03570  Biso   1.000  C
  C269     1.0000 0.86742  0.74190  0.53570  Biso   1.000  C
  C270     1.0000 0.63258  0.75810  0.03570  Biso   1.000  C
  C271     1.0000 0.36742  0.75810  0.46430  Biso   1.000  C
  C272     1.0000 0.13258  0.74190  0.96430  Biso   1.000  C
  H201     1.0000 0.11740  0.29290  0.43630  Biso   1.000  H
  H202     1.0000 0.38260  0.20710  0.93630  Biso   1.000  H
  H203     1.0000 0.61740  0.20710  0.56370  Biso   1.000  H
  H204     1.0000 0.88260  0.29290  0.06370  Biso   1.000  H
  H205     1.0000 0.88260  0.70710  0.56370  Biso   1.000  H
  H206     1.0000 0.61740  0.79290  0.06370  Biso   1.000  H
  H207     1.0000 0.38260  0.79290  0.43630  Biso   1.000  H
  H208     1.0000 0.11740  0.70710  0.93630  Biso   1.000  H
  C273     1.0000 0.17905  0.22850  0.45200  Biso   1.000  C
  C274     1.0000 0.32095  0.27150  0.95200  Biso   1.000  C
  C275     1.0000 0.67905  0.27150  0.54800  Biso   1.000  C
  C276     1.0000 0.82095  0.22850  0.04800  Biso   1.000  C
  C277     1.0000 0.82095  0.77150  0.54800  Biso   1.000  C
  C278     1.0000 0.67905  0.72850  0.04800  Biso   1.000  C
  C279     1.0000 0.32095  0.72850  0.45200  Biso   1.000  C
  C280     1.0000 0.17905  0.77150  0.95200  Biso   1.000  C
  H209     1.0000 0.19550  0.24320  0.41560  Biso   1.000  H
  H210     1.0000 0.30450  0.25680  0.91560  Biso   1.000  H
  H211     1.0000 0.69550  0.25680  0.58440  Biso   1.000  H
  H212     1.0000 0.80450  0.24320  0.08440  Biso   1.000  H
  H213     1.0000 0.80450  0.75680  0.58440  Biso   1.000  H
  H214     1.0000 0.69550  0.74320  0.08440  Biso   1.000  H
  H215     1.0000 0.30450  0.74320  0.41560  Biso   1.000  H
  H216     1.0000 0.19550  0.75680  0.91560  Biso   1.000  H
  C281     1.0000 0.20174  0.17810  0.49170  Biso   1.000  C
  C282     1.0000 0.29826  0.32190  0.99170  Biso   1.000  C
  C283     1.0000 0.70174  0.32190  0.50830  Biso   1.000  C
  C284     1.0000 0.79826  0.17810  0.00830  Biso   1.000  C
  C285     1.0000 0.79826  0.82190  0.50830  Biso   1.000  C
  C286     1.0000 0.70174  0.67810  0.00830  Biso   1.000  C
  C287     1.0000 0.29826  0.67810  0.49170  Biso   1.000  C
  C288     1.0000 0.20174  0.82190  0.99170  Biso   1.000  C
  H217     1.0000 0.23370  0.15820  0.48260  Biso   1.000  H
  H218     1.0000 0.26630  0.34180  0.98260  Biso   1.000  H
  H219     1.0000 0.73370  0.34180  0.51740  Biso   1.000  H
  H220     1.0000 0.76630  0.15820  0.01740  Biso   1.000  H
  H221     1.0000 0.76630  0.84180  0.51740  Biso   1.000  H
  H222     1.0000 0.73370  0.65820  0.01740  Biso   1.000  H
  H223     1.0000 0.26630  0.65820  0.48260  Biso   1.000  H
  H224     1.0000 0.23370  0.84180  0.98260  Biso   1.000  H
  C289     1.0000 0.17451  0.21030  0.83900  Biso   1.000  C
  C290     1.0000 0.32549  0.28970  0.33900  Biso   1.000  C
  C291     1.0000 0.67451  0.28970  0.16100  Biso   1.000  C
  C292     1.0000 0.82549  0.21030  0.66100  Biso   1.000  C
  C293     1.0000 0.82549  0.78970  0.16100  Biso   1.000  C
  C294     1.0000 0.67451  0.71030  0.66100  Biso   1.000  C
  C295     1.0000 0.32549  0.71030  0.83900  Biso   1.000  C
  C296     1.0000 0.17451  0.78970  0.33900  Biso   1.000  C
  C297     1.0000 0.13628  0.22610  0.87850  Biso   1.000  C
  C298     1.0000 0.36372  0.27390  0.37850  Biso   1.000  C
  C299     1.0000 0.63628  0.27390  0.12150  Biso   1.000  C
  C300     1.0000 0.86372  0.22610  0.62150  Biso   1.000  C
  C301     1.0000 0.86372  0.77390  0.12150  Biso   1.000  C
  C302     1.0000 0.63628  0.72610  0.62150  Biso   1.000  C
  C303     1.0000 0.36372  0.72610  0.87850  Biso   1.000  C
  C304     1.0000 0.13628  0.77390  0.37850  Biso   1.000  C
  H225     1.0000 0.11290  0.18660  0.88840  Biso   1.000  H
  H226     1.0000 0.38710  0.31340  0.38840  Biso   1.000  H
  H227     1.0000 0.61290  0.31340  0.11160  Biso   1.000  H
  H228     1.0000 0.88710  0.18660  0.61160  Biso   1.000  H
  H229     1.0000 0.88710  0.81340  0.11160  Biso   1.000  H
  H230     1.0000 0.61290  0.68660  0.61160  Biso   1.000  H
  H231     1.0000 0.38710  0.68660  0.88840  Biso   1.000  H
  H232     1.0000 0.11290  0.81340  0.38840  Biso   1.000  H
  C305     1.0000 0.13194  0.30030  0.90410  Biso   1.000  C
  C306     1.0000 0.36806  0.19970  0.40410  Biso   1.000  C
  C307     1.0000 0.63194  0.19970  0.09590  Biso   1.000  C
  C308     1.0000 0.86806  0.30030  0.59590  Biso   1.000  C
  C309     1.0000 0.86806  0.69970  0.09590  Biso   1.000  C
  C310     1.0000 0.63194  0.80030  0.59590  Biso   1.000  C
  C311     1.0000 0.36806  0.80030  0.90410  Biso   1.000  C
  C312     1.0000 0.13194  0.69970  0.40410  Biso   1.000  C
  H233     1.0000 0.10580  0.31130  0.93170  Biso   1.000  H
  H234     1.0000 0.39420  0.18870  0.43170  Biso   1.000  H
  H235     1.0000 0.60580  0.18870  0.06830  Biso   1.000  H
  H236     1.0000 0.89420  0.31130  0.56830  Biso   1.000  H
  H237     1.0000 0.89420  0.68870  0.06830  Biso   1.000  H
  H238     1.0000 0.60580  0.81130  0.56830  Biso   1.000  H
  H239     1.0000 0.39420  0.81130  0.93170  Biso   1.000  H
  H240     1.0000 0.10580  0.68870  0.43170  Biso   1.000  H
  C313     1.0000 0.16570  0.35780  0.88910  Biso   1.000  C
  C314     1.0000 0.33430  0.14220  0.38910  Biso   1.000  C
  C315     1.0000 0.66570  0.14220  0.11090  Biso   1.000  C
  C316     1.0000 0.83430  0.35780  0.61090  Biso   1.000  C
  C317     1.0000 0.83430  0.64220  0.11090  Biso   1.000  C
  C318     1.0000 0.66570  0.85780  0.61090  Biso   1.000  C
  C319     1.0000 0.33430  0.85780  0.88910  Biso   1.000  C
  C320     1.0000 0.16570  0.64220  0.38910  Biso   1.000  C
  H241     1.0000 0.16280  0.40820  0.90670  Biso   1.000  H
  H242     1.0000 0.33720  0.09180  0.40670  Biso   1.000  H
  H243     1.0000 0.66280  0.09180  0.09330  Biso   1.000  H
  H244     1.0000 0.83720  0.40820  0.59330  Biso   1.000  H
  H245     1.0000 0.83720  0.59180  0.09330  Biso   1.000  H
  H246     1.0000 0.66280  0.90820  0.59330  Biso   1.000  H
  H247     1.0000 0.33720  0.90820  0.90670  Biso   1.000  H
  H248     1.0000 0.16280  0.59180  0.40670  Biso   1.000  H
  C321     1.0000 0.20360  0.34210  0.84880  Biso   1.000  C
  C322     1.0000 0.29640  0.15790  0.34880  Biso   1.000  C
  C323     1.0000 0.70360  0.15790  0.15120  Biso   1.000  C
  C324     1.0000 0.79640  0.34210  0.65120  Biso   1.000  C
  C325     1.0000 0.79640  0.65790  0.15120  Biso   1.000  C
  C326     1.0000 0.70360  0.84210  0.65120  Biso   1.000  C
  C327     1.0000 0.29640  0.84210  0.84880  Biso   1.000  C
  C328     1.0000 0.20360  0.65790  0.34880  Biso   1.000  C
  H249     1.0000 0.22620  0.38230  0.83800  Biso   1.000  H
  H250     1.0000 0.27380  0.11770  0.33800  Biso   1.000  H
  H251     1.0000 0.72620  0.11770  0.16200  Biso   1.000  H
  H252     1.0000 0.77380  0.38230  0.66200  Biso   1.000  H
  H253     1.0000 0.77380  0.61770  0.16200  Biso   1.000  H
  H254     1.0000 0.72620  0.88230  0.66200  Biso   1.000  H
  H255     1.0000 0.27380  0.88230  0.83800  Biso   1.000  H
  H256     1.0000 0.22620  0.61770  0.33800  Biso   1.000  H
  C329     1.0000 0.20881  0.26910  0.82410  Biso   1.000  C
  C330     1.0000 0.29119  0.23090  0.32410  Biso   1.000  C
  C331     1.0000 0.70881  0.23090  0.17590  Biso   1.000  C
  C332     1.0000 0.79119  0.26910  0.67590  Biso   1.000  C
  C333     1.0000 0.79119  0.73090  0.17590  Biso   1.000  C
  C334     1.0000 0.70881  0.76910  0.67590  Biso   1.000  C
  C335     1.0000 0.29119  0.76910  0.82410  Biso   1.000  C
  C336     1.0000 0.20881  0.73090  0.32410  Biso   1.000  C
  H257     1.0000 0.23540  0.25830  0.79700  Biso   1.000  H
  H258     1.0000 0.26460  0.24170  0.29700  Biso   1.000  H
  H259     1.0000 0.73540  0.24170  0.20300  Biso   1.000  H
  H260     1.0000 0.76460  0.25830  0.70300  Biso   1.000  H
  H261     1.0000 0.76460  0.74170  0.20300  Biso   1.000  H
  H262     1.0000 0.73540  0.75830  0.70300  Biso   1.000  H
  H263     1.0000 0.26460  0.75830  0.79700  Biso   1.000  H
  H264     1.0000 0.23540  0.74170  0.29700  Biso   1.000  H
  C337     1.0000 0.18783  0.99120  0.56913  Biso   1.000  C
  C338     1.0000 0.31217  0.50880  0.06913  Biso   1.000  C
  C339     1.0000 0.68783  0.50880  0.43087  Biso   1.000  C
  C340     1.0000 0.81217  0.99120  0.93087  Biso   1.000  C
  C341     1.0000 0.81217  0.00880  0.43087  Biso   1.000  C
  C342     1.0000 0.68783  0.49120  0.93087  Biso   1.000  C
  C343     1.0000 0.31217  0.49120  0.56913  Biso   1.000  C
  C344     1.0000 0.18783  0.00880  0.06913  Biso   1.000  C
  C345     1.0000 0.21531  0.92600  0.58520  Biso   1.000  C
  C346     1.0000 0.28469  0.57400  0.08520  Biso   1.000  C
  C347     1.0000 0.71531  0.57400  0.41480  Biso   1.000  C
  C348     1.0000 0.78469  0.92600  0.91480  Biso   1.000  C
  C349     1.0000 0.78469  0.07400  0.41480  Biso   1.000  C
  C350     1.0000 0.71531  0.42600  0.91480  Biso   1.000  C
  C351     1.0000 0.28469  0.42600  0.58520  Biso   1.000  C
  C352     1.0000 0.21531  0.07400  0.08520  Biso   1.000  C
  H265     1.0000 0.24470  0.93190  0.60860  Biso   1.000  H
  H266     1.0000 0.25530  0.56810  0.10860  Biso   1.000  H
  H267     1.0000 0.74470  0.56810  0.39140  Biso   1.000  H
  H268     1.0000 0.75530  0.93190  0.89140  Biso   1.000  H
  H269     1.0000 0.75530  0.06810  0.39140  Biso   1.000  H
  H270     1.0000 0.74470  0.43190  0.89140  Biso   1.000  H
  H271     1.0000 0.25530  0.43190  0.60860  Biso   1.000  H
  H272     1.0000 0.24470  0.06810  0.10860  Biso   1.000  H
  C353     1.0000 0.20014  0.85240  0.56730  Biso   1.000  C
  C354     1.0000 0.29986  0.64760  0.06730  Biso   1.000  C
  C355     1.0000 0.70014  0.64760  0.43270  Biso   1.000  C
  C356     1.0000 0.79986  0.85240  0.93270  Biso   1.000  C
  C357     1.0000 0.79986  0.14760  0.43270  Biso   1.000  C
  C358     1.0000 0.70014  0.35240  0.93270  Biso   1.000  C
  C359     1.0000 0.29986  0.35240  0.56730  Biso   1.000  C
  C360     1.0000 0.20014  0.14760  0.06730  Biso   1.000  C
  H273     1.0000 0.21950  0.80790  0.57720  Biso   1.000  H
  H274     1.0000 0.28050  0.69210  0.07720  Biso   1.000  H
  H275     1.0000 0.71950  0.69210  0.42280  Biso   1.000  H
  H276     1.0000 0.78050  0.80790  0.92280  Biso   1.000  H
  H277     1.0000 0.78050  0.19210  0.42280  Biso   1.000  H
  H278     1.0000 0.71950  0.30790  0.92280  Biso   1.000  H
  H279     1.0000 0.28050  0.30790  0.57720  Biso   1.000  H
  H280     1.0000 0.21950  0.19210  0.07720  Biso   1.000  H
  C361     1.0000 0.15677  0.84400  0.53490  Biso   1.000  C
  C362     1.0000 0.34323  0.65600  0.03490  Biso   1.000  C
  C363     1.0000 0.65677  0.65600  0.46510  Biso   1.000  C
  C364     1.0000 0.84323  0.84400  0.96510  Biso   1.000  C
  C365     1.0000 0.84323  0.15600  0.46510  Biso   1.000  C
  C366     1.0000 0.65677  0.34400  0.96510  Biso   1.000  C
  C367     1.0000 0.34323  0.34400  0.53490  Biso   1.000  C
  C368     1.0000 0.15677  0.15600  0.03490  Biso   1.000  C
  H281     1.0000 0.14620  0.79340  0.52290  Biso   1.000  H
  H282     1.0000 0.35380  0.70660  0.02290  Biso   1.000  H
  H283     1.0000 0.64620  0.70660  0.47710  Biso   1.000  H
  H284     1.0000 0.85380  0.79340  0.97710  Biso   1.000  H
  H285     1.0000 0.85380  0.20660  0.47710  Biso   1.000  H
  H286     1.0000 0.64620  0.29340  0.97710  Biso   1.000  H
  H287     1.0000 0.35380  0.29340  0.52290  Biso   1.000  H
  H288     1.0000 0.14620  0.20660  0.02290  Biso   1.000  H
  C369     1.0000 0.12861  0.90800  0.51990  Biso   1.000  C
  C370     1.0000 0.37139  0.59200  0.01990  Biso   1.000  C
  C371     1.0000 0.62861  0.59200  0.48010  Biso   1.000  C
  C372     1.0000 0.87139  0.90800  0.98010  Biso   1.000  C
  C373     1.0000 0.87139  0.09200  0.48010  Biso   1.000  C
  C374     1.0000 0.62861  0.40800  0.98010  Biso   1.000  C
  C375     1.0000 0.37139  0.40800  0.51990  Biso   1.000  C
  C376     1.0000 0.12861  0.09200  0.01990  Biso   1.000  C
  H289     1.0000 0.09860  0.90160  0.49790  Biso   1.000  H
  H290     1.0000 0.40140  0.59840  0.99790  Biso   1.000  H
  H291     1.0000 0.59860  0.59840  0.50210  Biso   1.000  H
  H292     1.0000 0.90140  0.90160  0.00210  Biso   1.000  H
  H293     1.0000 0.90140  0.09840  0.50210  Biso   1.000  H
  H294     1.0000 0.59860  0.40160  0.00210  Biso   1.000  H
  H295     1.0000 0.40140  0.40160  0.49790  Biso   1.000  H
  H296     1.0000 0.09860  0.09840  0.99790  Biso   1.000  H
  C377     1.0000 0.14409  0.98160  0.53690  Biso   1.000  C
  C378     1.0000 0.35591  0.51840  0.03690  Biso   1.000  C
  C379     1.0000 0.64409  0.51840  0.46310  Biso   1.000  C
  C380     1.0000 0.85591  0.98160  0.96310  Biso   1.000  C
  C381     1.0000 0.85591  0.01840  0.46310  Biso   1.000  C
  C382     1.0000 0.64409  0.48160  0.96310  Biso   1.000  C
  C383     1.0000 0.35591  0.48160  0.53690  Biso   1.000  C
  C384     1.0000 0.14409  0.01840  0.03690  Biso   1.000  C
  H297     1.0000 0.12470  0.02590  0.52640  Biso   1.000  H
  H298     1.0000 0.37530  0.47410  0.02640  Biso   1.000  H
  H299     1.0000 0.62470  0.47410  0.47360  Biso   1.000  H
  H300     1.0000 0.87530  0.02590  0.97360  Biso   1.000  H
  H301     1.0000 0.87530  0.97410  0.47360  Biso   1.000  H
  H302     1.0000 0.62470  0.52590  0.97360  Biso   1.000  H
  H303     1.0000 0.37530  0.52590  0.52640  Biso   1.000  H
  H304     1.0000 0.12470  0.97410  0.02640  Biso   1.000  H
  N1       1.0000 0.13892  0.25867  0.71142  Biso   1.000  N
  N2       1.0000 0.36108  0.24133  0.21142  Biso   1.000  N
  N3       1.0000 0.63892  0.24133  0.28858  Biso   1.000  N
  N4       1.0000 0.86108  0.25867  0.78858  Biso   1.000  N
  N5       1.0000 0.86108  0.74133  0.28858  Biso   1.000  N
  N6       1.0000 0.63892  0.75867  0.78858  Biso   1.000  N
  N7       1.0000 0.36108  0.75867  0.71142  Biso   1.000  N
  N8       1.0000 0.13892  0.74133  0.21142  Biso   1.000  N
  N9       1.0000 0.14233  0.95024  0.70408  Biso   1.000  N
  N10      1.0000 0.35767  0.54976  0.20408  Biso   1.000  N
  N11      1.0000 0.64233  0.54976  0.29592  Biso   1.000  N
  N12      1.0000 0.85767  0.95024  0.79592  Biso   1.000  N
  N13      1.0000 0.85767  0.04976  0.29592  Biso   1.000  N
  N14      1.0000 0.64233  0.45024  0.79592  Biso   1.000  N
  N15      1.0000 0.35767  0.45024  0.70408  Biso   1.000  N
  N16      1.0000 0.14233  0.04976  0.20408  Biso   1.000  N
  N17      1.0000 0.17901  0.22068  0.68942  Biso   1.000  N
  N18      1.0000 0.32099  0.27932  0.18942  Biso   1.000  N
  N19      1.0000 0.67901  0.27932  0.31058  Biso   1.000  N
  N20      1.0000 0.82099  0.22068  0.81058  Biso   1.000  N
  N21      1.0000 0.82099  0.77932  0.31058  Biso   1.000  N
  N22      1.0000 0.67901  0.72068  0.81058  Biso   1.000  N
  N23      1.0000 0.32099  0.72068  0.68942  Biso   1.000  N
  N24      1.0000 0.17901  0.77932  0.18942  Biso   1.000  N
  N25      1.0000 0.20860  0.26810  0.65923  Biso   1.000  N
  N26      1.0000 0.29140  0.23190  0.15923  Biso   1.000  N
  N27      1.0000 0.70860  0.23190  0.34077  Biso   1.000  N
  N28      1.0000 0.79140  0.26810  0.84077  Biso   1.000  N
  N29      1.0000 0.79140  0.73190  0.34077  Biso   1.000  N
  N30      1.0000 0.70860  0.76810  0.84077  Biso   1.000  N
  N31      1.0000 0.29140  0.76810  0.65923  Biso   1.000  N
  N32      1.0000 0.20860  0.73190  0.15923  Biso   1.000  N
  N33      1.0000 0.18885  0.33907  0.66098  Biso   1.000  N
  N34      1.0000 0.31115  0.16093  0.16098  Biso   1.000  N
  N35      1.0000 0.68885  0.16093  0.33902  Biso   1.000  N
  N36      1.0000 0.81115  0.33907  0.83902  Biso   1.000  N
  N37      1.0000 0.81115  0.66093  0.33902  Biso   1.000  N
  N38      1.0000 0.68885  0.83907  0.83902  Biso   1.000  N
  N39      1.0000 0.31115  0.83907  0.66098  Biso   1.000  N
  N40      1.0000 0.18885  0.66093  0.16098  Biso   1.000  N
  N41      1.0000 0.05157  0.52032  0.73803  Biso   1.000  N
  N42      1.0000 0.44843  0.97968  0.23803  Biso   1.000  N
  N43      1.0000 0.55157  0.97968  0.26197  Biso   1.000  N
  N44      1.0000 0.94843  0.52032  0.76197  Biso   1.000  N
  N45      1.0000 0.94843  0.47968  0.26197  Biso   1.000  N
  N46      1.0000 0.55157  0.02032  0.76197  Biso   1.000  N
  N47      1.0000 0.44843  0.02032  0.73803  Biso   1.000  N
  N48      1.0000 0.05157  0.47968  0.23803  Biso   1.000  N
  N49      1.0000 0.18458  0.98940  0.71312  Biso   1.000  N
  N50      1.0000 0.31542  0.51060  0.21312  Biso   1.000  N
  N51      1.0000 0.68458  0.51060  0.28688  Biso   1.000  N
  N52      1.0000 0.81542  0.98940  0.78688  Biso   1.000  N
  N53      1.0000 0.81542  0.01060  0.28688  Biso   1.000  N
  N54      1.0000 0.68458  0.48940  0.78688  Biso   1.000  N
  N55      1.0000 0.31542  0.48940  0.71312  Biso   1.000  N
  N56      1.0000 0.18458  0.01060  0.21312  Biso   1.000  N
  N57      1.0000 0.21841  0.94500  0.73926  Biso   1.000  N
  N58      1.0000 0.28159  0.55500  0.23926  Biso   1.000  N
  N59      1.0000 0.71841  0.55500  0.26074  Biso   1.000  N
  N60      1.0000 0.78159  0.94500  0.76074  Biso   1.000  N
  N61      1.0000 0.78159  0.05500  0.26074  Biso   1.000  N
  N62      1.0000 0.71841  0.44500  0.76074  Biso   1.000  N
  N63      1.0000 0.28159  0.44500  0.73926  Biso   1.000  N
  N64      1.0000 0.21841  0.05500  0.23926  Biso   1.000  N
  N65      1.0000 0.19865  0.87513  0.74792  Biso   1.000  N
  N66      1.0000 0.30135  0.62487  0.24792  Biso   1.000  N
  N67      1.0000 0.69865  0.62487  0.25208  Biso   1.000  N
  N68      1.0000 0.80135  0.87513  0.75208  Biso   1.000  N
  N69      1.0000 0.80135  0.12487  0.25208  Biso   1.000  N
  N70      1.0000 0.69865  0.37513  0.75208  Biso   1.000  N
  N71      1.0000 0.30135  0.37513  0.74792  Biso   1.000  N
  N72      1.0000 0.19865  0.12487  0.24792  Biso   1.000  N
  N73      1.0000 0.05097  0.69162  0.73772  Biso   1.000  N
  N74      1.0000 0.44903  0.80838  0.23772  Biso   1.000  N
  N75      1.0000 0.55097  0.80838  0.26228  Biso   1.000  N
  N76      1.0000 0.94903  0.69162  0.76228  Biso   1.000  N
  N77      1.0000 0.94903  0.30838  0.26228  Biso   1.000  N
  N78      1.0000 0.55097  0.19162  0.76228  Biso   1.000  N
  N79      1.0000 0.44903  0.19162  0.73772  Biso   1.000  N
  N80      1.0000 0.05097  0.30838  0.23772  Biso   1.000  N
  P1       1.0000 0.18506  0.11496  0.80623  Biso   1.000  P
  P2       1.0000 0.31494  0.38504  0.30623  Biso   1.000  P
  P3       1.0000 0.68506  0.38504  0.19377  Biso   1.000  P
  P4       1.0000 0.81494  0.11496  0.69377  Biso   1.000  P
  P5       1.0000 0.81494  0.88504  0.19377  Biso   1.000  P
  P6       1.0000 0.68506  0.61496  0.69377  Biso   1.000  P
  P7       1.0000 0.31494  0.61496  0.80623  Biso   1.000  P
  P8       1.0000 0.18506  0.88504  0.30623  Biso   1.000  P
  P9       1.0000 0.20453  0.08691  0.59788  Biso   1.000  P
  P10      1.0000 0.29547  0.41309  0.09788  Biso   1.000  P
  P11      1.0000 0.70453  0.41309  0.40212  Biso   1.000  P
  P12      1.0000 0.79547  0.08691  0.90212  Biso   1.000  P
  P13      1.0000 0.79547  0.91309  0.40212  Biso   1.000  P
  P14      1.0000 0.70453  0.58691  0.90212  Biso   1.000  P
  P15      1.0000 0.29547  0.58691  0.59788  Biso   1.000  P
  P16      1.0000 0.20453  0.91309  0.09788  Biso   1.000  P
  Cu1      1.0000 0.00000  0.60570  0.75000  Biso   1.000  Cu
  Cu2      1.0000 0.50000  0.89430  0.25000  Biso   1.000  Cu
  Cu3      1.0000 0.00000  0.39430  0.25000  Biso   1.000  Cu
  Cu4      1.0000 0.50000  0.10570  0.75000  Biso   1.000  Cu
  Pt1      1.0000 0.18688  0.10541  0.70048  Biso   1.000  Pt
  Pt2      1.0000 0.31312  0.39459  0.20048  Biso   1.000  Pt
  Pt3      1.0000 0.68688  0.39459  0.29952  Biso   1.000  Pt
  Pt4      1.0000 0.81312  0.10541  0.79952  Biso   1.000  Pt
  Pt5      1.0000 0.81312  0.89459  0.29952  Biso   1.000  Pt
  Pt6      1.0000 0.68688  0.60541  0.79952  Biso   1.000  Pt
  Pt7      1.0000 0.31312  0.60541  0.70048  Biso   1.000  Pt
  Pt8      1.0000 0.18688  0.89459  0.20048  Biso   1.000  Pt
