data_image0
_cell_length_a       17.6385
_cell_length_b       17.6385
_cell_length_c       26.2255
_cell_angle_alpha    90
_cell_angle_beta     90
_cell_angle_gamma    120

_symmetry_space_group_name_H-M    "P 1"
_symmetry_int_tables_number       1

loop_
  _symmetry_equiv_pos_as_xyz
  'x, y, z'

loop_
  _atom_site_label
  _atom_site_occupancy
  _atom_site_fract_x
  _atom_site_fract_y
  _atom_site_fract_z
  _atom_site_thermal_displace_type
  _atom_site_B_iso_or_equiv
  _atom_site_type_symbol
  Cu1      1.0000 0.78538  0.66670  0.66670  Biso   1.000  Cu
  Cu2      1.0000 0.11871  0.33337  0.33337  Biso   1.000  Cu
  Cu3      1.0000 0.45205  0.00003  0.00003  Biso   1.000  Cu
  Cu4      1.0000 0.33330  0.11868  0.66670  Biso   1.000  Cu
  Cu5      1.0000 0.66663  0.78535  0.33337  Biso   1.000  Cu
  Cu6      1.0000 0.99997  0.45201  0.00003  Biso   1.000  Cu
  Cu7      1.0000 0.88132  0.21462  0.66670  Biso   1.000  Cu
  Cu8      1.0000 0.21465  0.88129  0.33337  Biso   1.000  Cu
  Cu9      1.0000 0.54799  0.54795  0.00003  Biso   1.000  Cu
  O1       1.0000 0.76967  0.64831  0.57411  Biso   1.000  O
  O2       1.0000 0.10300  0.31498  0.24078  Biso   1.000  O
  O3       1.0000 0.43634  0.98164  0.90744  Biso   1.000  O
  O4       1.0000 0.35169  0.12136  0.57411  Biso   1.000  O
  O5       1.0000 0.68502  0.78803  0.24078  Biso   1.000  O
  O6       1.0000 0.01836  0.45469  0.90744  Biso   1.000  O
  O7       1.0000 0.87864  0.23033  0.57411  Biso   1.000  O
  O8       1.0000 0.21197  0.89700  0.24078  Biso   1.000  O
  O9       1.0000 0.54531  0.56366  0.90744  Biso   1.000  O
  O10      1.0000 0.64831  0.76967  0.42589  Biso   1.000  O
  O11      1.0000 0.98164  0.43634  0.09256  Biso   1.000  O
  O12      1.0000 0.31498  0.10300  0.75922  Biso   1.000  O
  O13      1.0000 0.12136  0.35169  0.42589  Biso   1.000  O
  O14      1.0000 0.45469  0.01836  0.09256  Biso   1.000  O
  O15      1.0000 0.78803  0.68502  0.75922  Biso   1.000  O
  O16      1.0000 0.23033  0.87864  0.42589  Biso   1.000  O
  O17      1.0000 0.56366  0.54531  0.09256  Biso   1.000  O
  O18      1.0000 0.89700  0.21197  0.75922  Biso   1.000  O
  O19      1.0000 0.64040  0.52920  0.56934  Biso   1.000  O
  O20      1.0000 0.97373  0.19587  0.23601  Biso   1.000  O
  O21      1.0000 0.30707  0.86253  0.90267  Biso   1.000  O
  O22      1.0000 0.47080  0.11120  0.56934  Biso   1.000  O
  O23      1.0000 0.80413  0.77787  0.23601  Biso   1.000  O
  O24      1.0000 0.13747  0.44453  0.90267  Biso   1.000  O
  O25      1.0000 0.88880  0.35960  0.56934  Biso   1.000  O
  O26      1.0000 0.22213  0.02627  0.23601  Biso   1.000  O
  O27      1.0000 0.55547  0.69293  0.90267  Biso   1.000  O
  O28      1.0000 0.52920  0.64040  0.43066  Biso   1.000  O
  O29      1.0000 0.86253  0.30707  0.09733  Biso   1.000  O
  O30      1.0000 0.19587  0.97373  0.76399  Biso   1.000  O
  O31      1.0000 0.11120  0.47080  0.43066  Biso   1.000  O
  O32      1.0000 0.44453  0.13747  0.09733  Biso   1.000  O
  O33      1.0000 0.77787  0.80413  0.76399  Biso   1.000  O
  O34      1.0000 0.35960  0.88880  0.43066  Biso   1.000  O
  O35      1.0000 0.69293  0.55547  0.09733  Biso   1.000  O
  O36      1.0000 0.02627  0.22213  0.76399  Biso   1.000  O
  N1       1.0000 0.65544  0.57744  0.67484  Biso   1.000  N
  N2       1.0000 0.98877  0.24411  0.34151  Biso   1.000  N
  N3       1.0000 0.32211  0.91077  0.00817  Biso   1.000  N
  N4       1.0000 0.42256  0.07800  0.67484  Biso   1.000  N
  N5       1.0000 0.75589  0.74467  0.34151  Biso   1.000  N
  N6       1.0000 0.08923  0.41133  0.00817  Biso   1.000  N
  N7       1.0000 0.92200  0.34456  0.67484  Biso   1.000  N
  N8       1.0000 0.25533  0.01123  0.34151  Biso   1.000  N
  N9       1.0000 0.58867  0.67789  0.00817  Biso   1.000  N
  N10      1.0000 0.57744  0.65544  0.32516  Biso   1.000  N
  N11      1.0000 0.91077  0.32211  0.99183  Biso   1.000  N
  N12      1.0000 0.24411  0.98877  0.65849  Biso   1.000  N
  N13      1.0000 0.07800  0.42256  0.32516  Biso   1.000  N
  N14      1.0000 0.41133  0.08923  0.99183  Biso   1.000  N
  N15      1.0000 0.74467  0.75589  0.65849  Biso   1.000  N
  N16      1.0000 0.34456  0.92200  0.32516  Biso   1.000  N
  N17      1.0000 0.67789  0.58867  0.99183  Biso   1.000  N
  N18      1.0000 0.01123  0.25533  0.65849  Biso   1.000  N
  N19      1.0000 0.42401  0.24736  0.67695  Biso   1.000  N
  N20      1.0000 0.75734  0.91403  0.34362  Biso   1.000  N
  N21      1.0000 0.09068  0.58069  0.01028  Biso   1.000  N
  N22      1.0000 0.75264  0.17665  0.67695  Biso   1.000  N
  N23      1.0000 0.08597  0.84332  0.34362  Biso   1.000  N
  N24      1.0000 0.41931  0.50998  0.01028  Biso   1.000  N
  N25      1.0000 0.82335  0.57599  0.67695  Biso   1.000  N
  N26      1.0000 0.15668  0.24266  0.34362  Biso   1.000  N
  N27      1.0000 0.49002  0.90932  0.01028  Biso   1.000  N
  N28      1.0000 0.24736  0.42401  0.32305  Biso   1.000  N
  N29      1.0000 0.58069  0.09068  0.98972  Biso   1.000  N
  N30      1.0000 0.91403  0.75734  0.65638  Biso   1.000  N
  N31      1.0000 0.17665  0.75264  0.32305  Biso   1.000  N
  N32      1.0000 0.50998  0.41931  0.98972  Biso   1.000  N
  N33      1.0000 0.84332  0.08597  0.65638  Biso   1.000  N
  N34      1.0000 0.57599  0.82335  0.32305  Biso   1.000  N
  N35      1.0000 0.90932  0.49002  0.98972  Biso   1.000  N
  N36      1.0000 0.24266  0.15668  0.65638  Biso   1.000  N
  C1       1.0000 0.48880  0.37010  0.73304  Biso   1.000  C
  C2       1.0000 0.82213  0.03677  0.39971  Biso   1.000  C
  C3       1.0000 0.15547  0.70343  0.06637  Biso   1.000  C
  C4       1.0000 0.62990  0.11870  0.73304  Biso   1.000  C
  C5       1.0000 0.96323  0.78537  0.39971  Biso   1.000  C
  C6       1.0000 0.29657  0.45203  0.06637  Biso   1.000  C
  C7       1.0000 0.88130  0.51120  0.73304  Biso   1.000  C
  C8       1.0000 0.21463  0.17787  0.39971  Biso   1.000  C
  C9       1.0000 0.54797  0.84453  0.06637  Biso   1.000  C
  C10      1.0000 0.37010  0.48880  0.26696  Biso   1.000  C
  C11      1.0000 0.70343  0.15547  0.93363  Biso   1.000  C
  C12      1.0000 0.03677  0.82213  0.60029  Biso   1.000  C
  C13      1.0000 0.11870  0.62990  0.26696  Biso   1.000  C
  C14      1.0000 0.45203  0.29657  0.93363  Biso   1.000  C
  C15      1.0000 0.78537  0.96323  0.60029  Biso   1.000  C
  C16      1.0000 0.51120  0.88130  0.26696  Biso   1.000  C
  C17      1.0000 0.84453  0.54797  0.93363  Biso   1.000  C
  C18      1.0000 0.17787  0.21463  0.60029  Biso   1.000  C
  C19      1.0000 0.42390  0.28580  0.72053  Biso   1.000  C
  C20      1.0000 0.75723  0.95247  0.38720  Biso   1.000  C
  C21      1.0000 0.09057  0.61913  0.05386  Biso   1.000  C
  C22      1.0000 0.71420  0.13810  0.72053  Biso   1.000  C
  C23      1.0000 0.04753  0.80477  0.38720  Biso   1.000  C
  C24      1.0000 0.38087  0.47143  0.05386  Biso   1.000  C
  C25      1.0000 0.86190  0.57610  0.72053  Biso   1.000  C
  C26      1.0000 0.19523  0.24277  0.38720  Biso   1.000  C
  C27      1.0000 0.52857  0.90943  0.05386  Biso   1.000  C
  C28      1.0000 0.28580  0.42390  0.27947  Biso   1.000  C
  C29      1.0000 0.61913  0.09057  0.94614  Biso   1.000  C
  C30      1.0000 0.95247  0.75723  0.61280  Biso   1.000  C
  C31      1.0000 0.13810  0.71420  0.27947  Biso   1.000  C
  C32      1.0000 0.47143  0.38087  0.94614  Biso   1.000  C
  C33      1.0000 0.80477  0.04753  0.61280  Biso   1.000  C
  C34      1.0000 0.57610  0.86190  0.27947  Biso   1.000  C
  C35      1.0000 0.90943  0.52857  0.94614  Biso   1.000  C
  C36      1.0000 0.24277  0.19523  0.61280  Biso   1.000  C
  C37      1.0000 0.48660  0.29350  0.64300  Biso   1.000  C
  C38      1.0000 0.81993  0.96017  0.30967  Biso   1.000  C
  C39      1.0000 0.15327  0.62683  0.97633  Biso   1.000  C
  C40      1.0000 0.70650  0.19310  0.64300  Biso   1.000  C
  C41      1.0000 0.03983  0.85977  0.30967  Biso   1.000  C
  C42      1.0000 0.37317  0.52643  0.97633  Biso   1.000  C
  C43      1.0000 0.80690  0.51340  0.64300  Biso   1.000  C
  C44      1.0000 0.14023  0.18007  0.30967  Biso   1.000  C
  C45      1.0000 0.47357  0.84673  0.97633  Biso   1.000  C
  C46      1.0000 0.29350  0.48660  0.35700  Biso   1.000  C
  C47      1.0000 0.62683  0.15327  0.02367  Biso   1.000  C
  C48      1.0000 0.96017  0.81993  0.69033  Biso   1.000  C
  C49      1.0000 0.19310  0.70650  0.35700  Biso   1.000  C
  C50      1.0000 0.52643  0.37317  0.02367  Biso   1.000  C
  C51      1.0000 0.85977  0.03983  0.69033  Biso   1.000  C
  C52      1.0000 0.51340  0.80690  0.35700  Biso   1.000  C
  C53      1.0000 0.84673  0.47357  0.02367  Biso   1.000  C
  C54      1.0000 0.18007  0.14023  0.69033  Biso   1.000  C
  C55      1.0000 0.55280  0.37800  0.65241  Biso   1.000  C
  C56      1.0000 0.88613  0.04467  0.31908  Biso   1.000  C
  C57      1.0000 0.21947  0.71133  0.98574  Biso   1.000  C
  C58      1.0000 0.62200  0.17480  0.65241  Biso   1.000  C
  C59      1.0000 0.95533  0.84147  0.31908  Biso   1.000  C
  C60      1.0000 0.28867  0.50813  0.98574  Biso   1.000  C
  C61      1.0000 0.82520  0.44720  0.65241  Biso   1.000  C
  C62      1.0000 0.15853  0.11387  0.31908  Biso   1.000  C
  C63      1.0000 0.49187  0.78053  0.98574  Biso   1.000  C
  C64      1.0000 0.37800  0.55280  0.34759  Biso   1.000  C
  C65      1.0000 0.71133  0.21947  0.01426  Biso   1.000  C
  C66      1.0000 0.04467  0.88613  0.68092  Biso   1.000  C
  C67      1.0000 0.17480  0.62200  0.34759  Biso   1.000  C
  C68      1.0000 0.50813  0.28867  0.01426  Biso   1.000  C
  C69      1.0000 0.84147  0.95533  0.68092  Biso   1.000  C
  C70      1.0000 0.44720  0.82520  0.34759  Biso   1.000  C
  C71      1.0000 0.78053  0.49187  0.01426  Biso   1.000  C
  C72      1.0000 0.11387  0.15853  0.68092  Biso   1.000  C
  C73      1.0000 0.55530  0.41760  0.69813  Biso   1.000  C
  C74      1.0000 0.88863  0.08427  0.36480  Biso   1.000  C
  C75      1.0000 0.22197  0.75093  0.03146  Biso   1.000  C
  C76      1.0000 0.58240  0.13770  0.69813  Biso   1.000  C
  C77      1.0000 0.91573  0.80437  0.36480  Biso   1.000  C
  C78      1.0000 0.24907  0.47103  0.03146  Biso   1.000  C
  C79      1.0000 0.86230  0.44470  0.69813  Biso   1.000  C
  C80      1.0000 0.19563  0.11137  0.36480  Biso   1.000  C
  C81      1.0000 0.52897  0.77803  0.03146  Biso   1.000  C
  C82      1.0000 0.41760  0.55530  0.30187  Biso   1.000  C
  C83      1.0000 0.75093  0.22197  0.96854  Biso   1.000  C
  C84      1.0000 0.08427  0.88863  0.63520  Biso   1.000  C
  C85      1.0000 0.13770  0.58240  0.30187  Biso   1.000  C
  C86      1.0000 0.47103  0.24907  0.96854  Biso   1.000  C
  C87      1.0000 0.80437  0.91573  0.63520  Biso   1.000  C
  C88      1.0000 0.44470  0.86230  0.30187  Biso   1.000  C
  C89      1.0000 0.77803  0.52897  0.96854  Biso   1.000  C
  C90      1.0000 0.11137  0.19563  0.63520  Biso   1.000  C
  C91      1.0000 0.63120  0.50665  0.71288  Biso   1.000  C
  C92      1.0000 0.96453  0.17332  0.37955  Biso   1.000  C
  C93      1.0000 0.29787  0.83998  0.04621  Biso   1.000  C
  C94      1.0000 0.49335  0.12455  0.71288  Biso   1.000  C
  C95      1.0000 0.82668  0.79122  0.37955  Biso   1.000  C
  C96      1.0000 0.16002  0.45788  0.04621  Biso   1.000  C
  C97      1.0000 0.87545  0.36880  0.71288  Biso   1.000  C
  C98      1.0000 0.20878  0.03547  0.37955  Biso   1.000  C
  C99      1.0000 0.54212  0.70213  0.04621  Biso   1.000  C
  C100     1.0000 0.50665  0.63120  0.28712  Biso   1.000  C
  C101     1.0000 0.83998  0.29787  0.95379  Biso   1.000  C
  C102     1.0000 0.17332  0.96453  0.62045  Biso   1.000  C
  C103     1.0000 0.12455  0.49335  0.28712  Biso   1.000  C
  C104     1.0000 0.45788  0.16002  0.95379  Biso   1.000  C
  C105     1.0000 0.79122  0.82668  0.62045  Biso   1.000  C
  C106     1.0000 0.36880  0.87545  0.28712  Biso   1.000  C
  C107     1.0000 0.70213  0.54212  0.95379  Biso   1.000  C
  C108     1.0000 0.03547  0.20878  0.62045  Biso   1.000  C
  C109     1.0000 0.60900  0.62690  0.68402  Biso   1.000  C
  C110     1.0000 0.94233  0.29357  0.35069  Biso   1.000  C
  C111     1.0000 0.27567  0.96023  0.01735  Biso   1.000  C
  C112     1.0000 0.37310  0.98210  0.68402  Biso   1.000  C
  C113     1.0000 0.70643  0.64877  0.35069  Biso   1.000  C
  C114     1.0000 0.03977  0.31543  0.01735  Biso   1.000  C
  C115     1.0000 0.01790  0.39100  0.68402  Biso   1.000  C
  C116     1.0000 0.35123  0.05767  0.35069  Biso   1.000  C
  C117     1.0000 0.68457  0.72433  0.01735  Biso   1.000  C
  C118     1.0000 0.62690  0.60900  0.31598  Biso   1.000  C
  C119     1.0000 0.96023  0.27567  0.98265  Biso   1.000  C
  C120     1.0000 0.29357  0.94233  0.64931  Biso   1.000  C
  C121     1.0000 0.98210  0.37310  0.31598  Biso   1.000  C
  C122     1.0000 0.31543  0.03977  0.98265  Biso   1.000  C
  C123     1.0000 0.64877  0.70643  0.64931  Biso   1.000  C
  C124     1.0000 0.39100  0.01790  0.31598  Biso   1.000  C
  C125     1.0000 0.72433  0.68457  0.98265  Biso   1.000  C
  C126     1.0000 0.05767  0.35123  0.64931  Biso   1.000  C
  C127     1.0000 0.51040  0.57210  0.67650  Biso   1.000  C
  C128     1.0000 0.84373  0.23877  0.34317  Biso   1.000  C
  C129     1.0000 0.17707  0.90543  0.00983  Biso   1.000  C
  C130     1.0000 0.42790  0.93830  0.67650  Biso   1.000  C
  C131     1.0000 0.76123  0.60497  0.34317  Biso   1.000  C
  C132     1.0000 0.09457  0.27163  0.00983  Biso   1.000  C
  C133     1.0000 0.06170  0.48960  0.67650  Biso   1.000  C
  C134     1.0000 0.39503  0.15627  0.34317  Biso   1.000  C
  C135     1.0000 0.72837  0.82293  0.00983  Biso   1.000  C
  C136     1.0000 0.57210  0.51040  0.32350  Biso   1.000  C
  C137     1.0000 0.90543  0.17707  0.99017  Biso   1.000  C
  C138     1.0000 0.23877  0.84373  0.65683  Biso   1.000  C
  C139     1.0000 0.93830  0.42790  0.32350  Biso   1.000  C
  C140     1.0000 0.27163  0.09457  0.99017  Biso   1.000  C
  C141     1.0000 0.60497  0.76123  0.65683  Biso   1.000  C
  C142     1.0000 0.48960  0.06170  0.32350  Biso   1.000  C
  C143     1.0000 0.82293  0.72837  0.99017  Biso   1.000  C
  C144     1.0000 0.15627  0.39503  0.65683  Biso   1.000  C
  C145     1.0000 0.46750  0.62820  0.68450  Biso   1.000  C
  C146     1.0000 0.80083  0.29487  0.35117  Biso   1.000  C
  C147     1.0000 0.13417  0.96153  0.01783  Biso   1.000  C
  C148     1.0000 0.37180  0.83930  0.68450  Biso   1.000  C
  C149     1.0000 0.70513  0.50597  0.35117  Biso   1.000  C
  C150     1.0000 0.03847  0.17263  0.01783  Biso   1.000  C
  C151     1.0000 0.16070  0.53250  0.68450  Biso   1.000  C
  C152     1.0000 0.49403  0.19917  0.35117  Biso   1.000  C
  C153     1.0000 0.82737  0.86583  0.01783  Biso   1.000  C
  C154     1.0000 0.62820  0.46750  0.31550  Biso   1.000  C
  C155     1.0000 0.96153  0.13417  0.98217  Biso   1.000  C
  C156     1.0000 0.29487  0.80083  0.64883  Biso   1.000  C
  C157     1.0000 0.83930  0.37180  0.31550  Biso   1.000  C
  C158     1.0000 0.17263  0.03847  0.98217  Biso   1.000  C
  C159     1.0000 0.50597  0.70513  0.64883  Biso   1.000  C
  C160     1.0000 0.53250  0.16070  0.31550  Biso   1.000  C
  C161     1.0000 0.86583  0.82737  0.98217  Biso   1.000  C
  C162     1.0000 0.19917  0.49403  0.64883  Biso   1.000  C
  C163     1.0000 0.70870  0.59030  0.55005  Biso   1.000  C
  C164     1.0000 0.04203  0.25697  0.21672  Biso   1.000  C
  C165     1.0000 0.37537  0.92363  0.88338  Biso   1.000  C
  C166     1.0000 0.40970  0.11840  0.55005  Biso   1.000  C
  C167     1.0000 0.74303  0.78507  0.21672  Biso   1.000  C
  C168     1.0000 0.07637  0.45173  0.88338  Biso   1.000  C
  C169     1.0000 0.88160  0.29130  0.55005  Biso   1.000  C
  C170     1.0000 0.21493  0.95797  0.21672  Biso   1.000  C
  C171     1.0000 0.54827  0.62463  0.88338  Biso   1.000  C
  C172     1.0000 0.59030  0.70870  0.44995  Biso   1.000  C
  C173     1.0000 0.92363  0.37537  0.11662  Biso   1.000  C
  C174     1.0000 0.25697  0.04203  0.78328  Biso   1.000  C
  C175     1.0000 0.11840  0.40970  0.44995  Biso   1.000  C
  C176     1.0000 0.45173  0.07637  0.11662  Biso   1.000  C
  C177     1.0000 0.78507  0.74303  0.78328  Biso   1.000  C
  C178     1.0000 0.29130  0.88160  0.44995  Biso   1.000  C
  C179     1.0000 0.62463  0.54827  0.11662  Biso   1.000  C
  C180     1.0000 0.95797  0.21493  0.78328  Biso   1.000  C
  C181     1.0000 0.71520  0.59270  0.49239  Biso   1.000  C
  C182     1.0000 0.04853  0.25937  0.15906  Biso   1.000  C
  C183     1.0000 0.38187  0.92603  0.82572  Biso   1.000  C
  C184     1.0000 0.40730  0.12250  0.49239  Biso   1.000  C
  C185     1.0000 0.74063  0.78917  0.15906  Biso   1.000  C
  C186     1.0000 0.07397  0.45583  0.82572  Biso   1.000  C
  C187     1.0000 0.87750  0.28480  0.49239  Biso   1.000  C
  C188     1.0000 0.21083  0.95147  0.15906  Biso   1.000  C
  C189     1.0000 0.54417  0.61813  0.82572  Biso   1.000  C
  C190     1.0000 0.59270  0.71520  0.50761  Biso   1.000  C
  C191     1.0000 0.92603  0.38187  0.17428  Biso   1.000  C
  C192     1.0000 0.25937  0.04853  0.84094  Biso   1.000  C
  C193     1.0000 0.12250  0.40730  0.50761  Biso   1.000  C
  C194     1.0000 0.45583  0.07397  0.17428  Biso   1.000  C
  C195     1.0000 0.78917  0.74063  0.84094  Biso   1.000  C
  C196     1.0000 0.28480  0.87750  0.50761  Biso   1.000  C
  C197     1.0000 0.61813  0.54417  0.17428  Biso   1.000  C
  C198     1.0000 0.95147  0.21083  0.84094  Biso   1.000  C
  C199     1.0000 0.45560  0.45560  0.50000  Biso   1.000  C
  C200     1.0000 0.78893  0.12227  0.16667  Biso   1.000  C
  C201     1.0000 0.12227  0.78893  0.83333  Biso   1.000  C
  C202     1.0000 0.54440  0.00000  0.50000  Biso   1.000  C
  C203     1.0000 0.87773  0.66667  0.16667  Biso   1.000  C
  C204     1.0000 0.21107  0.33333  0.83333  Biso   1.000  C
  C205     1.0000 0.00000  0.54440  0.50000  Biso   1.000  C
  C206     1.0000 0.33333  0.21107  0.16667  Biso   1.000  C
  C207     1.0000 0.66667  0.87773  0.83333  Biso   1.000  C
  C208     1.0000 0.61310  0.32900  0.51290  Biso   1.000  C
  C209     1.0000 0.94643  0.99567  0.17957  Biso   1.000  C
  C210     1.0000 0.27977  0.66233  0.84623  Biso   1.000  C
  C211     1.0000 0.67100  0.28410  0.51290  Biso   1.000  C
  C212     1.0000 0.00433  0.95077  0.17957  Biso   1.000  C
  C213     1.0000 0.33767  0.61743  0.84623  Biso   1.000  C
  C214     1.0000 0.71590  0.38690  0.51290  Biso   1.000  C
  C215     1.0000 0.04923  0.05357  0.17957  Biso   1.000  C
  C216     1.0000 0.38257  0.72023  0.84623  Biso   1.000  C
  C217     1.0000 0.32900  0.61310  0.48710  Biso   1.000  C
  C218     1.0000 0.66233  0.27977  0.15377  Biso   1.000  C
  C219     1.0000 0.99567  0.94643  0.82043  Biso   1.000  C
  C220     1.0000 0.28410  0.67100  0.48710  Biso   1.000  C
  C221     1.0000 0.61743  0.33767  0.15377  Biso   1.000  C
  C222     1.0000 0.95077  0.00433  0.82043  Biso   1.000  C
  C223     1.0000 0.38690  0.71590  0.48710  Biso   1.000  C
  C224     1.0000 0.72023  0.38257  0.15377  Biso   1.000  C
  C225     1.0000 0.05357  0.04923  0.82043  Biso   1.000  C
  C226     1.0000 0.66670  0.50850  0.83330  Biso   1.000  C
  C227     1.0000 0.00003  0.17517  0.49997  Biso   1.000  C
  C228     1.0000 0.33337  0.84183  0.16663  Biso   1.000  C
  C229     1.0000 0.49150  0.15820  0.83330  Biso   1.000  C
  C230     1.0000 0.82483  0.82487  0.49997  Biso   1.000  C
  C231     1.0000 0.15817  0.49153  0.16663  Biso   1.000  C
  C232     1.0000 0.84180  0.33330  0.83330  Biso   1.000  C
  C233     1.0000 0.17513  0.99997  0.49997  Biso   1.000  C
  C234     1.0000 0.50847  0.66663  0.16663  Biso   1.000  C
  C235     1.0000 0.66670  0.33330  0.83330  Biso   1.000  C
  C236     1.0000 0.00003  0.99997  0.49997  Biso   1.000  C
  C237     1.0000 0.33337  0.66663  0.16663  Biso   1.000  C
  Cl1      1.0000 0.38030  0.45160  0.54770  Biso   1.000  Cl
  Cl2      1.0000 0.71363  0.11827  0.21437  Biso   1.000  Cl
  Cl3      1.0000 0.04697  0.78493  0.88103  Biso   1.000  Cl
  Cl4      1.0000 0.54840  0.92870  0.54770  Biso   1.000  Cl
  Cl5      1.0000 0.88173  0.59537  0.21437  Biso   1.000  Cl
  Cl6      1.0000 0.21507  0.26203  0.88103  Biso   1.000  Cl
  Cl7      1.0000 0.07130  0.61970  0.54770  Biso   1.000  Cl
  Cl8      1.0000 0.40463  0.28637  0.21437  Biso   1.000  Cl
  Cl9      1.0000 0.73797  0.95303  0.88103  Biso   1.000  Cl
  Cl10     1.0000 0.45160  0.38030  0.45230  Biso   1.000  Cl
  Cl11     1.0000 0.78493  0.04697  0.11897  Biso   1.000  Cl
  Cl12     1.0000 0.11827  0.71363  0.78563  Biso   1.000  Cl
  Cl13     1.0000 0.92870  0.54840  0.45230  Biso   1.000  Cl
  Cl14     1.0000 0.26203  0.21507  0.11897  Biso   1.000  Cl
  Cl15     1.0000 0.59537  0.88173  0.78563  Biso   1.000  Cl
  Cl16     1.0000 0.61970  0.07130  0.45230  Biso   1.000  Cl
  Cl17     1.0000 0.95303  0.73797  0.11897  Biso   1.000  Cl
  Cl18     1.0000 0.28637  0.40463  0.78563  Biso   1.000  Cl
  Cl19     1.0000 0.41540  0.35640  0.47060  Biso   1.000  Cl
  Cl20     1.0000 0.74873  0.02307  0.13727  Biso   1.000  Cl
  Cl21     1.0000 0.08207  0.68973  0.80393  Biso   1.000  Cl
  Cl22     1.0000 0.64360  0.05900  0.47060  Biso   1.000  Cl
  Cl23     1.0000 0.97693  0.72567  0.13727  Biso   1.000  Cl
  Cl24     1.0000 0.31027  0.39233  0.80393  Biso   1.000  Cl
  Cl25     1.0000 0.94100  0.58460  0.47060  Biso   1.000  Cl
  Cl26     1.0000 0.27433  0.25127  0.13727  Biso   1.000  Cl
  Cl27     1.0000 0.60767  0.91793  0.80393  Biso   1.000  Cl
  Cl28     1.0000 0.35640  0.41540  0.52940  Biso   1.000  Cl
  Cl29     1.0000 0.68973  0.08207  0.19607  Biso   1.000  Cl
  Cl30     1.0000 0.02307  0.74873  0.86273  Biso   1.000  Cl
  Cl31     1.0000 0.05900  0.64360  0.52940  Biso   1.000  Cl
  Cl32     1.0000 0.39233  0.31027  0.19607  Biso   1.000  Cl
  Cl33     1.0000 0.72567  0.97693  0.86273  Biso   1.000  Cl
  Cl34     1.0000 0.58460  0.94100  0.52940  Biso   1.000  Cl
  Cl35     1.0000 0.91793  0.60767  0.19607  Biso   1.000  Cl
  Cl36     1.0000 0.25127  0.27433  0.86273  Biso   1.000  Cl
  Cl37     1.0000 0.62390  0.33780  0.44690  Biso   1.000  Cl
  Cl38     1.0000 0.95723  0.00447  0.11357  Biso   1.000  Cl
  Cl39     1.0000 0.29057  0.67113  0.78023  Biso   1.000  Cl
  Cl40     1.0000 0.66220  0.28610  0.44690  Biso   1.000  Cl
  Cl41     1.0000 0.99553  0.95277  0.11357  Biso   1.000  Cl
  Cl42     1.0000 0.32887  0.61943  0.78023  Biso   1.000  Cl
  Cl43     1.0000 0.71390  0.37610  0.44690  Biso   1.000  Cl
  Cl44     1.0000 0.04723  0.04277  0.11357  Biso   1.000  Cl
  Cl45     1.0000 0.38057  0.70943  0.78023  Biso   1.000  Cl
  Cl46     1.0000 0.33780  0.62390  0.55310  Biso   1.000  Cl
  Cl47     1.0000 0.67113  0.29057  0.21977  Biso   1.000  Cl
  Cl48     1.0000 0.00447  0.95723  0.88643  Biso   1.000  Cl
  Cl49     1.0000 0.28610  0.66220  0.55310  Biso   1.000  Cl
  Cl50     1.0000 0.61943  0.32887  0.21977  Biso   1.000  Cl
  Cl51     1.0000 0.95277  0.99553  0.88643  Biso   1.000  Cl
  Cl52     1.0000 0.37610  0.71390  0.55310  Biso   1.000  Cl
  Cl53     1.0000 0.70943  0.38057  0.21977  Biso   1.000  Cl
  Cl54     1.0000 0.04277  0.04723  0.88643  Biso   1.000  Cl
  Cl55     1.0000 0.71550  0.35760  0.53870  Biso   1.000  Cl
  Cl56     1.0000 0.04883  0.02427  0.20537  Biso   1.000  Cl
  Cl57     1.0000 0.38217  0.69093  0.87203  Biso   1.000  Cl
  Cl58     1.0000 0.64240  0.35790  0.53870  Biso   1.000  Cl
  Cl59     1.0000 0.97573  0.02457  0.20537  Biso   1.000  Cl
  Cl60     1.0000 0.30907  0.69123  0.87203  Biso   1.000  Cl
  Cl61     1.0000 0.64210  0.28450  0.53870  Biso   1.000  Cl
  Cl62     1.0000 0.97543  0.95117  0.20537  Biso   1.000  Cl
  Cl63     1.0000 0.30877  0.61783  0.87203  Biso   1.000  Cl
  Cl64     1.0000 0.35760  0.71550  0.46130  Biso   1.000  Cl
  Cl65     1.0000 0.69093  0.38217  0.12797  Biso   1.000  Cl
  Cl66     1.0000 0.02427  0.04883  0.79463  Biso   1.000  Cl
  Cl67     1.0000 0.35790  0.64240  0.46130  Biso   1.000  Cl
  Cl68     1.0000 0.69123  0.30907  0.12797  Biso   1.000  Cl
  Cl69     1.0000 0.02457  0.97573  0.79463  Biso   1.000  Cl
  Cl70     1.0000 0.28450  0.64210  0.46130  Biso   1.000  Cl
  Cl71     1.0000 0.61783  0.30877  0.12797  Biso   1.000  Cl
  Cl72     1.0000 0.95117  0.97543  0.79463  Biso   1.000  Cl
  Cl73     1.0000 0.62470  0.39780  0.83810  Biso   1.000  Cl
  Cl74     1.0000 0.95803  0.06447  0.50477  Biso   1.000  Cl
  Cl75     1.0000 0.29137  0.73113  0.17143  Biso   1.000  Cl
  Cl76     1.0000 0.60220  0.22690  0.83810  Biso   1.000  Cl
  Cl77     1.0000 0.93553  0.89357  0.50477  Biso   1.000  Cl
  Cl78     1.0000 0.26887  0.56023  0.17143  Biso   1.000  Cl
  Cl79     1.0000 0.77310  0.37530  0.83810  Biso   1.000  Cl
  Cl80     1.0000 0.10643  0.04197  0.50477  Biso   1.000  Cl
  Cl81     1.0000 0.43977  0.70863  0.17143  Biso   1.000  Cl
  Cl82     1.0000 0.39780  0.62470  0.16190  Biso   1.000  Cl
  Cl83     1.0000 0.73113  0.29137  0.82857  Biso   1.000  Cl
  Cl84     1.0000 0.06447  0.95803  0.49523  Biso   1.000  Cl
  Cl85     1.0000 0.22690  0.60220  0.16190  Biso   1.000  Cl
  Cl86     1.0000 0.56023  0.26887  0.82857  Biso   1.000  Cl
  Cl87     1.0000 0.89357  0.93553  0.49523  Biso   1.000  Cl
  Cl88     1.0000 0.37530  0.77310  0.16190  Biso   1.000  Cl
  Cl89     1.0000 0.70863  0.43977  0.82857  Biso   1.000  Cl
  Cl90     1.0000 0.04197  0.10643  0.49523  Biso   1.000  Cl
  Cl91     1.0000 0.77530  0.55320  0.82020  Biso   1.000  Cl
  Cl92     1.0000 0.10863  0.21987  0.48687  Biso   1.000  Cl
  Cl93     1.0000 0.44197  0.88653  0.15353  Biso   1.000  Cl
  Cl94     1.0000 0.44680  0.22210  0.82020  Biso   1.000  Cl
  Cl95     1.0000 0.78013  0.88877  0.48687  Biso   1.000  Cl
  Cl96     1.0000 0.11347  0.55543  0.15353  Biso   1.000  Cl
  Cl97     1.0000 0.77790  0.22470  0.82020  Biso   1.000  Cl
  Cl98     1.0000 0.11123  0.89137  0.48687  Biso   1.000  Cl
  Cl99     1.0000 0.44457  0.55803  0.15353  Biso   1.000  Cl
  Cl100    1.0000 0.55320  0.77530  0.17980  Biso   1.000  Cl
  Cl101    1.0000 0.88653  0.44197  0.84647  Biso   1.000  Cl
  Cl102    1.0000 0.21987  0.10863  0.51313  Biso   1.000  Cl
  Cl103    1.0000 0.22210  0.44680  0.17980  Biso   1.000  Cl
  Cl104    1.0000 0.55543  0.11347  0.84647  Biso   1.000  Cl
  Cl105    1.0000 0.88877  0.78013  0.51313  Biso   1.000  Cl
  Cl106    1.0000 0.22470  0.77790  0.17980  Biso   1.000  Cl
  Cl107    1.0000 0.55803  0.44457  0.84647  Biso   1.000  Cl
  Cl108    1.0000 0.89137  0.11123  0.51313  Biso   1.000  Cl
  Cl109    1.0000 0.68830  0.43490  0.81160  Biso   1.000  Cl
  Cl110    1.0000 0.02163  0.10157  0.47827  Biso   1.000  Cl
  Cl111    1.0000 0.35497  0.76823  0.14493  Biso   1.000  Cl
  Cl112    1.0000 0.56510  0.25340  0.81160  Biso   1.000  Cl
  Cl113    1.0000 0.89843  0.92007  0.47827  Biso   1.000  Cl
  Cl114    1.0000 0.23177  0.58673  0.14493  Biso   1.000  Cl
  Cl115    1.0000 0.74660  0.31170  0.81160  Biso   1.000  Cl
  Cl116    1.0000 0.07993  0.97837  0.47827  Biso   1.000  Cl
  Cl117    1.0000 0.41327  0.64503  0.14493  Biso   1.000  Cl
  Cl118    1.0000 0.43490  0.68830  0.18840  Biso   1.000  Cl
  Cl119    1.0000 0.76823  0.35497  0.85507  Biso   1.000  Cl
  Cl120    1.0000 0.10157  0.02163  0.52173  Biso   1.000  Cl
  Cl121    1.0000 0.25340  0.56510  0.18840  Biso   1.000  Cl
  Cl122    1.0000 0.58673  0.23177  0.85507  Biso   1.000  Cl
  Cl123    1.0000 0.92007  0.89843  0.52173  Biso   1.000  Cl
  Cl124    1.0000 0.31170  0.74660  0.18840  Biso   1.000  Cl
  Cl125    1.0000 0.64503  0.41327  0.85507  Biso   1.000  Cl
  Cl126    1.0000 0.97837  0.07993  0.52173  Biso   1.000  Cl
  Cl127    1.0000 0.66670  0.33330  0.89930  Biso   1.000  Cl
  Cl128    1.0000 0.00003  0.99997  0.56597  Biso   1.000  Cl
  Cl129    1.0000 0.33337  0.66663  0.23263  Biso   1.000  Cl
  Cl130    1.0000 0.33330  0.66670  0.10070  Biso   1.000  Cl
  Cl131    1.0000 0.66663  0.33337  0.76737  Biso   1.000  Cl
  Cl132    1.0000 0.99997  0.00003  0.43403  Biso   1.000  Cl
  H1       1.0000 0.63770  0.55230  0.64580  Biso   1.000  H
  H2       1.0000 0.97103  0.21897  0.31247  Biso   1.000  H
  H3       1.0000 0.30437  0.88563  0.97913  Biso   1.000  H
  H4       1.0000 0.44770  0.08540  0.64580  Biso   1.000  H
  H5       1.0000 0.78103  0.75207  0.31247  Biso   1.000  H
  H6       1.0000 0.11437  0.41873  0.97913  Biso   1.000  H
  H7       1.0000 0.91460  0.36230  0.64580  Biso   1.000  H
  H8       1.0000 0.24793  0.02897  0.31247  Biso   1.000  H
  H9       1.0000 0.58127  0.69563  0.97913  Biso   1.000  H
  H10      1.0000 0.55230  0.63770  0.35420  Biso   1.000  H
  H11      1.0000 0.88563  0.30437  0.02087  Biso   1.000  H
  H12      1.0000 0.21897  0.97103  0.68753  Biso   1.000  H
  H13      1.0000 0.08540  0.44770  0.35420  Biso   1.000  H
  H14      1.0000 0.41873  0.11437  0.02087  Biso   1.000  H
  H15      1.0000 0.75207  0.78103  0.68753  Biso   1.000  H
  H16      1.0000 0.36230  0.91460  0.35420  Biso   1.000  H
  H17      1.0000 0.69563  0.58127  0.02087  Biso   1.000  H
  H18      1.0000 0.02897  0.24793  0.68753  Biso   1.000  H
  H19      1.0000 0.48870  0.39410  0.76480  Biso   1.000  H
  H20      1.0000 0.82203  0.06077  0.43147  Biso   1.000  H
  H21      1.0000 0.15537  0.72743  0.09813  Biso   1.000  H
  H22      1.0000 0.60590  0.09460  0.76480  Biso   1.000  H
  H23      1.0000 0.93923  0.76127  0.43147  Biso   1.000  H
  H24      1.0000 0.27257  0.42793  0.09813  Biso   1.000  H
  H25      1.0000 0.90540  0.51130  0.76480  Biso   1.000  H
  H26      1.0000 0.23873  0.17797  0.43147  Biso   1.000  H
  H27      1.0000 0.57207  0.84463  0.09813  Biso   1.000  H
  H28      1.0000 0.39410  0.48870  0.23520  Biso   1.000  H
  H29      1.0000 0.72743  0.15537  0.90187  Biso   1.000  H
  H30      1.0000 0.06077  0.82203  0.56853  Biso   1.000  H
  H31      1.0000 0.09460  0.60590  0.23520  Biso   1.000  H
  H32      1.0000 0.42793  0.27257  0.90187  Biso   1.000  H
  H33      1.0000 0.76127  0.93923  0.56853  Biso   1.000  H
  H34      1.0000 0.51130  0.90540  0.23520  Biso   1.000  H
  H35      1.0000 0.84463  0.57207  0.90187  Biso   1.000  H
  H36      1.0000 0.17797  0.23873  0.56853  Biso   1.000  H
  H37      1.0000 0.38170  0.25410  0.74340  Biso   1.000  H
  H38      1.0000 0.71503  0.92077  0.41007  Biso   1.000  H
  H39      1.0000 0.04837  0.58743  0.07673  Biso   1.000  H
  H40      1.0000 0.74590  0.12760  0.74340  Biso   1.000  H
  H41      1.0000 0.07923  0.79427  0.41007  Biso   1.000  H
  H42      1.0000 0.41257  0.46093  0.07673  Biso   1.000  H
  H43      1.0000 0.87240  0.61830  0.74340  Biso   1.000  H
  H44      1.0000 0.20573  0.28497  0.41007  Biso   1.000  H
  H45      1.0000 0.53907  0.95163  0.07673  Biso   1.000  H
  H46      1.0000 0.25410  0.38170  0.25660  Biso   1.000  H
  H47      1.0000 0.58743  0.04837  0.92327  Biso   1.000  H
  H48      1.0000 0.92077  0.71503  0.58993  Biso   1.000  H
  H49      1.0000 0.12760  0.74590  0.25660  Biso   1.000  H
  H50      1.0000 0.46093  0.41257  0.92327  Biso   1.000  H
  H51      1.0000 0.79427  0.07923  0.58993  Biso   1.000  H
  H52      1.0000 0.61830  0.87240  0.25660  Biso   1.000  H
  H53      1.0000 0.95163  0.53907  0.92327  Biso   1.000  H
  H54      1.0000 0.28497  0.20573  0.58993  Biso   1.000  H
  H55      1.0000 0.48480  0.26850  0.61180  Biso   1.000  H
  H56      1.0000 0.81813  0.93517  0.27847  Biso   1.000  H
  H57      1.0000 0.15147  0.60183  0.94513  Biso   1.000  H
  H58      1.0000 0.73150  0.21630  0.61180  Biso   1.000  H
  H59      1.0000 0.06483  0.88297  0.27847  Biso   1.000  H
  H60      1.0000 0.39817  0.54963  0.94513  Biso   1.000  H
  H61      1.0000 0.78370  0.51520  0.61180  Biso   1.000  H
  H62      1.0000 0.11703  0.18187  0.27847  Biso   1.000  H
  H63      1.0000 0.45037  0.84853  0.94513  Biso   1.000  H
  H64      1.0000 0.26850  0.48480  0.38820  Biso   1.000  H
  H65      1.0000 0.60183  0.15147  0.05487  Biso   1.000  H
  H66      1.0000 0.93517  0.81813  0.72153  Biso   1.000  H
  H67      1.0000 0.21630  0.73150  0.38820  Biso   1.000  H
  H68      1.0000 0.54963  0.39817  0.05487  Biso   1.000  H
  H69      1.0000 0.88297  0.06483  0.72153  Biso   1.000  H
  H70      1.0000 0.51520  0.78370  0.38820  Biso   1.000  H
  H71      1.0000 0.84853  0.45037  0.05487  Biso   1.000  H
  H72      1.0000 0.18187  0.11703  0.72153  Biso   1.000  H
  H73      1.0000 0.59610  0.40580  0.62740  Biso   1.000  H
  H74      1.0000 0.92943  0.07247  0.29407  Biso   1.000  H
  H75      1.0000 0.26277  0.73913  0.96073  Biso   1.000  H
  H76      1.0000 0.59420  0.19030  0.62740  Biso   1.000  H
  H77      1.0000 0.92753  0.85697  0.29407  Biso   1.000  H
  H78      1.0000 0.26087  0.52363  0.96073  Biso   1.000  H
  H79      1.0000 0.80970  0.40390  0.62740  Biso   1.000  H
  H80      1.0000 0.14303  0.07057  0.29407  Biso   1.000  H
  H81      1.0000 0.47637  0.73723  0.96073  Biso   1.000  H
  H82      1.0000 0.40580  0.59610  0.37260  Biso   1.000  H
  H83      1.0000 0.73913  0.26277  0.03927  Biso   1.000  H
  H84      1.0000 0.07247  0.92943  0.70593  Biso   1.000  H
  H85      1.0000 0.19030  0.59420  0.37260  Biso   1.000  H
  H86      1.0000 0.52363  0.26087  0.03927  Biso   1.000  H
  H87      1.0000 0.85697  0.92753  0.70593  Biso   1.000  H
  H88      1.0000 0.40390  0.80970  0.37260  Biso   1.000  H
  H89      1.0000 0.73723  0.47637  0.03927  Biso   1.000  H
  H90      1.0000 0.07057  0.14303  0.70593  Biso   1.000  H
  H91      1.0000 0.61640  0.52440  0.74360  Biso   1.000  H
  H92      1.0000 0.94973  0.19107  0.41027  Biso   1.000  H
  H93      1.0000 0.28307  0.85773  0.07693  Biso   1.000  H
  H94      1.0000 0.47560  0.09200  0.74360  Biso   1.000  H
  H95      1.0000 0.80893  0.75867  0.41027  Biso   1.000  H
  H96      1.0000 0.14227  0.42533  0.07693  Biso   1.000  H
  H97      1.0000 0.90800  0.38360  0.74360  Biso   1.000  H
  H98      1.0000 0.24133  0.05027  0.41027  Biso   1.000  H
  H99      1.0000 0.57467  0.71693  0.07693  Biso   1.000  H
  H100     1.0000 0.52440  0.61640  0.25640  Biso   1.000  H
  H101     1.0000 0.85773  0.28307  0.92307  Biso   1.000  H
  H102     1.0000 0.19107  0.94973  0.58973  Biso   1.000  H
  H103     1.0000 0.09200  0.47560  0.25640  Biso   1.000  H
  H104     1.0000 0.42533  0.14227  0.92307  Biso   1.000  H
  H105     1.0000 0.75867  0.80893  0.58973  Biso   1.000  H
  H106     1.0000 0.38360  0.90800  0.25640  Biso   1.000  H
  H107     1.0000 0.71693  0.57467  0.92307  Biso   1.000  H
  H108     1.0000 0.05027  0.24133  0.58973  Biso   1.000  H
  H109     1.0000 0.68120  0.50060  0.71830  Biso   1.000  H
  H110     1.0000 0.01453  0.16727  0.38497  Biso   1.000  H
  H111     1.0000 0.34787  0.83393  0.05163  Biso   1.000  H
  H112     1.0000 0.49940  0.18060  0.71830  Biso   1.000  H
  H113     1.0000 0.83273  0.84727  0.38497  Biso   1.000  H
  H114     1.0000 0.16607  0.51393  0.05163  Biso   1.000  H
  H115     1.0000 0.81940  0.31880  0.71830  Biso   1.000  H
  H116     1.0000 0.15273  0.98547  0.38497  Biso   1.000  H
  H117     1.0000 0.48607  0.65213  0.05163  Biso   1.000  H
  H118     1.0000 0.50060  0.68120  0.28170  Biso   1.000  H
  H119     1.0000 0.83393  0.34787  0.94837  Biso   1.000  H
  H120     1.0000 0.16727  0.01453  0.61503  Biso   1.000  H
  H121     1.0000 0.18060  0.49940  0.28170  Biso   1.000  H
  H122     1.0000 0.51393  0.16607  0.94837  Biso   1.000  H
  H123     1.0000 0.84727  0.83273  0.61503  Biso   1.000  H
  H124     1.0000 0.31880  0.81940  0.28170  Biso   1.000  H
  H125     1.0000 0.65213  0.48607  0.94837  Biso   1.000  H
  H126     1.0000 0.98547  0.15273  0.61503  Biso   1.000  H
  H127     1.0000 0.61330  0.64430  0.71900  Biso   1.000  H
  H128     1.0000 0.94663  0.31097  0.38567  Biso   1.000  H
  H129     1.0000 0.27997  0.97763  0.05233  Biso   1.000  H
  H130     1.0000 0.35570  0.96900  0.71900  Biso   1.000  H
  H131     1.0000 0.68903  0.63567  0.38567  Biso   1.000  H
  H132     1.0000 0.02237  0.30233  0.05233  Biso   1.000  H
  H133     1.0000 0.03100  0.38670  0.71900  Biso   1.000  H
  H134     1.0000 0.36433  0.05337  0.38567  Biso   1.000  H
  H135     1.0000 0.69767  0.72003  0.05233  Biso   1.000  H
  H136     1.0000 0.64430  0.61330  0.28100  Biso   1.000  H
  H137     1.0000 0.97763  0.27997  0.94767  Biso   1.000  H
  H138     1.0000 0.31097  0.94663  0.61433  Biso   1.000  H
  H139     1.0000 0.96900  0.35570  0.28100  Biso   1.000  H
  H140     1.0000 0.30233  0.02237  0.94767  Biso   1.000  H
  H141     1.0000 0.63567  0.68903  0.61433  Biso   1.000  H
  H142     1.0000 0.38670  0.03100  0.28100  Biso   1.000  H
  H143     1.0000 0.72003  0.69767  0.94767  Biso   1.000  H
  H144     1.0000 0.05337  0.36433  0.61433  Biso   1.000  H
  H145     1.0000 0.48610  0.52470  0.70190  Biso   1.000  H
  H146     1.0000 0.81943  0.19137  0.36857  Biso   1.000  H
  H147     1.0000 0.15277  0.85803  0.03523  Biso   1.000  H
  H148     1.0000 0.47530  0.96140  0.70190  Biso   1.000  H
  H149     1.0000 0.80863  0.62807  0.36857  Biso   1.000  H
  H150     1.0000 0.14197  0.29473  0.03523  Biso   1.000  H
  H151     1.0000 0.03860  0.51390  0.70190  Biso   1.000  H
  H152     1.0000 0.37193  0.18057  0.36857  Biso   1.000  H
  H153     1.0000 0.70527  0.84723  0.03523  Biso   1.000  H
  H154     1.0000 0.52470  0.48610  0.29810  Biso   1.000  H
  H155     1.0000 0.85803  0.15277  0.96477  Biso   1.000  H
  H156     1.0000 0.19137  0.81943  0.63143  Biso   1.000  H
  H157     1.0000 0.96140  0.47530  0.29810  Biso   1.000  H
  H158     1.0000 0.29473  0.14197  0.96477  Biso   1.000  H
  H159     1.0000 0.62807  0.80863  0.63143  Biso   1.000  H
  H160     1.0000 0.51390  0.03860  0.29810  Biso   1.000  H
  H161     1.0000 0.84723  0.70527  0.96477  Biso   1.000  H
  H162     1.0000 0.18057  0.37193  0.63143  Biso   1.000  H
  H163     1.0000 0.49910  0.54830  0.64190  Biso   1.000  H
  H164     1.0000 0.83243  0.21497  0.30857  Biso   1.000  H
  H165     1.0000 0.16577  0.88163  0.97523  Biso   1.000  H
  H166     1.0000 0.45170  0.95080  0.64190  Biso   1.000  H
  H167     1.0000 0.78503  0.61747  0.30857  Biso   1.000  H
  H168     1.0000 0.11837  0.28413  0.97523  Biso   1.000  H
  H169     1.0000 0.04920  0.50090  0.64190  Biso   1.000  H
  H170     1.0000 0.38253  0.16757  0.30857  Biso   1.000  H
  H171     1.0000 0.71587  0.83423  0.97523  Biso   1.000  H
  H172     1.0000 0.54830  0.49910  0.35810  Biso   1.000  H
  H173     1.0000 0.88163  0.16577  0.02477  Biso   1.000  H
  H174     1.0000 0.21497  0.83243  0.69143  Biso   1.000  H
  H175     1.0000 0.95080  0.45170  0.35810  Biso   1.000  H
  H176     1.0000 0.28413  0.11837  0.02477  Biso   1.000  H
  H177     1.0000 0.61747  0.78503  0.69143  Biso   1.000  H
  H178     1.0000 0.50090  0.04920  0.35810  Biso   1.000  H
  H179     1.0000 0.83423  0.71587  0.02477  Biso   1.000  H
  H180     1.0000 0.16757  0.38253  0.69143  Biso   1.000  H
  H181     1.0000 0.47830  0.64950  0.72010  Biso   1.000  H
  H182     1.0000 0.81163  0.31617  0.38677  Biso   1.000  H
  H183     1.0000 0.14497  0.98283  0.05343  Biso   1.000  H
  H184     1.0000 0.35050  0.82880  0.72010  Biso   1.000  H
  H185     1.0000 0.68383  0.49547  0.38677  Biso   1.000  H
  H186     1.0000 0.01717  0.16213  0.05343  Biso   1.000  H
  H187     1.0000 0.17120  0.52170  0.72010  Biso   1.000  H
  H188     1.0000 0.50453  0.18837  0.38677  Biso   1.000  H
  H189     1.0000 0.83787  0.85503  0.05343  Biso   1.000  H
  H190     1.0000 0.64950  0.47830  0.27990  Biso   1.000  H
  H191     1.0000 0.98283  0.14497  0.94657  Biso   1.000  H
  H192     1.0000 0.31617  0.81163  0.61323  Biso   1.000  H
  H193     1.0000 0.82880  0.35050  0.27990  Biso   1.000  H
  H194     1.0000 0.16213  0.01717  0.94657  Biso   1.000  H
  H195     1.0000 0.49547  0.68383  0.61323  Biso   1.000  H
  H196     1.0000 0.52170  0.17120  0.27990  Biso   1.000  H
  H197     1.0000 0.85503  0.83787  0.94657  Biso   1.000  H
  H198     1.0000 0.18837  0.50453  0.61323  Biso   1.000  H
  H199     1.0000 0.40640  0.59380  0.67780  Biso   1.000  H
  H200     1.0000 0.73973  0.26047  0.34447  Biso   1.000  H
  H201     1.0000 0.07307  0.92713  0.01113  Biso   1.000  H
  H202     1.0000 0.40620  0.81260  0.67780  Biso   1.000  H
  H203     1.0000 0.73953  0.47927  0.34447  Biso   1.000  H
  H204     1.0000 0.07287  0.14593  0.01113  Biso   1.000  H
  H205     1.0000 0.18740  0.59360  0.67780  Biso   1.000  H
  H206     1.0000 0.52073  0.26027  0.34447  Biso   1.000  H
  H207     1.0000 0.85407  0.92693  0.01113  Biso   1.000  H
  H208     1.0000 0.59380  0.40640  0.32220  Biso   1.000  H
  H209     1.0000 0.92713  0.07307  0.98887  Biso   1.000  H
  H210     1.0000 0.26047  0.73973  0.65553  Biso   1.000  H
  H211     1.0000 0.81260  0.40620  0.32220  Biso   1.000  H
  H212     1.0000 0.14593  0.07287  0.98887  Biso   1.000  H
  H213     1.0000 0.47927  0.73953  0.65553  Biso   1.000  H
  H214     1.0000 0.59360  0.18740  0.32220  Biso   1.000  H
  H215     1.0000 0.92693  0.85407  0.98887  Biso   1.000  H
  H216     1.0000 0.26027  0.52073  0.65553  Biso   1.000  H
  H217     1.0000 0.77580  0.61570  0.48190  Biso   1.000  H
  H218     1.0000 0.10913  0.28237  0.14857  Biso   1.000  H
  H219     1.0000 0.44247  0.94903  0.81523  Biso   1.000  H
  H220     1.0000 0.38430  0.16010  0.48190  Biso   1.000  H
  H221     1.0000 0.71763  0.82677  0.14857  Biso   1.000  H
  H222     1.0000 0.05097  0.49343  0.81523  Biso   1.000  H
  H223     1.0000 0.83990  0.22420  0.48190  Biso   1.000  H
  H224     1.0000 0.17323  0.89087  0.14857  Biso   1.000  H
  H225     1.0000 0.50657  0.55753  0.81523  Biso   1.000  H
  H226     1.0000 0.61570  0.77580  0.51810  Biso   1.000  H
  H227     1.0000 0.94903  0.44247  0.18477  Biso   1.000  H
  H228     1.0000 0.28237  0.10913  0.85143  Biso   1.000  H
  H229     1.0000 0.16010  0.38430  0.51810  Biso   1.000  H
  H230     1.0000 0.49343  0.05097  0.18477  Biso   1.000  H
  H231     1.0000 0.82677  0.71763  0.85143  Biso   1.000  H
  H232     1.0000 0.22420  0.83990  0.51810  Biso   1.000  H
  H233     1.0000 0.55753  0.50657  0.18477  Biso   1.000  H
  H234     1.0000 0.89087  0.17323  0.85143  Biso   1.000  H
  H235     1.0000 0.69430  0.63030  0.48020  Biso   1.000  H
  H236     1.0000 0.02763  0.29697  0.14687  Biso   1.000  H
  H237     1.0000 0.36097  0.96363  0.81353  Biso   1.000  H
  H238     1.0000 0.36970  0.06400  0.48020  Biso   1.000  H
  H239     1.0000 0.70303  0.73067  0.14687  Biso   1.000  H
  H240     1.0000 0.03637  0.39733  0.81353  Biso   1.000  H
  H241     1.0000 0.93600  0.30570  0.48020  Biso   1.000  H
  H242     1.0000 0.26933  0.97237  0.14687  Biso   1.000  H
  H243     1.0000 0.60267  0.63903  0.81353  Biso   1.000  H
  H244     1.0000 0.63030  0.69430  0.51980  Biso   1.000  H
  H245     1.0000 0.96363  0.36097  0.18647  Biso   1.000  H
  H246     1.0000 0.29697  0.02763  0.85313  Biso   1.000  H
  H247     1.0000 0.06400  0.36970  0.51980  Biso   1.000  H
  H248     1.0000 0.39733  0.03637  0.18647  Biso   1.000  H
  H249     1.0000 0.73067  0.70303  0.85313  Biso   1.000  H
  H250     1.0000 0.30570  0.93600  0.51980  Biso   1.000  H
  H251     1.0000 0.63903  0.60267  0.18647  Biso   1.000  H
  H252     1.0000 0.97237  0.26933  0.85313  Biso   1.000  H
  H253     1.0000 0.67980  0.53420  0.47850  Biso   1.000  H
  H254     1.0000 0.01313  0.20087  0.14517  Biso   1.000  H
  H255     1.0000 0.34647  0.86753  0.81183  Biso   1.000  H
  H256     1.0000 0.46580  0.14560  0.47850  Biso   1.000  H
  H257     1.0000 0.79913  0.81227  0.14517  Biso   1.000  H
  H258     1.0000 0.13247  0.47893  0.81183  Biso   1.000  H
  H259     1.0000 0.85440  0.32020  0.47850  Biso   1.000  H
  H260     1.0000 0.18773  0.98687  0.14517  Biso   1.000  H
  H261     1.0000 0.52107  0.65353  0.81183  Biso   1.000  H
  H262     1.0000 0.53420  0.67980  0.52150  Biso   1.000  H
  H263     1.0000 0.86753  0.34647  0.18817  Biso   1.000  H
  H264     1.0000 0.20087  0.01313  0.85483  Biso   1.000  H
  H265     1.0000 0.14560  0.46580  0.52150  Biso   1.000  H
  H266     1.0000 0.47893  0.13247  0.18817  Biso   1.000  H
  H267     1.0000 0.81227  0.79913  0.85483  Biso   1.000  H
  H268     1.0000 0.32020  0.85440  0.52150  Biso   1.000  H
  H269     1.0000 0.65353  0.52107  0.18817  Biso   1.000  H
  H270     1.0000 0.98687  0.18773  0.85483  Biso   1.000  H
  H271     1.0000 0.51200  0.47320  0.51540  Biso   1.000  H
  H272     1.0000 0.84533  0.13987  0.18207  Biso   1.000  H
  H273     1.0000 0.17867  0.80653  0.84873  Biso   1.000  H
  H274     1.0000 0.52680  0.03880  0.51540  Biso   1.000  H
  H275     1.0000 0.86013  0.70547  0.18207  Biso   1.000  H
  H276     1.0000 0.19347  0.37213  0.84873  Biso   1.000  H
  H277     1.0000 0.96120  0.48800  0.51540  Biso   1.000  H
  H278     1.0000 0.29453  0.15467  0.18207  Biso   1.000  H
  H279     1.0000 0.62787  0.82133  0.84873  Biso   1.000  H
  H280     1.0000 0.47320  0.51200  0.48460  Biso   1.000  H
  H281     1.0000 0.80653  0.17867  0.15127  Biso   1.000  H
  H282     1.0000 0.13987  0.84533  0.81793  Biso   1.000  H
  H283     1.0000 0.03880  0.52680  0.48460  Biso   1.000  H
  H284     1.0000 0.37213  0.19347  0.15127  Biso   1.000  H
  H285     1.0000 0.70547  0.86013  0.81793  Biso   1.000  H
  H286     1.0000 0.48800  0.96120  0.48460  Biso   1.000  H
  H287     1.0000 0.82133  0.62787  0.15127  Biso   1.000  H
  H288     1.0000 0.15467  0.29453  0.81793  Biso   1.000  H
  H289     1.0000 0.46240  0.49760  0.47400  Biso   1.000  H
  H290     1.0000 0.79573  0.16427  0.14067  Biso   1.000  H
  H291     1.0000 0.12907  0.83093  0.80733  Biso   1.000  H
  H292     1.0000 0.50240  0.96480  0.47400  Biso   1.000  H
  H293     1.0000 0.83573  0.63147  0.14067  Biso   1.000  H
  H294     1.0000 0.16907  0.29813  0.80733  Biso   1.000  H
  H295     1.0000 0.03520  0.53760  0.47400  Biso   1.000  H
  H296     1.0000 0.36853  0.20427  0.14067  Biso   1.000  H
  H297     1.0000 0.70187  0.87093  0.80733  Biso   1.000  H
  H298     1.0000 0.49760  0.46240  0.52600  Biso   1.000  H
  H299     1.0000 0.83093  0.12907  0.19267  Biso   1.000  H
  H300     1.0000 0.16427  0.79573  0.85933  Biso   1.000  H
  H301     1.0000 0.96480  0.50240  0.52600  Biso   1.000  H
  H302     1.0000 0.29813  0.16907  0.19267  Biso   1.000  H
  H303     1.0000 0.63147  0.83573  0.85933  Biso   1.000  H
  H304     1.0000 0.53760  0.03520  0.52600  Biso   1.000  H
  H305     1.0000 0.87093  0.70187  0.19267  Biso   1.000  H
  H306     1.0000 0.20427  0.36853  0.85933  Biso   1.000  H
  H307     1.0000 0.58970  0.36350  0.52670  Biso   1.000  H
  H308     1.0000 0.92303  0.03017  0.19337  Biso   1.000  H
  H309     1.0000 0.25637  0.69683  0.86003  Biso   1.000  H
  H310     1.0000 0.63650  0.22620  0.52670  Biso   1.000  H
  H311     1.0000 0.96983  0.89287  0.19337  Biso   1.000  H
  H312     1.0000 0.30317  0.55953  0.86003  Biso   1.000  H
  H313     1.0000 0.77380  0.41030  0.52670  Biso   1.000  H
  H314     1.0000 0.10713  0.07697  0.19337  Biso   1.000  H
  H315     1.0000 0.44047  0.74363  0.86003  Biso   1.000  H
  H316     1.0000 0.36350  0.58970  0.47330  Biso   1.000  H
  H317     1.0000 0.69683  0.25637  0.13997  Biso   1.000  H
  H318     1.0000 0.03017  0.92303  0.80663  Biso   1.000  H
  H319     1.0000 0.22620  0.63650  0.47330  Biso   1.000  H
  H320     1.0000 0.55953  0.30317  0.13997  Biso   1.000  H
  H321     1.0000 0.89287  0.96983  0.80663  Biso   1.000  H
  H322     1.0000 0.41030  0.77380  0.47330  Biso   1.000  H
  H323     1.0000 0.74363  0.44047  0.13997  Biso   1.000  H
  H324     1.0000 0.07697  0.10713  0.80663  Biso   1.000  H
  H325     1.0000 0.57450  0.26840  0.52090  Biso   1.000  H
  H326     1.0000 0.90783  0.93507  0.18757  Biso   1.000  H
  H327     1.0000 0.24117  0.60173  0.85423  Biso   1.000  H
  H328     1.0000 0.73160  0.30610  0.52090  Biso   1.000  H
  H329     1.0000 0.06493  0.97277  0.18757  Biso   1.000  H
  H330     1.0000 0.39827  0.63943  0.85423  Biso   1.000  H
  H331     1.0000 0.69390  0.42550  0.52090  Biso   1.000  H
  H332     1.0000 0.02723  0.09217  0.18757  Biso   1.000  H
  H333     1.0000 0.36057  0.75883  0.85423  Biso   1.000  H
  H334     1.0000 0.26840  0.57450  0.47910  Biso   1.000  H
  H335     1.0000 0.60173  0.24117  0.14577  Biso   1.000  H
  H336     1.0000 0.93507  0.90783  0.81243  Biso   1.000  H
  H337     1.0000 0.30610  0.73160  0.47910  Biso   1.000  H
  H338     1.0000 0.63943  0.39827  0.14577  Biso   1.000  H
  H339     1.0000 0.97277  0.06493  0.81243  Biso   1.000  H
  H340     1.0000 0.42550  0.69390  0.47910  Biso   1.000  H
  H341     1.0000 0.75883  0.36057  0.14577  Biso   1.000  H
  H342     1.0000 0.09217  0.02723  0.81243  Biso   1.000  H
  H343     1.0000 0.66140  0.53220  0.86250  Biso   1.000  H
  H344     1.0000 0.99473  0.19887  0.52917  Biso   1.000  H
  H345     1.0000 0.32807  0.86553  0.19583  Biso   1.000  H
  H346     1.0000 0.46780  0.12920  0.86250  Biso   1.000  H
  H347     1.0000 0.80113  0.79587  0.52917  Biso   1.000  H
  H348     1.0000 0.13447  0.46253  0.19583  Biso   1.000  H
  H349     1.0000 0.87080  0.33860  0.86250  Biso   1.000  H
  H350     1.0000 0.20413  0.00527  0.52917  Biso   1.000  H
  H351     1.0000 0.53747  0.67193  0.19583  Biso   1.000  H
  H352     1.0000 0.53220  0.66140  0.13750  Biso   1.000  H
  H353     1.0000 0.86553  0.32807  0.80417  Biso   1.000  H
  H354     1.0000 0.19887  0.99473  0.47083  Biso   1.000  H
  H355     1.0000 0.12920  0.46780  0.13750  Biso   1.000  H
  H356     1.0000 0.46253  0.13447  0.80417  Biso   1.000  H
  H357     1.0000 0.79587  0.80113  0.47083  Biso   1.000  H
  H358     1.0000 0.33860  0.87080  0.13750  Biso   1.000  H
  H359     1.0000 0.67193  0.53747  0.80417  Biso   1.000  H
  H360     1.0000 0.00527  0.20413  0.47083  Biso   1.000  H
  H361     1.0000 0.64310  0.52340  0.80750  Biso   1.000  H
  H362     1.0000 0.97643  0.19007  0.47417  Biso   1.000  H
  H363     1.0000 0.30977  0.85673  0.14083  Biso   1.000  H
  H364     1.0000 0.47660  0.11970  0.80750  Biso   1.000  H
  H365     1.0000 0.80993  0.78637  0.47417  Biso   1.000  H
  H366     1.0000 0.14327  0.45303  0.14083  Biso   1.000  H
  H367     1.0000 0.88030  0.35690  0.80750  Biso   1.000  H
  H368     1.0000 0.21363  0.02357  0.47417  Biso   1.000  H
  H369     1.0000 0.54697  0.69023  0.14083  Biso   1.000  H
  H370     1.0000 0.52340  0.64310  0.19250  Biso   1.000  H
  H371     1.0000 0.85673  0.30977  0.85917  Biso   1.000  H
  H372     1.0000 0.19007  0.97643  0.52583  Biso   1.000  H
  H373     1.0000 0.11970  0.47660  0.19250  Biso   1.000  H
  H374     1.0000 0.45303  0.14327  0.85917  Biso   1.000  H
  H375     1.0000 0.78637  0.80993  0.52583  Biso   1.000  H
  H376     1.0000 0.35690  0.88030  0.19250  Biso   1.000  H
  H377     1.0000 0.69023  0.54697  0.85917  Biso   1.000  H
  H378     1.0000 0.02357  0.21363  0.52583  Biso   1.000  H
  H379     1.0000 0.71310  0.32380  0.82090  Biso   1.000  H
  H380     1.0000 0.04643  0.99047  0.48757  Biso   1.000  H
  H381     1.0000 0.37977  0.65713  0.15423  Biso   1.000  H
  H382     1.0000 0.67620  0.38930  0.82090  Biso   1.000  H
  H383     1.0000 0.00953  0.05597  0.48757  Biso   1.000  H
  H384     1.0000 0.34287  0.72263  0.15423  Biso   1.000  H
  H385     1.0000 0.61070  0.28690  0.82090  Biso   1.000  H
  H386     1.0000 0.94403  0.95357  0.48757  Biso   1.000  H
  H387     1.0000 0.27737  0.62023  0.15423  Biso   1.000  H
  H388     1.0000 0.32380  0.71310  0.17910  Biso   1.000  H
  H389     1.0000 0.65713  0.37977  0.84577  Biso   1.000  H
  H390     1.0000 0.99047  0.04643  0.51243  Biso   1.000  H
  H391     1.0000 0.38930  0.67620  0.17910  Biso   1.000  H
  H392     1.0000 0.72263  0.34287  0.84577  Biso   1.000  H
  H393     1.0000 0.05597  0.00953  0.51243  Biso   1.000  H
  H394     1.0000 0.28690  0.61070  0.17910  Biso   1.000  H
  H395     1.0000 0.62023  0.27737  0.84577  Biso   1.000  H
  H396     1.0000 0.95357  0.94403  0.51243  Biso   1.000  H
