data_image0
_cell_length_a       39.365
_cell_length_b       18.259
_cell_length_c       28.309
_cell_angle_alpha    90
_cell_angle_beta     108.908
_cell_angle_gamma    90

_symmetry_space_group_name_H-M    "P 1"
_symmetry_int_tables_number       1

loop_
  _symmetry_equiv_pos_as_xyz
  'x, y, z'

loop_
  _atom_site_label
  _atom_site_occupancy
  _atom_site_fract_x
  _atom_site_fract_y
  _atom_site_fract_z
  _atom_site_thermal_displace_type
  _atom_site_B_iso_or_equiv
  _atom_site_type_symbol
  Cu1      1.0000 0.15605  0.90218  0.75516  Biso   1.000  Cu
  Cu2      1.0000 0.84395  0.90218  0.74484  Biso   1.000  Cu
  Cu3      1.0000 0.65605  0.40218  0.75516  Biso   1.000  Cu
  Cu4      1.0000 0.34395  0.40218  0.74484  Biso   1.000  Cu
  Cu5      1.0000 0.84395  0.09782  0.24484  Biso   1.000  Cu
  Cu6      1.0000 0.15605  0.09782  0.25516  Biso   1.000  Cu
  Cu7      1.0000 0.34395  0.59782  0.24484  Biso   1.000  Cu
  Cu8      1.0000 0.65605  0.59782  0.25516  Biso   1.000  Cu
  Cu9      1.0000 0.10750  0.47921  0.74339  Biso   1.000  Cu
  Cu10     1.0000 0.89250  0.47921  0.75661  Biso   1.000  Cu
  Cu11     1.0000 0.60750  0.97921  0.74339  Biso   1.000  Cu
  Cu12     1.0000 0.39250  0.97921  0.75661  Biso   1.000  Cu
  Cu13     1.0000 0.89250  0.52079  0.25661  Biso   1.000  Cu
  Cu14     1.0000 0.10750  0.52079  0.24339  Biso   1.000  Cu
  Cu15     1.0000 0.39250  0.02079  0.25661  Biso   1.000  Cu
  Cu16     1.0000 0.60750  0.02079  0.24339  Biso   1.000  Cu
  Cu17     1.0000 0.10119  0.50124  0.49027  Biso   1.000  Cu
  Cu18     1.0000 0.89881  0.50124  0.00973  Biso   1.000  Cu
  Cu19     1.0000 0.60119  0.00124  0.49027  Biso   1.000  Cu
  Cu20     1.0000 0.39881  0.00124  0.00973  Biso   1.000  Cu
  Cu21     1.0000 0.89881  0.49876  0.50973  Biso   1.000  Cu
  Cu22     1.0000 0.10119  0.49876  0.99027  Biso   1.000  Cu
  Cu23     1.0000 0.39881  0.99876  0.50973  Biso   1.000  Cu
  Cu24     1.0000 0.60119  0.99876  0.99027  Biso   1.000  Cu
  Cu25     1.0000 0.13164  0.08556  0.50903  Biso   1.000  Cu
  Cu26     1.0000 0.86836  0.08556  0.99097  Biso   1.000  Cu
  Cu27     1.0000 0.63164  0.58556  0.50903  Biso   1.000  Cu
  Cu28     1.0000 0.36836  0.58556  0.99097  Biso   1.000  Cu
  Cu29     1.0000 0.86836  0.91444  0.49097  Biso   1.000  Cu
  Cu30     1.0000 0.13164  0.91444  0.00903  Biso   1.000  Cu
  Cu31     1.0000 0.36836  0.41444  0.49097  Biso   1.000  Cu
  Cu32     1.0000 0.63164  0.41444  0.00903  Biso   1.000  Cu
  C1       1.0000 0.23570  0.90110  0.80650  Biso   1.000  C
  C2       1.0000 0.76430  0.90110  0.69350  Biso   1.000  C
  C3       1.0000 0.73570  0.40110  0.80650  Biso   1.000  C
  C4       1.0000 0.26430  0.40110  0.69350  Biso   1.000  C
  C5       1.0000 0.76430  0.09890  0.19350  Biso   1.000  C
  C6       1.0000 0.23570  0.09890  0.30650  Biso   1.000  C
  C7       1.0000 0.26430  0.59890  0.19350  Biso   1.000  C
  C8       1.0000 0.73570  0.59890  0.30650  Biso   1.000  C
  H1       1.0000 0.23400  0.85110  0.81150  Biso   1.000  H
  H2       1.0000 0.76600  0.85110  0.68850  Biso   1.000  H
  H3       1.0000 0.73400  0.35110  0.81150  Biso   1.000  H
  H4       1.0000 0.26600  0.35110  0.68850  Biso   1.000  H
  H5       1.0000 0.76600  0.14890  0.18850  Biso   1.000  H
  H6       1.0000 0.23400  0.14890  0.31150  Biso   1.000  H
  H7       1.0000 0.26600  0.64890  0.18850  Biso   1.000  H
  H8       1.0000 0.73400  0.64890  0.31150  Biso   1.000  H
  C9       1.0000 0.26850  0.93680  0.82710  Biso   1.000  C
  C10      1.0000 0.73150  0.93680  0.67290  Biso   1.000  C
  C11      1.0000 0.76850  0.43680  0.82710  Biso   1.000  C
  C12      1.0000 0.23150  0.43680  0.67290  Biso   1.000  C
  C13      1.0000 0.73150  0.06320  0.17290  Biso   1.000  C
  C14      1.0000 0.26850  0.06320  0.32710  Biso   1.000  C
  C15      1.0000 0.23150  0.56320  0.17290  Biso   1.000  C
  C16      1.0000 0.76850  0.56320  0.32710  Biso   1.000  C
  H9       1.0000 0.28870  0.91070  0.84600  Biso   1.000  H
  H10      1.0000 0.71130  0.91070  0.65400  Biso   1.000  H
  H11      1.0000 0.78870  0.41070  0.84600  Biso   1.000  H
  H12      1.0000 0.21130  0.41070  0.65400  Biso   1.000  H
  H13      1.0000 0.71130  0.08930  0.15400  Biso   1.000  H
  H14      1.0000 0.28870  0.08930  0.34600  Biso   1.000  H
  H15      1.0000 0.21130  0.58930  0.15400  Biso   1.000  H
  H16      1.0000 0.78870  0.58930  0.34600  Biso   1.000  H
  C17      1.0000 0.27080  0.01010  0.81930  Biso   1.000  C
  C18      1.0000 0.72920  0.01010  0.68070  Biso   1.000  C
  C19      1.0000 0.77080  0.51010  0.81930  Biso   1.000  C
  C20      1.0000 0.22920  0.51010  0.68070  Biso   1.000  C
  C21      1.0000 0.72920  0.98990  0.18070  Biso   1.000  C
  C22      1.0000 0.27080  0.98990  0.31930  Biso   1.000  C
  C23      1.0000 0.22920  0.48990  0.18070  Biso   1.000  C
  C24      1.0000 0.77080  0.48990  0.31930  Biso   1.000  C
  H17      1.0000 0.29270  0.03410  0.83300  Biso   1.000  H
  H18      1.0000 0.70730  0.03410  0.66700  Biso   1.000  H
  H19      1.0000 0.79270  0.53410  0.83300  Biso   1.000  H
  H20      1.0000 0.20730  0.53410  0.66700  Biso   1.000  H
  H21      1.0000 0.70730  0.96590  0.16700  Biso   1.000  H
  H22      1.0000 0.29270  0.96590  0.33300  Biso   1.000  H
  H23      1.0000 0.20730  0.46590  0.16700  Biso   1.000  H
  H24      1.0000 0.79270  0.46590  0.33300  Biso   1.000  H
  C25      1.0000 0.24070  0.04890  0.79110  Biso   1.000  C
  C26      1.0000 0.75930  0.04890  0.70890  Biso   1.000  C
  C27      1.0000 0.74070  0.54890  0.79110  Biso   1.000  C
  C28      1.0000 0.25930  0.54890  0.70890  Biso   1.000  C
  C29      1.0000 0.75930  0.95110  0.20890  Biso   1.000  C
  C30      1.0000 0.24070  0.95110  0.29110  Biso   1.000  C
  C31      1.0000 0.25930  0.45110  0.20890  Biso   1.000  C
  C32      1.0000 0.74070  0.45110  0.29110  Biso   1.000  C
  H25      1.0000 0.24190  0.09870  0.78490  Biso   1.000  H
  H26      1.0000 0.75810  0.09870  0.71510  Biso   1.000  H
  H27      1.0000 0.74190  0.59870  0.78490  Biso   1.000  H
  H28      1.0000 0.25810  0.59870  0.71510  Biso   1.000  H
  H29      1.0000 0.75810  0.90130  0.21510  Biso   1.000  H
  H30      1.0000 0.24190  0.90130  0.28490  Biso   1.000  H
  H31      1.0000 0.25810  0.40130  0.21510  Biso   1.000  H
  H32      1.0000 0.74190  0.40130  0.28490  Biso   1.000  H
  C33      1.0000 0.20900  0.01020  0.77270  Biso   1.000  C
  C34      1.0000 0.79100  0.01020  0.72730  Biso   1.000  C
  C35      1.0000 0.70900  0.51020  0.77270  Biso   1.000  C
  C36      1.0000 0.29100  0.51020  0.72730  Biso   1.000  C
  C37      1.0000 0.79100  0.98980  0.22730  Biso   1.000  C
  C38      1.0000 0.20900  0.98980  0.27270  Biso   1.000  C
  C39      1.0000 0.29100  0.48980  0.22730  Biso   1.000  C
  C40      1.0000 0.70900  0.48980  0.27270  Biso   1.000  C
  C41      1.0000 0.17500  0.04620  0.74140  Biso   1.000  C
  C42      1.0000 0.82500  0.04620  0.75860  Biso   1.000  C
  C43      1.0000 0.67500  0.54620  0.74140  Biso   1.000  C
  C44      1.0000 0.32500  0.54620  0.75860  Biso   1.000  C
  C45      1.0000 0.82500  0.95380  0.25860  Biso   1.000  C
  C46      1.0000 0.17500  0.95380  0.24140  Biso   1.000  C
  C47      1.0000 0.32500  0.45380  0.25860  Biso   1.000  C
  C48      1.0000 0.67500  0.45380  0.24140  Biso   1.000  C
  H33      1.0000 0.17550  0.09810  0.74890  Biso   1.000  H
  H34      1.0000 0.82450  0.09810  0.75110  Biso   1.000  H
  H35      1.0000 0.67550  0.59810  0.74890  Biso   1.000  H
  H36      1.0000 0.32450  0.59810  0.75110  Biso   1.000  H
  H37      1.0000 0.82450  0.90190  0.25110  Biso   1.000  H
  H38      1.0000 0.17550  0.90190  0.24890  Biso   1.000  H
  H39      1.0000 0.32450  0.40190  0.25110  Biso   1.000  H
  H40      1.0000 0.67550  0.40190  0.24890  Biso   1.000  H
  H41      1.0000 0.17200  0.04040  0.70620  Biso   1.000  H
  H42      1.0000 0.82800  0.04040  0.79380  Biso   1.000  H
  H43      1.0000 0.67200  0.54040  0.70620  Biso   1.000  H
  H44      1.0000 0.32800  0.54040  0.79380  Biso   1.000  H
  H45      1.0000 0.82800  0.95960  0.29380  Biso   1.000  H
  H46      1.0000 0.17200  0.95960  0.20620  Biso   1.000  H
  H47      1.0000 0.32800  0.45960  0.29380  Biso   1.000  H
  H48      1.0000 0.67200  0.45960  0.20620  Biso   1.000  H
  C49      1.0000 0.10970  0.02010  0.71460  Biso   1.000  C
  C50      1.0000 0.89030  0.02010  0.78540  Biso   1.000  C
  C51      1.0000 0.60970  0.52010  0.71460  Biso   1.000  C
  C52      1.0000 0.39030  0.52010  0.78540  Biso   1.000  C
  C53      1.0000 0.89030  0.97990  0.28540  Biso   1.000  C
  C54      1.0000 0.10970  0.97990  0.21460  Biso   1.000  C
  C55      1.0000 0.39030  0.47990  0.28540  Biso   1.000  C
  C56      1.0000 0.60970  0.47990  0.21460  Biso   1.000  C
  H49      1.0000 0.09910  0.06600  0.71990  Biso   1.000  H
  H50      1.0000 0.90090  0.06600  0.78010  Biso   1.000  H
  H51      1.0000 0.59910  0.56600  0.71990  Biso   1.000  H
  H52      1.0000 0.40090  0.56600  0.78010  Biso   1.000  H
  H53      1.0000 0.90090  0.93400  0.28010  Biso   1.000  H
  H54      1.0000 0.09910  0.93400  0.21990  Biso   1.000  H
  H55      1.0000 0.40090  0.43400  0.28010  Biso   1.000  H
  H56      1.0000 0.59910  0.43400  0.21990  Biso   1.000  H
  H57      1.0000 0.11260  0.02160  0.68190  Biso   1.000  H
  H58      1.0000 0.88740  0.02160  0.81810  Biso   1.000  H
  H59      1.0000 0.61260  0.52160  0.68190  Biso   1.000  H
  H60      1.0000 0.38740  0.52160  0.81810  Biso   1.000  H
  H61      1.0000 0.88740  0.97840  0.31810  Biso   1.000  H
  H62      1.0000 0.11260  0.97840  0.18190  Biso   1.000  H
  H63      1.0000 0.38740  0.47840  0.31810  Biso   1.000  H
  H64      1.0000 0.61260  0.47840  0.18190  Biso   1.000  H
  C57      1.0000 0.08620  0.95810  0.71740  Biso   1.000  C
  C58      1.0000 0.91380  0.95810  0.78260  Biso   1.000  C
  C59      1.0000 0.58620  0.45810  0.71740  Biso   1.000  C
  C60      1.0000 0.41380  0.45810  0.78260  Biso   1.000  C
  C61      1.0000 0.91380  0.04190  0.28260  Biso   1.000  C
  C62      1.0000 0.08620  0.04190  0.21740  Biso   1.000  C
  C63      1.0000 0.41380  0.54190  0.28260  Biso   1.000  C
  C64      1.0000 0.58620  0.54190  0.21740  Biso   1.000  C
  C65      1.0000 0.04940  0.96280  0.70040  Biso   1.000  C
  C66      1.0000 0.95060  0.96280  0.79960  Biso   1.000  C
  C67      1.0000 0.54940  0.46280  0.70040  Biso   1.000  C
  C68      1.0000 0.45060  0.46280  0.79960  Biso   1.000  C
  C69      1.0000 0.95060  0.03720  0.29960  Biso   1.000  C
  C70      1.0000 0.04940  0.03720  0.20040  Biso   1.000  C
  C71      1.0000 0.45060  0.53720  0.29960  Biso   1.000  C
  C72      1.0000 0.54940  0.53720  0.20040  Biso   1.000  C
  H65      1.0000 0.03800  0.00660  0.68780  Biso   1.000  H
  H66      1.0000 0.96200  0.00660  0.81220  Biso   1.000  H
  H67      1.0000 0.53800  0.50660  0.68780  Biso   1.000  H
  H68      1.0000 0.46200  0.50660  0.81220  Biso   1.000  H
  H69      1.0000 0.96200  0.99340  0.31220  Biso   1.000  H
  H70      1.0000 0.03800  0.99340  0.18780  Biso   1.000  H
  H71      1.0000 0.46200  0.49340  0.31220  Biso   1.000  H
  H72      1.0000 0.53800  0.49340  0.18780  Biso   1.000  H
  C73      1.0000 0.02980  0.90100  0.70250  Biso   1.000  C
  C74      1.0000 0.97020  0.90100  0.79750  Biso   1.000  C
  C75      1.0000 0.52980  0.40100  0.70250  Biso   1.000  C
  C76      1.0000 0.47020  0.40100  0.79750  Biso   1.000  C
  C77      1.0000 0.97020  0.09900  0.29750  Biso   1.000  C
  C78      1.0000 0.02980  0.09900  0.20250  Biso   1.000  C
  C79      1.0000 0.47020  0.59900  0.29750  Biso   1.000  C
  C80      1.0000 0.52980  0.59900  0.20250  Biso   1.000  C
  H73      1.0000 0.00490  0.90290  0.69040  Biso   1.000  H
  H74      1.0000 0.99510  0.90290  0.80960  Biso   1.000  H
  H75      1.0000 0.50490  0.40290  0.69040  Biso   1.000  H
  H76      1.0000 0.49510  0.40290  0.80960  Biso   1.000  H
  H77      1.0000 0.99510  0.09710  0.30960  Biso   1.000  H
  H78      1.0000 0.00490  0.09710  0.19040  Biso   1.000  H
  H79      1.0000 0.49510  0.59710  0.30960  Biso   1.000  H
  H80      1.0000 0.50490  0.59710  0.19040  Biso   1.000  H
  C81      1.0000 0.04640  0.83760  0.72180  Biso   1.000  C
  C82      1.0000 0.95360  0.83760  0.77820  Biso   1.000  C
  C83      1.0000 0.54640  0.33760  0.72180  Biso   1.000  C
  C84      1.0000 0.45360  0.33760  0.77820  Biso   1.000  C
  C85      1.0000 0.95360  0.16240  0.27820  Biso   1.000  C
  C86      1.0000 0.04640  0.16240  0.22180  Biso   1.000  C
  C87      1.0000 0.45360  0.66240  0.27820  Biso   1.000  C
  C88      1.0000 0.54640  0.66240  0.22180  Biso   1.000  C
  H81      1.0000 0.03330  0.79600  0.72380  Biso   1.000  H
  H82      1.0000 0.96670  0.79600  0.77620  Biso   1.000  H
  H83      1.0000 0.53330  0.29600  0.72380  Biso   1.000  H
  H84      1.0000 0.46670  0.29600  0.77620  Biso   1.000  H
  H85      1.0000 0.96670  0.20400  0.27620  Biso   1.000  H
  H86      1.0000 0.03330  0.20400  0.22380  Biso   1.000  H
  H87      1.0000 0.46670  0.70400  0.27620  Biso   1.000  H
  H88      1.0000 0.53330  0.70400  0.22380  Biso   1.000  H
  C89      1.0000 0.08380  0.83670  0.73860  Biso   1.000  C
  C90      1.0000 0.91620  0.83670  0.76140  Biso   1.000  C
  C91      1.0000 0.58380  0.33670  0.73860  Biso   1.000  C
  C92      1.0000 0.41620  0.33670  0.76140  Biso   1.000  C
  C93      1.0000 0.91620  0.16330  0.26140  Biso   1.000  C
  C94      1.0000 0.08380  0.16330  0.23860  Biso   1.000  C
  C95      1.0000 0.41620  0.66330  0.26140  Biso   1.000  C
  C96      1.0000 0.58380  0.66330  0.23860  Biso   1.000  C
  H89      1.0000 0.09550  0.79370  0.75250  Biso   1.000  H
  H90      1.0000 0.90450  0.79370  0.74750  Biso   1.000  H
  H91      1.0000 0.59550  0.29370  0.75250  Biso   1.000  H
  H92      1.0000 0.40450  0.29370  0.74750  Biso   1.000  H
  H93      1.0000 0.90450  0.20630  0.24750  Biso   1.000  H
  H94      1.0000 0.09550  0.20630  0.25250  Biso   1.000  H
  H95      1.0000 0.40450  0.70630  0.24750  Biso   1.000  H
  H96      1.0000 0.59550  0.70630  0.25250  Biso   1.000  H
  C97      1.0000 0.14510  0.03020  0.80570  Biso   1.000  C
  C98      1.0000 0.85490  0.03020  0.69430  Biso   1.000  C
  C99      1.0000 0.64510  0.53020  0.80570  Biso   1.000  C
  C100     1.0000 0.35490  0.53020  0.69430  Biso   1.000  C
  C101     1.0000 0.85490  0.96980  0.19430  Biso   1.000  C
  C102     1.0000 0.14510  0.96980  0.30570  Biso   1.000  C
  C103     1.0000 0.35490  0.46980  0.19430  Biso   1.000  C
  C104     1.0000 0.64510  0.46980  0.30570  Biso   1.000  C
  H97      1.0000 0.12750  0.00030  0.81400  Biso   1.000  H
  H98      1.0000 0.87250  0.00030  0.68600  Biso   1.000  H
  H99      1.0000 0.62750  0.50030  0.81400  Biso   1.000  H
  H100     1.0000 0.37250  0.50030  0.68600  Biso   1.000  H
  H101     1.0000 0.87250  0.99970  0.18600  Biso   1.000  H
  H102     1.0000 0.12750  0.99970  0.31400  Biso   1.000  H
  H103     1.0000 0.37250  0.49970  0.18600  Biso   1.000  H
  H104     1.0000 0.62750  0.49970  0.31400  Biso   1.000  H
  H105     1.0000 0.16850  0.01890  0.82950  Biso   1.000  H
  H106     1.0000 0.83150  0.01890  0.67050  Biso   1.000  H
  H107     1.0000 0.66850  0.51890  0.82950  Biso   1.000  H
  H108     1.0000 0.33150  0.51890  0.67050  Biso   1.000  H
  H109     1.0000 0.83150  0.98110  0.17050  Biso   1.000  H
  H110     1.0000 0.16850  0.98110  0.32950  Biso   1.000  H
  H111     1.0000 0.33150  0.48110  0.17050  Biso   1.000  H
  H112     1.0000 0.66850  0.48110  0.32950  Biso   1.000  H
  C105     1.0000 0.13680  0.11000  0.81100  Biso   1.000  C
  C106     1.0000 0.86320  0.11000  0.68900  Biso   1.000  C
  C107     1.0000 0.63680  0.61000  0.81100  Biso   1.000  C
  C108     1.0000 0.36320  0.61000  0.68900  Biso   1.000  C
  C109     1.0000 0.86320  0.89000  0.18900  Biso   1.000  C
  C110     1.0000 0.13680  0.89000  0.31100  Biso   1.000  C
  C111     1.0000 0.36320  0.39000  0.18900  Biso   1.000  C
  C112     1.0000 0.63680  0.39000  0.31100  Biso   1.000  C
  C113     1.0000 0.16390  0.16010  0.82180  Biso   1.000  C
  C114     1.0000 0.83610  0.16010  0.67820  Biso   1.000  C
  C115     1.0000 0.66390  0.66010  0.82180  Biso   1.000  C
  C116     1.0000 0.33610  0.66010  0.67820  Biso   1.000  C
  C117     1.0000 0.83610  0.83990  0.17820  Biso   1.000  C
  C118     1.0000 0.16390  0.83990  0.32180  Biso   1.000  C
  C119     1.0000 0.33610  0.33990  0.17820  Biso   1.000  C
  C120     1.0000 0.66390  0.33990  0.32180  Biso   1.000  C
  H113     1.0000 0.18750  0.14370  0.83000  Biso   1.000  H
  H114     1.0000 0.81250  0.14370  0.67000  Biso   1.000  H
  H115     1.0000 0.68750  0.64370  0.83000  Biso   1.000  H
  H116     1.0000 0.31250  0.64370  0.67000  Biso   1.000  H
  H117     1.0000 0.81250  0.85630  0.17000  Biso   1.000  H
  H118     1.0000 0.18750  0.85630  0.33000  Biso   1.000  H
  H119     1.0000 0.31250  0.35630  0.17000  Biso   1.000  H
  H120     1.0000 0.68750  0.35630  0.33000  Biso   1.000  H
  C121     1.0000 0.15720  0.23550  0.82090  Biso   1.000  C
  C122     1.0000 0.84280  0.23550  0.67910  Biso   1.000  C
  C123     1.0000 0.65720  0.73550  0.82090  Biso   1.000  C
  C124     1.0000 0.34280  0.73550  0.67910  Biso   1.000  C
  C125     1.0000 0.84280  0.76450  0.17910  Biso   1.000  C
  C126     1.0000 0.15720  0.76450  0.32090  Biso   1.000  C
  C127     1.0000 0.34280  0.26450  0.17910  Biso   1.000  C
  C128     1.0000 0.65720  0.26450  0.32090  Biso   1.000  C
  H121     1.0000 0.17620  0.26860  0.82870  Biso   1.000  H
  H122     1.0000 0.82380  0.26860  0.67130  Biso   1.000  H
  H123     1.0000 0.67620  0.76860  0.82870  Biso   1.000  H
  H124     1.0000 0.32380  0.76860  0.67130  Biso   1.000  H
  H125     1.0000 0.82380  0.73140  0.17130  Biso   1.000  H
  H126     1.0000 0.17620  0.73140  0.32870  Biso   1.000  H
  H127     1.0000 0.32380  0.23140  0.17130  Biso   1.000  H
  H128     1.0000 0.67620  0.23140  0.32870  Biso   1.000  H
  C129     1.0000 0.12240  0.26070  0.80850  Biso   1.000  C
  C130     1.0000 0.87760  0.26070  0.69150  Biso   1.000  C
  C131     1.0000 0.62240  0.76070  0.80850  Biso   1.000  C
  C132     1.0000 0.37760  0.76070  0.69150  Biso   1.000  C
  C133     1.0000 0.87760  0.73930  0.19150  Biso   1.000  C
  C134     1.0000 0.12240  0.73930  0.30850  Biso   1.000  C
  C135     1.0000 0.37760  0.23930  0.19150  Biso   1.000  C
  C136     1.0000 0.62240  0.23930  0.30850  Biso   1.000  C
  C137     1.0000 0.09430  0.21180  0.80360  Biso   1.000  C
  C138     1.0000 0.90570  0.21180  0.69640  Biso   1.000  C
  C139     1.0000 0.59430  0.71180  0.80360  Biso   1.000  C
  C140     1.0000 0.40570  0.71180  0.69640  Biso   1.000  C
  C141     1.0000 0.90570  0.78820  0.19640  Biso   1.000  C
  C142     1.0000 0.09430  0.78820  0.30360  Biso   1.000  C
  C143     1.0000 0.40570  0.28820  0.19640  Biso   1.000  C
  C144     1.0000 0.59430  0.28820  0.30360  Biso   1.000  C
  C145     1.0000 0.05980  0.23520  0.79950  Biso   1.000  C
  C146     1.0000 0.94020  0.23520  0.70050  Biso   1.000  C
  C147     1.0000 0.55980  0.73520  0.79950  Biso   1.000  C
  C148     1.0000 0.44020  0.73520  0.70050  Biso   1.000  C
  C149     1.0000 0.94020  0.76480  0.20050  Biso   1.000  C
  C150     1.0000 0.05980  0.76480  0.29950  Biso   1.000  C
  C151     1.0000 0.44020  0.26480  0.20050  Biso   1.000  C
  C152     1.0000 0.55980  0.26480  0.29950  Biso   1.000  C
  H129     1.0000 0.05450  0.28490  0.79710  Biso   1.000  H
  H130     1.0000 0.94550  0.28490  0.70290  Biso   1.000  H
  H131     1.0000 0.55450  0.78490  0.79710  Biso   1.000  H
  H132     1.0000 0.44550  0.78490  0.70290  Biso   1.000  H
  H133     1.0000 0.94550  0.71510  0.20290  Biso   1.000  H
  H134     1.0000 0.05450  0.71510  0.29710  Biso   1.000  H
  H135     1.0000 0.44550  0.21510  0.20290  Biso   1.000  H
  H136     1.0000 0.55450  0.21510  0.29710  Biso   1.000  H
  C153     1.0000 0.03390  0.18570  0.79900  Biso   1.000  C
  C154     1.0000 0.96610  0.18570  0.70100  Biso   1.000  C
  C155     1.0000 0.53390  0.68570  0.79900  Biso   1.000  C
  C156     1.0000 0.46610  0.68570  0.70100  Biso   1.000  C
  C157     1.0000 0.96610  0.81430  0.20100  Biso   1.000  C
  C158     1.0000 0.03390  0.81430  0.29900  Biso   1.000  C
  C159     1.0000 0.46610  0.31430  0.20100  Biso   1.000  C
  C160     1.0000 0.53390  0.31430  0.29900  Biso   1.000  C
  H137     1.0000 0.01110  0.20260  0.79650  Biso   1.000  H
  H138     1.0000 0.98890  0.20260  0.70350  Biso   1.000  H
  H139     1.0000 0.51110  0.70260  0.79650  Biso   1.000  H
  H140     1.0000 0.48890  0.70260  0.70350  Biso   1.000  H
  H141     1.0000 0.98890  0.79740  0.20350  Biso   1.000  H
  H142     1.0000 0.01110  0.79740  0.29650  Biso   1.000  H
  H143     1.0000 0.48890  0.29740  0.20350  Biso   1.000  H
  H144     1.0000 0.51110  0.29740  0.29650  Biso   1.000  H
  C161     1.0000 0.04020  0.11140  0.80210  Biso   1.000  C
  C162     1.0000 0.95980  0.11140  0.69790  Biso   1.000  C
  C163     1.0000 0.54020  0.61140  0.80210  Biso   1.000  C
  C164     1.0000 0.45980  0.61140  0.69790  Biso   1.000  C
  C165     1.0000 0.95980  0.88860  0.19790  Biso   1.000  C
  C166     1.0000 0.04020  0.88860  0.30210  Biso   1.000  C
  C167     1.0000 0.45980  0.38860  0.19790  Biso   1.000  C
  C168     1.0000 0.54020  0.38860  0.30210  Biso   1.000  C
  H145     1.0000 0.02210  0.07880  0.80230  Biso   1.000  H
  H146     1.0000 0.97790  0.07880  0.69770  Biso   1.000  H
  H147     1.0000 0.52210  0.57880  0.80230  Biso   1.000  H
  H148     1.0000 0.47790  0.57880  0.69770  Biso   1.000  H
  H149     1.0000 0.97790  0.92120  0.19770  Biso   1.000  H
  H150     1.0000 0.02210  0.92120  0.30230  Biso   1.000  H
  H151     1.0000 0.47790  0.42120  0.19770  Biso   1.000  H
  H152     1.0000 0.52210  0.42120  0.30230  Biso   1.000  H
  C169     1.0000 0.07340  0.08640  0.80480  Biso   1.000  C
  C170     1.0000 0.92660  0.08640  0.69520  Biso   1.000  C
  C171     1.0000 0.57340  0.58640  0.80480  Biso   1.000  C
  C172     1.0000 0.42660  0.58640  0.69520  Biso   1.000  C
  C173     1.0000 0.92660  0.91360  0.19520  Biso   1.000  C
  C174     1.0000 0.07340  0.91360  0.30480  Biso   1.000  C
  C175     1.0000 0.42660  0.41360  0.19520  Biso   1.000  C
  C176     1.0000 0.57340  0.41360  0.30480  Biso   1.000  C
  H153     1.0000 0.07790  0.03630  0.80660  Biso   1.000  H
  H154     1.0000 0.92210  0.03630  0.69340  Biso   1.000  H
  H155     1.0000 0.57790  0.53630  0.80660  Biso   1.000  H
  H156     1.0000 0.42210  0.53630  0.69340  Biso   1.000  H
  H157     1.0000 0.92210  0.96370  0.19340  Biso   1.000  H
  H158     1.0000 0.07790  0.96370  0.30660  Biso   1.000  H
  H159     1.0000 0.42210  0.46370  0.19340  Biso   1.000  H
  H160     1.0000 0.57790  0.46370  0.30660  Biso   1.000  H
  C177     1.0000 0.10160  0.13700  0.80490  Biso   1.000  C
  C178     1.0000 0.89840  0.13700  0.69510  Biso   1.000  C
  C179     1.0000 0.60160  0.63700  0.80490  Biso   1.000  C
  C180     1.0000 0.39840  0.63700  0.69510  Biso   1.000  C
  C181     1.0000 0.89840  0.86300  0.19510  Biso   1.000  C
  C182     1.0000 0.10160  0.86300  0.30490  Biso   1.000  C
  C183     1.0000 0.39840  0.36300  0.19510  Biso   1.000  C
  C184     1.0000 0.60160  0.36300  0.30490  Biso   1.000  C
  C185     1.0000 0.11740  0.34360  0.80040  Biso   1.000  C
  C186     1.0000 0.88260  0.34360  0.69960  Biso   1.000  C
  C187     1.0000 0.61740  0.84360  0.80040  Biso   1.000  C
  C188     1.0000 0.38260  0.84360  0.69960  Biso   1.000  C
  C189     1.0000 0.88260  0.65640  0.19960  Biso   1.000  C
  C190     1.0000 0.11740  0.65640  0.30040  Biso   1.000  C
  C191     1.0000 0.38260  0.15640  0.19960  Biso   1.000  C
  C192     1.0000 0.61740  0.15640  0.30040  Biso   1.000  C
  H161     1.0000 0.09590  0.35820  0.80770  Biso   1.000  H
  H162     1.0000 0.90410  0.35820  0.69230  Biso   1.000  H
  H163     1.0000 0.59590  0.85820  0.80770  Biso   1.000  H
  H164     1.0000 0.40410  0.85820  0.69230  Biso   1.000  H
  H165     1.0000 0.90410  0.64180  0.19230  Biso   1.000  H
  H166     1.0000 0.09590  0.64180  0.30770  Biso   1.000  H
  H167     1.0000 0.40410  0.14180  0.19230  Biso   1.000  H
  H168     1.0000 0.59590  0.14180  0.30770  Biso   1.000  H
  H169     1.0000 0.13770  0.36830  0.82410  Biso   1.000  H
  H170     1.0000 0.86230  0.36830  0.67590  Biso   1.000  H
  H171     1.0000 0.63770  0.86830  0.82410  Biso   1.000  H
  H172     1.0000 0.36230  0.86830  0.67590  Biso   1.000  H
  H173     1.0000 0.86230  0.63170  0.17590  Biso   1.000  H
  H174     1.0000 0.13770  0.63170  0.32410  Biso   1.000  H
  H175     1.0000 0.36230  0.13170  0.17590  Biso   1.000  H
  H176     1.0000 0.63770  0.13170  0.32410  Biso   1.000  H
  C193     1.0000 0.02770  0.49670  0.70980  Biso   1.000  C
  C194     1.0000 0.97230  0.49670  0.79020  Biso   1.000  C
  C195     1.0000 0.52770  0.99670  0.70980  Biso   1.000  C
  C196     1.0000 0.47230  0.99670  0.79020  Biso   1.000  C
  C197     1.0000 0.97230  0.50330  0.29020  Biso   1.000  C
  C198     1.0000 0.02770  0.50330  0.20980  Biso   1.000  C
  C199     1.0000 0.47230  0.00330  0.29020  Biso   1.000  C
  C200     1.0000 0.52770  0.00330  0.20980  Biso   1.000  C
  H177     1.0000 0.03160  0.54490  0.72090  Biso   1.000  H
  H178     1.0000 0.96840  0.54490  0.77910  Biso   1.000  H
  H179     1.0000 0.53160  0.04490  0.72090  Biso   1.000  H
  H180     1.0000 0.46840  0.04490  0.77910  Biso   1.000  H
  H181     1.0000 0.96840  0.45510  0.27910  Biso   1.000  H
  H182     1.0000 0.03160  0.45510  0.22090  Biso   1.000  H
  H183     1.0000 0.46840  0.95510  0.27910  Biso   1.000  H
  H184     1.0000 0.53160  0.95510  0.22090  Biso   1.000  H
  C201     1.0000 0.99280  0.47430  0.68640  Biso   1.000  C
  C202     1.0000 0.00720  0.47430  0.81360  Biso   1.000  C
  C203     1.0000 0.49280  0.97430  0.68640  Biso   1.000  C
  C204     1.0000 0.50720  0.97430  0.81360  Biso   1.000  C
  C205     1.0000 0.00720  0.52570  0.31360  Biso   1.000  C
  C206     1.0000 0.99280  0.52570  0.18640  Biso   1.000  C
  C207     1.0000 0.50720  0.02570  0.31360  Biso   1.000  C
  C208     1.0000 0.49280  0.02570  0.18640  Biso   1.000  C
  H185     1.0000 0.97370  0.50700  0.68000  Biso   1.000  H
  H186     1.0000 0.02630  0.50700  0.82000  Biso   1.000  H
  H187     1.0000 0.47370  0.00700  0.68000  Biso   1.000  H
  H188     1.0000 0.52630  0.00700  0.82000  Biso   1.000  H
  H189     1.0000 0.02630  0.49300  0.32000  Biso   1.000  H
  H190     1.0000 0.97370  0.49300  0.18000  Biso   1.000  H
  H191     1.0000 0.52630  0.99300  0.32000  Biso   1.000  H
  H192     1.0000 0.47370  0.99300  0.18000  Biso   1.000  H
  C209     1.0000 0.98720  0.40300  0.67290  Biso   1.000  C
  C210     1.0000 0.01280  0.40300  0.82710  Biso   1.000  C
  C211     1.0000 0.48720  0.90300  0.67290  Biso   1.000  C
  C212     1.0000 0.51280  0.90300  0.82710  Biso   1.000  C
  C213     1.0000 0.01280  0.59700  0.32710  Biso   1.000  C
  C214     1.0000 0.98720  0.59700  0.17290  Biso   1.000  C
  C215     1.0000 0.51280  0.09700  0.32710  Biso   1.000  C
  C216     1.0000 0.48720  0.09700  0.17290  Biso   1.000  C
  H193     1.0000 0.96410  0.38530  0.65790  Biso   1.000  H
  H194     1.0000 0.03590  0.38530  0.84210  Biso   1.000  H
  H195     1.0000 0.46410  0.88530  0.65790  Biso   1.000  H
  H196     1.0000 0.53590  0.88530  0.84210  Biso   1.000  H
  H197     1.0000 0.03590  0.61470  0.34210  Biso   1.000  H
  H198     1.0000 0.96410  0.61470  0.15790  Biso   1.000  H
  H199     1.0000 0.53590  0.11470  0.34210  Biso   1.000  H
  H200     1.0000 0.46410  0.11470  0.15790  Biso   1.000  H
  C217     1.0000 0.01640  0.35660  0.68170  Biso   1.000  C
  C218     1.0000 0.98360  0.35660  0.81830  Biso   1.000  C
  C219     1.0000 0.51640  0.85660  0.68170  Biso   1.000  C
  C220     1.0000 0.48360  0.85660  0.81830  Biso   1.000  C
  C221     1.0000 0.98360  0.64340  0.31830  Biso   1.000  C
  C222     1.0000 0.01640  0.64340  0.18170  Biso   1.000  C
  C223     1.0000 0.48360  0.14340  0.31830  Biso   1.000  C
  C224     1.0000 0.51640  0.14340  0.18170  Biso   1.000  C
  H201     1.0000 0.01290  0.30750  0.67270  Biso   1.000  H
  H202     1.0000 0.98710  0.30750  0.82730  Biso   1.000  H
  H203     1.0000 0.51290  0.80750  0.67270  Biso   1.000  H
  H204     1.0000 0.48710  0.80750  0.82730  Biso   1.000  H
  H205     1.0000 0.98710  0.69250  0.32730  Biso   1.000  H
  H206     1.0000 0.01290  0.69250  0.17270  Biso   1.000  H
  H207     1.0000 0.48710  0.19250  0.32730  Biso   1.000  H
  H208     1.0000 0.51290  0.19250  0.17270  Biso   1.000  H
  C225     1.0000 0.05050  0.38290  0.70370  Biso   1.000  C
  C226     1.0000 0.94950  0.38290  0.79630  Biso   1.000  C
  C227     1.0000 0.55050  0.88290  0.70370  Biso   1.000  C
  C228     1.0000 0.44950  0.88290  0.79630  Biso   1.000  C
  C229     1.0000 0.94950  0.61710  0.29630  Biso   1.000  C
  C230     1.0000 0.05050  0.61710  0.20370  Biso   1.000  C
  C231     1.0000 0.44950  0.11710  0.29630  Biso   1.000  C
  C232     1.0000 0.55050  0.11710  0.20370  Biso   1.000  C
  C233     1.0000 0.08310  0.33770  0.70900  Biso   1.000  C
  C234     1.0000 0.91690  0.33770  0.79100  Biso   1.000  C
  C235     1.0000 0.58310  0.83770  0.70900  Biso   1.000  C
  C236     1.0000 0.41690  0.83770  0.79100  Biso   1.000  C
  C237     1.0000 0.91690  0.66230  0.29100  Biso   1.000  C
  C238     1.0000 0.08310  0.66230  0.20900  Biso   1.000  C
  C239     1.0000 0.41690  0.16230  0.29100  Biso   1.000  C
  C240     1.0000 0.58310  0.16230  0.20900  Biso   1.000  C
  H209     1.0000 0.07920  0.28800  0.71820  Biso   1.000  H
  H210     1.0000 0.92080  0.28800  0.78180  Biso   1.000  H
  H211     1.0000 0.57920  0.78800  0.71820  Biso   1.000  H
  H212     1.0000 0.42080  0.78800  0.78180  Biso   1.000  H
  H213     1.0000 0.92080  0.71200  0.28180  Biso   1.000  H
  H214     1.0000 0.07920  0.71200  0.21820  Biso   1.000  H
  H215     1.0000 0.42080  0.21200  0.28180  Biso   1.000  H
  H216     1.0000 0.57920  0.21200  0.21820  Biso   1.000  H
  H217     1.0000 0.08780  0.33600  0.67750  Biso   1.000  H
  H218     1.0000 0.91220  0.33600  0.82250  Biso   1.000  H
  H219     1.0000 0.58780  0.83600  0.67750  Biso   1.000  H
  H220     1.0000 0.41220  0.83600  0.82250  Biso   1.000  H
  H221     1.0000 0.91220  0.66400  0.32250  Biso   1.000  H
  H222     1.0000 0.08780  0.66400  0.17750  Biso   1.000  H
  H223     1.0000 0.41220  0.16400  0.32250  Biso   1.000  H
  H224     1.0000 0.58780  0.16400  0.17750  Biso   1.000  H
  C241     1.0000 0.18130  0.53640  0.78520  Biso   1.000  C
  C242     1.0000 0.81870  0.53640  0.71480  Biso   1.000  C
  C243     1.0000 0.68130  0.03640  0.78520  Biso   1.000  C
  C244     1.0000 0.31870  0.03640  0.71480  Biso   1.000  C
  C245     1.0000 0.81870  0.46360  0.21480  Biso   1.000  C
  C246     1.0000 0.18130  0.46360  0.28520  Biso   1.000  C
  C247     1.0000 0.31870  0.96360  0.21480  Biso   1.000  C
  C248     1.0000 0.68130  0.96360  0.28520  Biso   1.000  C
  H225     1.0000 0.17130  0.58240  0.78560  Biso   1.000  H
  H226     1.0000 0.82870  0.58240  0.71440  Biso   1.000  H
  H227     1.0000 0.67130  0.08240  0.78560  Biso   1.000  H
  H228     1.0000 0.32870  0.08240  0.71440  Biso   1.000  H
  H229     1.0000 0.82870  0.41760  0.21440  Biso   1.000  H
  H230     1.0000 0.17130  0.41760  0.28560  Biso   1.000  H
  H231     1.0000 0.32870  0.91760  0.21440  Biso   1.000  H
  H232     1.0000 0.67130  0.91760  0.28560  Biso   1.000  H
  C249     1.0000 0.21890  0.52740  0.80460  Biso   1.000  C
  C250     1.0000 0.78110  0.52740  0.69540  Biso   1.000  C
  C251     1.0000 0.71890  0.02740  0.80460  Biso   1.000  C
  C252     1.0000 0.28110  0.02740  0.69540  Biso   1.000  C
  C253     1.0000 0.78110  0.47260  0.19540  Biso   1.000  C
  C254     1.0000 0.21890  0.47260  0.30460  Biso   1.000  C
  C255     1.0000 0.28110  0.97260  0.19540  Biso   1.000  C
  C256     1.0000 0.71890  0.97260  0.30460  Biso   1.000  C
  H233     1.0000 0.23380  0.56680  0.81850  Biso   1.000  H
  H234     1.0000 0.76620  0.56680  0.68150  Biso   1.000  H
  H235     1.0000 0.73380  0.06680  0.81850  Biso   1.000  H
  H236     1.0000 0.26620  0.06680  0.68150  Biso   1.000  H
  H237     1.0000 0.76620  0.43320  0.18150  Biso   1.000  H
  H238     1.0000 0.23380  0.43320  0.31850  Biso   1.000  H
  H239     1.0000 0.26620  0.93320  0.18150  Biso   1.000  H
  H240     1.0000 0.73380  0.93320  0.31850  Biso   1.000  H
  C257     1.0000 0.23290  0.45930  0.80260  Biso   1.000  C
  C258     1.0000 0.76710  0.45930  0.69740  Biso   1.000  C
  C259     1.0000 0.73290  0.95930  0.80260  Biso   1.000  C
  C260     1.0000 0.26710  0.95930  0.69740  Biso   1.000  C
  C261     1.0000 0.76710  0.54070  0.19740  Biso   1.000  C
  C262     1.0000 0.23290  0.54070  0.30260  Biso   1.000  C
  C263     1.0000 0.26710  0.04070  0.19740  Biso   1.000  C
  C264     1.0000 0.73290  0.04070  0.30260  Biso   1.000  C
  H241     1.0000 0.25760  0.45220  0.81560  Biso   1.000  H
  H242     1.0000 0.74240  0.45220  0.68440  Biso   1.000  H
  H243     1.0000 0.75760  0.95220  0.81560  Biso   1.000  H
  H244     1.0000 0.24240  0.95220  0.68440  Biso   1.000  H
  H245     1.0000 0.74240  0.54780  0.18440  Biso   1.000  H
  H246     1.0000 0.25760  0.54780  0.31560  Biso   1.000  H
  H247     1.0000 0.24240  0.04780  0.18440  Biso   1.000  H
  H248     1.0000 0.75760  0.04780  0.31560  Biso   1.000  H
  C265     1.0000 0.21160  0.40300  0.78200  Biso   1.000  C
  C266     1.0000 0.78840  0.40300  0.71800  Biso   1.000  C
  C267     1.0000 0.71160  0.90300  0.78200  Biso   1.000  C
  C268     1.0000 0.28840  0.90300  0.71800  Biso   1.000  C
  C269     1.0000 0.78840  0.59700  0.21800  Biso   1.000  C
  C270     1.0000 0.21160  0.59700  0.28200  Biso   1.000  C
  C271     1.0000 0.28840  0.09700  0.21800  Biso   1.000  C
  C272     1.0000 0.71160  0.09700  0.28200  Biso   1.000  C
  H249     1.0000 0.22130  0.35690  0.78050  Biso   1.000  H
  H250     1.0000 0.77870  0.35690  0.71950  Biso   1.000  H
  H251     1.0000 0.72130  0.85690  0.78050  Biso   1.000  H
  H252     1.0000 0.27870  0.85690  0.71950  Biso   1.000  H
  H253     1.0000 0.77870  0.64310  0.21950  Biso   1.000  H
  H254     1.0000 0.22130  0.64310  0.28050  Biso   1.000  H
  H255     1.0000 0.27870  0.14310  0.21950  Biso   1.000  H
  H256     1.0000 0.72130  0.14310  0.28050  Biso   1.000  H
  C273     1.0000 0.17500  0.41390  0.76320  Biso   1.000  C
  C274     1.0000 0.82500  0.41390  0.73680  Biso   1.000  C
  C275     1.0000 0.67500  0.91390  0.76320  Biso   1.000  C
  C276     1.0000 0.32500  0.91390  0.73680  Biso   1.000  C
  C277     1.0000 0.82500  0.58610  0.23680  Biso   1.000  C
  C278     1.0000 0.17500  0.58610  0.26320  Biso   1.000  C
  C279     1.0000 0.32500  0.08610  0.23680  Biso   1.000  C
  C280     1.0000 0.67500  0.08610  0.26320  Biso   1.000  C
  C281     1.0000 0.14840  0.35630  0.73680  Biso   1.000  C
  C282     1.0000 0.85160  0.35630  0.76320  Biso   1.000  C
  C283     1.0000 0.64840  0.85630  0.73680  Biso   1.000  C
  C284     1.0000 0.35160  0.85630  0.76320  Biso   1.000  C
  C285     1.0000 0.85160  0.64370  0.26320  Biso   1.000  C
  C286     1.0000 0.14840  0.64370  0.23680  Biso   1.000  C
  C287     1.0000 0.35160  0.14370  0.26320  Biso   1.000  C
  C288     1.0000 0.64840  0.14370  0.23680  Biso   1.000  C
  H257     1.0000 0.14410  0.35880  0.70110  Biso   1.000  H
  H258     1.0000 0.85590  0.35880  0.79890  Biso   1.000  H
  H259     1.0000 0.64410  0.85880  0.70110  Biso   1.000  H
  H260     1.0000 0.35590  0.85880  0.79890  Biso   1.000  H
  H261     1.0000 0.85590  0.64120  0.29890  Biso   1.000  H
  H262     1.0000 0.14410  0.64120  0.20110  Biso   1.000  H
  H263     1.0000 0.35590  0.14120  0.29890  Biso   1.000  H
  H264     1.0000 0.64410  0.14120  0.20110  Biso   1.000  H
  H265     1.0000 0.15770  0.30800  0.74840  Biso   1.000  H
  H266     1.0000 0.84230  0.30800  0.75160  Biso   1.000  H
  H267     1.0000 0.65770  0.80800  0.74840  Biso   1.000  H
  H268     1.0000 0.34230  0.80800  0.75160  Biso   1.000  H
  H269     1.0000 0.84230  0.69200  0.25160  Biso   1.000  H
  H270     1.0000 0.15770  0.69200  0.24840  Biso   1.000  H
  H271     1.0000 0.34230  0.19200  0.25160  Biso   1.000  H
  H272     1.0000 0.65770  0.19200  0.24840  Biso   1.000  H
  C289     1.0000 0.17640  0.44450  0.51870  Biso   1.000  C
  C290     1.0000 0.82360  0.44450  0.98130  Biso   1.000  C
  C291     1.0000 0.67640  0.94450  0.51870  Biso   1.000  C
  C292     1.0000 0.32360  0.94450  0.98130  Biso   1.000  C
  C293     1.0000 0.82360  0.55550  0.48130  Biso   1.000  C
  C294     1.0000 0.17640  0.55550  0.01870  Biso   1.000  C
  C295     1.0000 0.32360  0.05550  0.48130  Biso   1.000  C
  C296     1.0000 0.67640  0.05550  0.01870  Biso   1.000  C
  H273     1.0000 0.16680  0.39890  0.50710  Biso   1.000  H
  H274     1.0000 0.83320  0.39890  0.99290  Biso   1.000  H
  H275     1.0000 0.66680  0.89890  0.50710  Biso   1.000  H
  H276     1.0000 0.33320  0.89890  0.99290  Biso   1.000  H
  H277     1.0000 0.83320  0.60110  0.49290  Biso   1.000  H
  H278     1.0000 0.16680  0.60110  0.00710  Biso   1.000  H
  H279     1.0000 0.33320  0.10110  0.49290  Biso   1.000  H
  H280     1.0000 0.66680  0.10110  0.00710  Biso   1.000  H
  C297     1.0000 0.21230  0.45250  0.53750  Biso   1.000  C
  C298     1.0000 0.78770  0.45250  0.96250  Biso   1.000  C
  C299     1.0000 0.71230  0.95250  0.53750  Biso   1.000  C
  C300     1.0000 0.28770  0.95250  0.96250  Biso   1.000  C
  C301     1.0000 0.78770  0.54750  0.46250  Biso   1.000  C
  C302     1.0000 0.21230  0.54750  0.03750  Biso   1.000  C
  C303     1.0000 0.28770  0.04750  0.46250  Biso   1.000  C
  C304     1.0000 0.71230  0.04750  0.03750  Biso   1.000  C
  H281     1.0000 0.22720  0.41240  0.53900  Biso   1.000  H
  H282     1.0000 0.77280  0.41240  0.96100  Biso   1.000  H
  H283     1.0000 0.72720  0.91240  0.53900  Biso   1.000  H
  H284     1.0000 0.27280  0.91240  0.96100  Biso   1.000  H
  H285     1.0000 0.77280  0.58760  0.46100  Biso   1.000  H
  H286     1.0000 0.22720  0.58760  0.03900  Biso   1.000  H
  H287     1.0000 0.27280  0.08760  0.46100  Biso   1.000  H
  H288     1.0000 0.72720  0.08760  0.03900  Biso   1.000  H
  C305     1.0000 0.22680  0.51840  0.55410  Biso   1.000  C
  C306     1.0000 0.77320  0.51840  0.94590  Biso   1.000  C
  C307     1.0000 0.72680  0.01840  0.55410  Biso   1.000  C
  C308     1.0000 0.27320  0.01840  0.94590  Biso   1.000  C
  C309     1.0000 0.77320  0.48160  0.44590  Biso   1.000  C
  C310     1.0000 0.22680  0.48160  0.05410  Biso   1.000  C
  C311     1.0000 0.27320  0.98160  0.44590  Biso   1.000  C
  C312     1.0000 0.72680  0.98160  0.05410  Biso   1.000  C
  H289     1.0000 0.25160  0.52390  0.56710  Biso   1.000  H
  H290     1.0000 0.74840  0.52390  0.93290  Biso   1.000  H
  H291     1.0000 0.75160  0.02390  0.56710  Biso   1.000  H
  H292     1.0000 0.24840  0.02390  0.93290  Biso   1.000  H
  H293     1.0000 0.74840  0.47610  0.43290  Biso   1.000  H
  H294     1.0000 0.25160  0.47610  0.06710  Biso   1.000  H
  H295     1.0000 0.24840  0.97610  0.43290  Biso   1.000  H
  H296     1.0000 0.75160  0.97610  0.06710  Biso   1.000  H
  C313     1.0000 0.20420  0.57810  0.55160  Biso   1.000  C
  C314     1.0000 0.79580  0.57810  0.94840  Biso   1.000  C
  C315     1.0000 0.70420  0.07810  0.55160  Biso   1.000  C
  C316     1.0000 0.29580  0.07810  0.94840  Biso   1.000  C
  C317     1.0000 0.79580  0.42190  0.44840  Biso   1.000  C
  C318     1.0000 0.20420  0.42190  0.05160  Biso   1.000  C
  C319     1.0000 0.29580  0.92190  0.44840  Biso   1.000  C
  C320     1.0000 0.70420  0.92190  0.05160  Biso   1.000  C
  H297     1.0000 0.21340  0.62430  0.56230  Biso   1.000  H
  H298     1.0000 0.78660  0.62430  0.93770  Biso   1.000  H
  H299     1.0000 0.71340  0.12430  0.56230  Biso   1.000  H
  H300     1.0000 0.28660  0.12430  0.93770  Biso   1.000  H
  H301     1.0000 0.78660  0.37570  0.43770  Biso   1.000  H
  H302     1.0000 0.21340  0.37570  0.06230  Biso   1.000  H
  H303     1.0000 0.28660  0.87570  0.43770  Biso   1.000  H
  H304     1.0000 0.71340  0.87570  0.06230  Biso   1.000  H
  C321     1.0000 0.16830  0.56600  0.53310  Biso   1.000  C
  C322     1.0000 0.83170  0.56600  0.96690  Biso   1.000  C
  C323     1.0000 0.66830  0.06600  0.53310  Biso   1.000  C
  C324     1.0000 0.33170  0.06600  0.96690  Biso   1.000  C
  C325     1.0000 0.83170  0.43400  0.46690  Biso   1.000  C
  C326     1.0000 0.16830  0.43400  0.03310  Biso   1.000  C
  C327     1.0000 0.33170  0.93400  0.46690  Biso   1.000  C
  C328     1.0000 0.66830  0.93400  0.03310  Biso   1.000  C
  C329     1.0000 0.14150  0.62750  0.53240  Biso   1.000  C
  C330     1.0000 0.85850  0.62750  0.96760  Biso   1.000  C
  C331     1.0000 0.64150  0.12750  0.53240  Biso   1.000  C
  C332     1.0000 0.35850  0.12750  0.96760  Biso   1.000  C
  C333     1.0000 0.85850  0.37250  0.46760  Biso   1.000  C
  C334     1.0000 0.14150  0.37250  0.03240  Biso   1.000  C
  C335     1.0000 0.35850  0.87250  0.46760  Biso   1.000  C
  C336     1.0000 0.64150  0.87250  0.03240  Biso   1.000  C
  H305     1.0000 0.13780  0.63050  0.56470  Biso   1.000  H
  H306     1.0000 0.86220  0.63050  0.93530  Biso   1.000  H
  H307     1.0000 0.63780  0.13050  0.56470  Biso   1.000  H
  H308     1.0000 0.36220  0.13050  0.93530  Biso   1.000  H
  H309     1.0000 0.86220  0.36950  0.43530  Biso   1.000  H
  H310     1.0000 0.13780  0.36950  0.06470  Biso   1.000  H
  H311     1.0000 0.36220  0.86950  0.43530  Biso   1.000  H
  H312     1.0000 0.63780  0.86950  0.06470  Biso   1.000  H
  H313     1.0000 0.15080  0.67410  0.52580  Biso   1.000  H
  H314     1.0000 0.84920  0.67410  0.97420  Biso   1.000  H
  H315     1.0000 0.65080  0.17410  0.52580  Biso   1.000  H
  H316     1.0000 0.34920  0.17410  0.97420  Biso   1.000  H
  H317     1.0000 0.84920  0.32590  0.47420  Biso   1.000  H
  H318     1.0000 0.15080  0.32590  0.02580  Biso   1.000  H
  H319     1.0000 0.34920  0.82590  0.47420  Biso   1.000  H
  H320     1.0000 0.65080  0.82590  0.02580  Biso   1.000  H
  C337     1.0000 0.07580  0.63800  0.50550  Biso   1.000  C
  C338     1.0000 0.92420  0.63800  0.99450  Biso   1.000  C
  C339     1.0000 0.57580  0.13800  0.50550  Biso   1.000  C
  C340     1.0000 0.42420  0.13800  0.99450  Biso   1.000  C
  C341     1.0000 0.92420  0.36200  0.49450  Biso   1.000  C
  C342     1.0000 0.07580  0.36200  0.00550  Biso   1.000  C
  C343     1.0000 0.42420  0.86200  0.49450  Biso   1.000  C
  C344     1.0000 0.57580  0.86200  0.00550  Biso   1.000  C
  H321     1.0000 0.07220  0.68970  0.49760  Biso   1.000  H
  H322     1.0000 0.92780  0.68970  0.00240  Biso   1.000  H
  H323     1.0000 0.57220  0.18970  0.49760  Biso   1.000  H
  H324     1.0000 0.42780  0.18970  0.00240  Biso   1.000  H
  H325     1.0000 0.92780  0.31030  0.50240  Biso   1.000  H
  H326     1.0000 0.07220  0.31030  0.99760  Biso   1.000  H
  H327     1.0000 0.42780  0.81030  0.50240  Biso   1.000  H
  H328     1.0000 0.57220  0.81030  0.99760  Biso   1.000  H
  H329     1.0000 0.08020  0.63220  0.54110  Biso   1.000  H
  H330     1.0000 0.91980  0.63220  0.95890  Biso   1.000  H
  H331     1.0000 0.58020  0.13220  0.54110  Biso   1.000  H
  H332     1.0000 0.41980  0.13220  0.95890  Biso   1.000  H
  H333     1.0000 0.91980  0.36780  0.45890  Biso   1.000  H
  H334     1.0000 0.08020  0.36780  0.04110  Biso   1.000  H
  H335     1.0000 0.41980  0.86780  0.45890  Biso   1.000  H
  H336     1.0000 0.58020  0.86780  0.04110  Biso   1.000  H
  C345     1.0000 0.04310  0.59650  0.47720  Biso   1.000  C
  C346     1.0000 0.95690  0.59650  0.02280  Biso   1.000  C
  C347     1.0000 0.54310  0.09650  0.47720  Biso   1.000  C
  C348     1.0000 0.45690  0.09650  0.02280  Biso   1.000  C
  C349     1.0000 0.95690  0.40350  0.52280  Biso   1.000  C
  C350     1.0000 0.04310  0.40350  0.97720  Biso   1.000  C
  C351     1.0000 0.45690  0.90350  0.52280  Biso   1.000  C
  C352     1.0000 0.54310  0.90350  0.97720  Biso   1.000  C
  C353     1.0000 0.00930  0.62530  0.46290  Biso   1.000  C
  C354     1.0000 0.99070  0.62530  0.03710  Biso   1.000  C
  C355     1.0000 0.50930  0.12530  0.46290  Biso   1.000  C
  C356     1.0000 0.49070  0.12530  0.03710  Biso   1.000  C
  C357     1.0000 0.99070  0.37470  0.53710  Biso   1.000  C
  C358     1.0000 0.00930  0.37470  0.96290  Biso   1.000  C
  C359     1.0000 0.49070  0.87470  0.53710  Biso   1.000  C
  C360     1.0000 0.50930  0.87470  0.96290  Biso   1.000  C
  H337     1.0000 0.00530  0.67390  0.46930  Biso   1.000  H
  H338     1.0000 0.99470  0.67390  0.03070  Biso   1.000  H
  H339     1.0000 0.50530  0.17390  0.46930  Biso   1.000  H
  H340     1.0000 0.49470  0.17390  0.03070  Biso   1.000  H
  H341     1.0000 0.99470  0.32610  0.53070  Biso   1.000  H
  H342     1.0000 0.00530  0.32610  0.96930  Biso   1.000  H
  H343     1.0000 0.49470  0.82610  0.53070  Biso   1.000  H
  H344     1.0000 0.50530  0.82610  0.96930  Biso   1.000  H
  C361     1.0000 0.98120  0.57930  0.43860  Biso   1.000  C
  C362     1.0000 0.01880  0.57930  0.06140  Biso   1.000  C
  C363     1.0000 0.48120  0.07930  0.43860  Biso   1.000  C
  C364     1.0000 0.51880  0.07930  0.06140  Biso   1.000  C
  C365     1.0000 0.01880  0.42070  0.56140  Biso   1.000  C
  C366     1.0000 0.98120  0.42070  0.93860  Biso   1.000  C
  C367     1.0000 0.51880  0.92070  0.56140  Biso   1.000  C
  C368     1.0000 0.48120  0.92070  0.93860  Biso   1.000  C
  H345     1.0000 0.95780  0.59660  0.42950  Biso   1.000  H
  H346     1.0000 0.04220  0.59660  0.07050  Biso   1.000  H
  H347     1.0000 0.45780  0.09660  0.42950  Biso   1.000  H
  H348     1.0000 0.54220  0.09660  0.07050  Biso   1.000  H
  H349     1.0000 0.04220  0.40340  0.57050  Biso   1.000  H
  H350     1.0000 0.95780  0.40340  0.92950  Biso   1.000  H
  H351     1.0000 0.54220  0.90340  0.57050  Biso   1.000  H
  H352     1.0000 0.45780  0.90340  0.92950  Biso   1.000  H
  C369     1.0000 0.98750  0.50930  0.42770  Biso   1.000  C
  C370     1.0000 0.01250  0.50930  0.07230  Biso   1.000  C
  C371     1.0000 0.48750  0.00930  0.42770  Biso   1.000  C
  C372     1.0000 0.51250  0.00930  0.07230  Biso   1.000  C
  C373     1.0000 0.01250  0.49070  0.57230  Biso   1.000  C
  C374     1.0000 0.98750  0.49070  0.92770  Biso   1.000  C
  C375     1.0000 0.51250  0.99070  0.57230  Biso   1.000  C
  C376     1.0000 0.48750  0.99070  0.92770  Biso   1.000  C
  H353     1.0000 0.96860  0.47890  0.41050  Biso   1.000  H
  H354     1.0000 0.03140  0.47890  0.08950  Biso   1.000  H
  H355     1.0000 0.46860  0.97890  0.41050  Biso   1.000  H
  H356     1.0000 0.53140  0.97890  0.08950  Biso   1.000  H
  H357     1.0000 0.03140  0.52110  0.58950  Biso   1.000  H
  H358     1.0000 0.96860  0.52110  0.91050  Biso   1.000  H
  H359     1.0000 0.53140  0.02110  0.58950  Biso   1.000  H
  H360     1.0000 0.46860  0.02110  0.91050  Biso   1.000  H
  C377     1.0000 0.02160  0.48470  0.44240  Biso   1.000  C
  C378     1.0000 0.97840  0.48470  0.05760  Biso   1.000  C
  C379     1.0000 0.52160  0.98470  0.44240  Biso   1.000  C
  C380     1.0000 0.47840  0.98470  0.05760  Biso   1.000  C
  C381     1.0000 0.97840  0.51530  0.55760  Biso   1.000  C
  C382     1.0000 0.02160  0.51530  0.94240  Biso   1.000  C
  C383     1.0000 0.47840  0.01530  0.55760  Biso   1.000  C
  C384     1.0000 0.52160  0.01530  0.94240  Biso   1.000  C
  H361     1.0000 0.02580  0.43640  0.43530  Biso   1.000  H
  H362     1.0000 0.97420  0.43640  0.06470  Biso   1.000  H
  H363     1.0000 0.52580  0.93640  0.43530  Biso   1.000  H
  H364     1.0000 0.47420  0.93640  0.06470  Biso   1.000  H
  H365     1.0000 0.97420  0.56360  0.56470  Biso   1.000  H
  H366     1.0000 0.02580  0.56360  0.93530  Biso   1.000  H
  H367     1.0000 0.47420  0.06360  0.56470  Biso   1.000  H
  H368     1.0000 0.52580  0.06360  0.93530  Biso   1.000  H
  C385     1.0000 0.10620  0.63630  0.44220  Biso   1.000  C
  C386     1.0000 0.89380  0.63630  0.05780  Biso   1.000  C
  C387     1.0000 0.60620  0.13630  0.44220  Biso   1.000  C
  C388     1.0000 0.39380  0.13630  0.05780  Biso   1.000  C
  C389     1.0000 0.89380  0.36370  0.55780  Biso   1.000  C
  C390     1.0000 0.10620  0.36370  0.94220  Biso   1.000  C
  C391     1.0000 0.39380  0.86370  0.55780  Biso   1.000  C
  C392     1.0000 0.60620  0.86370  0.94220  Biso   1.000  C
  H369     1.0000 0.08330  0.62230  0.41810  Biso   1.000  H
  H370     1.0000 0.91670  0.62230  0.08190  Biso   1.000  H
  H371     1.0000 0.58330  0.12230  0.41810  Biso   1.000  H
  H372     1.0000 0.41670  0.12230  0.08190  Biso   1.000  H
  H373     1.0000 0.91670  0.37770  0.58190  Biso   1.000  H
  H374     1.0000 0.08330  0.37770  0.91810  Biso   1.000  H
  H375     1.0000 0.41670  0.87770  0.58190  Biso   1.000  H
  H376     1.0000 0.58330  0.87770  0.91810  Biso   1.000  H
  H377     1.0000 0.12490  0.61070  0.43350  Biso   1.000  H
  H378     1.0000 0.87510  0.61070  0.06650  Biso   1.000  H
  H379     1.0000 0.62490  0.11070  0.43350  Biso   1.000  H
  H380     1.0000 0.37510  0.11070  0.06650  Biso   1.000  H
  H381     1.0000 0.87510  0.38930  0.56650  Biso   1.000  H
  H382     1.0000 0.12490  0.38930  0.93350  Biso   1.000  H
  H383     1.0000 0.37510  0.88930  0.56650  Biso   1.000  H
  H384     1.0000 0.62490  0.88930  0.93350  Biso   1.000  H
  C393     1.0000 0.11130  0.71700  0.43800  Biso   1.000  C
  C394     1.0000 0.88870  0.71700  0.06200  Biso   1.000  C
  C395     1.0000 0.61130  0.21700  0.43800  Biso   1.000  C
  C396     1.0000 0.38870  0.21700  0.06200  Biso   1.000  C
  C397     1.0000 0.88870  0.28300  0.56200  Biso   1.000  C
  C398     1.0000 0.11130  0.28300  0.93800  Biso   1.000  C
  C399     1.0000 0.38870  0.78300  0.56200  Biso   1.000  C
  C400     1.0000 0.61130  0.78300  0.93800  Biso   1.000  C
  C401     1.0000 0.08230  0.76280  0.42830  Biso   1.000  C
  C402     1.0000 0.91770  0.76280  0.07170  Biso   1.000  C
  C403     1.0000 0.58230  0.26280  0.42830  Biso   1.000  C
  C404     1.0000 0.41770  0.26280  0.07170  Biso   1.000  C
  C405     1.0000 0.91770  0.23720  0.57170  Biso   1.000  C
  C406     1.0000 0.08230  0.23720  0.92830  Biso   1.000  C
  C407     1.0000 0.41770  0.73720  0.57170  Biso   1.000  C
  C408     1.0000 0.58230  0.73720  0.92830  Biso   1.000  C
  H385     1.0000 0.05940  0.74300  0.42090  Biso   1.000  H
  H386     1.0000 0.94060  0.74300  0.07910  Biso   1.000  H
  H387     1.0000 0.55940  0.24300  0.42090  Biso   1.000  H
  H388     1.0000 0.44060  0.24300  0.07910  Biso   1.000  H
  H389     1.0000 0.94060  0.25700  0.57910  Biso   1.000  H
  H390     1.0000 0.05940  0.25700  0.92090  Biso   1.000  H
  H391     1.0000 0.44060  0.75700  0.57910  Biso   1.000  H
  H392     1.0000 0.55940  0.75700  0.92090  Biso   1.000  H
  C409     1.0000 0.08650  0.83860  0.42920  Biso   1.000  C
  C410     1.0000 0.91350  0.83860  0.07080  Biso   1.000  C
  C411     1.0000 0.58650  0.33860  0.42920  Biso   1.000  C
  C412     1.0000 0.41350  0.33860  0.07080  Biso   1.000  C
  C413     1.0000 0.91350  0.16140  0.57080  Biso   1.000  C
  C414     1.0000 0.08650  0.16140  0.92920  Biso   1.000  C
  C415     1.0000 0.41350  0.66140  0.57080  Biso   1.000  C
  C416     1.0000 0.58650  0.66140  0.92920  Biso   1.000  C
  H393     1.0000 0.06630  0.86820  0.42130  Biso   1.000  H
  H394     1.0000 0.93370  0.86820  0.07870  Biso   1.000  H
  H395     1.0000 0.56630  0.36820  0.42130  Biso   1.000  H
  H396     1.0000 0.43370  0.36820  0.07870  Biso   1.000  H
  H397     1.0000 0.93370  0.13180  0.57870  Biso   1.000  H
  H398     1.0000 0.06630  0.13180  0.92130  Biso   1.000  H
  H399     1.0000 0.43370  0.63180  0.57870  Biso   1.000  H
  H400     1.0000 0.56630  0.63180  0.92130  Biso   1.000  H
  C417     1.0000 0.12010  0.87090  0.44170  Biso   1.000  C
  C418     1.0000 0.87990  0.87090  0.05830  Biso   1.000  C
  C419     1.0000 0.62010  0.37090  0.44170  Biso   1.000  C
  C420     1.0000 0.37990  0.37090  0.05830  Biso   1.000  C
  C421     1.0000 0.87990  0.12910  0.55830  Biso   1.000  C
  C422     1.0000 0.12010  0.12910  0.94170  Biso   1.000  C
  C423     1.0000 0.37990  0.62910  0.55830  Biso   1.000  C
  C424     1.0000 0.62010  0.62910  0.94170  Biso   1.000  C
  C425     1.0000 0.15020  0.82530  0.44620  Biso   1.000  C
  C426     1.0000 0.84980  0.82530  0.05380  Biso   1.000  C
  C427     1.0000 0.65020  0.32530  0.44620  Biso   1.000  C
  C428     1.0000 0.34980  0.32530  0.05380  Biso   1.000  C
  C429     1.0000 0.84980  0.17470  0.55380  Biso   1.000  C
  C430     1.0000 0.15020  0.17470  0.94620  Biso   1.000  C
  C431     1.0000 0.34980  0.67470  0.55380  Biso   1.000  C
  C432     1.0000 0.65020  0.67470  0.94620  Biso   1.000  C
  C433     1.0000 0.18470  0.85350  0.45150  Biso   1.000  C
  C434     1.0000 0.81530  0.85350  0.04850  Biso   1.000  C
  C435     1.0000 0.68470  0.35350  0.45150  Biso   1.000  C
  C436     1.0000 0.31530  0.35350  0.04850  Biso   1.000  C
  C437     1.0000 0.81530  0.14650  0.54850  Biso   1.000  C
  C438     1.0000 0.18470  0.14650  0.95150  Biso   1.000  C
  C439     1.0000 0.31530  0.64650  0.54850  Biso   1.000  C
  C440     1.0000 0.68470  0.64650  0.95150  Biso   1.000  C
  H401     1.0000 0.18860  0.90380  0.45460  Biso   1.000  H
  H402     1.0000 0.81140  0.90380  0.04540  Biso   1.000  H
  H403     1.0000 0.68860  0.40380  0.45460  Biso   1.000  H
  H404     1.0000 0.31140  0.40380  0.04540  Biso   1.000  H
  H405     1.0000 0.81140  0.09620  0.54540  Biso   1.000  H
  H406     1.0000 0.18860  0.09620  0.95460  Biso   1.000  H
  H407     1.0000 0.31140  0.59620  0.54540  Biso   1.000  H
  H408     1.0000 0.68860  0.59620  0.95460  Biso   1.000  H
  C441     1.0000 0.21170  0.81000  0.45200  Biso   1.000  C
  C442     1.0000 0.78830  0.81000  0.04800  Biso   1.000  C
  C443     1.0000 0.71170  0.31000  0.45200  Biso   1.000  C
  C444     1.0000 0.28830  0.31000  0.04800  Biso   1.000  C
  C445     1.0000 0.78830  0.19000  0.54800  Biso   1.000  C
  C446     1.0000 0.21170  0.19000  0.95200  Biso   1.000  C
  C447     1.0000 0.28830  0.69000  0.54800  Biso   1.000  C
  C448     1.0000 0.71170  0.69000  0.95200  Biso   1.000  C
  H409     1.0000 0.23380  0.83050  0.45420  Biso   1.000  H
  H410     1.0000 0.76620  0.83050  0.04580  Biso   1.000  H
  H411     1.0000 0.73380  0.33050  0.45420  Biso   1.000  H
  H412     1.0000 0.26620  0.33050  0.04580  Biso   1.000  H
  H413     1.0000 0.76620  0.16950  0.54580  Biso   1.000  H
  H414     1.0000 0.23380  0.16950  0.95420  Biso   1.000  H
  H415     1.0000 0.26620  0.66950  0.54580  Biso   1.000  H
  H416     1.0000 0.73380  0.66950  0.95420  Biso   1.000  H
  C449     1.0000 0.20790  0.73430  0.44940  Biso   1.000  C
  C450     1.0000 0.79210  0.73430  0.05060  Biso   1.000  C
  C451     1.0000 0.70790  0.23430  0.44940  Biso   1.000  C
  C452     1.0000 0.29210  0.23430  0.05060  Biso   1.000  C
  C453     1.0000 0.79210  0.26570  0.55060  Biso   1.000  C
  C454     1.0000 0.20790  0.26570  0.94940  Biso   1.000  C
  C455     1.0000 0.29210  0.76570  0.55060  Biso   1.000  C
  C456     1.0000 0.70790  0.76570  0.94940  Biso   1.000  C
  H417     1.0000 0.22730  0.70480  0.45010  Biso   1.000  H
  H418     1.0000 0.77270  0.70480  0.04990  Biso   1.000  H
  H419     1.0000 0.72730  0.20480  0.45010  Biso   1.000  H
  H420     1.0000 0.27270  0.20480  0.04990  Biso   1.000  H
  H421     1.0000 0.77270  0.29520  0.54990  Biso   1.000  H
  H422     1.0000 0.22730  0.29520  0.95010  Biso   1.000  H
  H423     1.0000 0.27270  0.79520  0.54990  Biso   1.000  H
  H424     1.0000 0.72730  0.79520  0.95010  Biso   1.000  H
  C457     1.0000 0.17560  0.70340  0.44570  Biso   1.000  C
  C458     1.0000 0.82440  0.70340  0.05430  Biso   1.000  C
  C459     1.0000 0.67560  0.20340  0.44570  Biso   1.000  C
  C460     1.0000 0.32440  0.20340  0.05430  Biso   1.000  C
  C461     1.0000 0.82440  0.29660  0.55430  Biso   1.000  C
  C462     1.0000 0.17560  0.29660  0.94570  Biso   1.000  C
  C463     1.0000 0.32440  0.79660  0.55430  Biso   1.000  C
  C464     1.0000 0.67560  0.79660  0.94570  Biso   1.000  C
  H425     1.0000 0.17300  0.65270  0.44400  Biso   1.000  H
  H426     1.0000 0.82700  0.65270  0.05600  Biso   1.000  H
  H427     1.0000 0.67300  0.15270  0.44400  Biso   1.000  H
  H428     1.0000 0.32700  0.15270  0.05600  Biso   1.000  H
  H429     1.0000 0.82700  0.34730  0.55600  Biso   1.000  H
  H430     1.0000 0.17300  0.34730  0.94400  Biso   1.000  H
  H431     1.0000 0.32700  0.84730  0.55600  Biso   1.000  H
  H432     1.0000 0.67300  0.84730  0.94400  Biso   1.000  H
  C465     1.0000 0.14580  0.74790  0.44440  Biso   1.000  C
  C466     1.0000 0.85420  0.74790  0.05560  Biso   1.000  C
  C467     1.0000 0.64580  0.24790  0.44440  Biso   1.000  C
  C468     1.0000 0.35420  0.24790  0.05560  Biso   1.000  C
  C469     1.0000 0.85420  0.25210  0.55560  Biso   1.000  C
  C470     1.0000 0.14580  0.25210  0.94440  Biso   1.000  C
  C471     1.0000 0.35420  0.75210  0.55560  Biso   1.000  C
  C472     1.0000 0.64580  0.75210  0.94440  Biso   1.000  C
  C473     1.0000 0.12320  0.95260  0.44980  Biso   1.000  C
  C474     1.0000 0.87680  0.95260  0.05020  Biso   1.000  C
  C475     1.0000 0.62320  0.45260  0.44980  Biso   1.000  C
  C476     1.0000 0.37680  0.45260  0.05020  Biso   1.000  C
  C477     1.0000 0.87680  0.04740  0.55020  Biso   1.000  C
  C478     1.0000 0.12320  0.04740  0.94980  Biso   1.000  C
  C479     1.0000 0.37680  0.54740  0.55020  Biso   1.000  C
  C480     1.0000 0.62320  0.54740  0.94980  Biso   1.000  C
  H433     1.0000 0.10250  0.97590  0.42610  Biso   1.000  H
  H434     1.0000 0.89750  0.97590  0.07390  Biso   1.000  H
  H435     1.0000 0.60250  0.47590  0.42610  Biso   1.000  H
  H436     1.0000 0.39750  0.47590  0.07390  Biso   1.000  H
  H437     1.0000 0.89750  0.02410  0.57390  Biso   1.000  H
  H438     1.0000 0.10250  0.02410  0.92610  Biso   1.000  H
  H439     1.0000 0.39750  0.52410  0.57390  Biso   1.000  H
  H440     1.0000 0.60250  0.52410  0.92610  Biso   1.000  H
  H441     1.0000 0.14440  0.96980  0.44300  Biso   1.000  H
  H442     1.0000 0.85560  0.96980  0.05700  Biso   1.000  H
  H443     1.0000 0.64440  0.46980  0.44300  Biso   1.000  H
  H444     1.0000 0.35560  0.46980  0.05700  Biso   1.000  H
  H445     1.0000 0.85560  0.03020  0.55700  Biso   1.000  H
  H446     1.0000 0.14440  0.03020  0.94300  Biso   1.000  H
  H447     1.0000 0.35560  0.53020  0.55700  Biso   1.000  H
  H448     1.0000 0.64440  0.53020  0.94300  Biso   1.000  H
  C481     1.0000 0.05740  0.14080  0.45460  Biso   1.000  C
  C482     1.0000 0.94260  0.14080  0.04540  Biso   1.000  C
  C483     1.0000 0.55740  0.64080  0.45460  Biso   1.000  C
  C484     1.0000 0.44260  0.64080  0.04540  Biso   1.000  C
  C485     1.0000 0.94260  0.85920  0.54540  Biso   1.000  C
  C486     1.0000 0.05740  0.85920  0.95460  Biso   1.000  C
  C487     1.0000 0.44260  0.35920  0.54540  Biso   1.000  C
  C488     1.0000 0.55740  0.35920  0.95460  Biso   1.000  C
  H449     1.0000 0.06690  0.18620  0.45080  Biso   1.000  H
  H450     1.0000 0.93310  0.18620  0.04920  Biso   1.000  H
  H451     1.0000 0.56690  0.68620  0.45080  Biso   1.000  H
  H452     1.0000 0.43310  0.68620  0.04920  Biso   1.000  H
  H453     1.0000 0.93310  0.81380  0.54920  Biso   1.000  H
  H454     1.0000 0.06690  0.81380  0.95080  Biso   1.000  H
  H455     1.0000 0.43310  0.31380  0.54920  Biso   1.000  H
  H456     1.0000 0.56690  0.31380  0.95080  Biso   1.000  H
  C489     1.0000 0.02120  0.12870  0.43560  Biso   1.000  C
  C490     1.0000 0.97880  0.12870  0.06440  Biso   1.000  C
  C491     1.0000 0.52120  0.62870  0.43560  Biso   1.000  C
  C492     1.0000 0.47880  0.62870  0.06440  Biso   1.000  C
  C493     1.0000 0.97880  0.87130  0.56440  Biso   1.000  C
  C494     1.0000 0.02120  0.87130  0.93560  Biso   1.000  C
  C495     1.0000 0.47880  0.37130  0.56440  Biso   1.000  C
  C496     1.0000 0.52120  0.37130  0.93560  Biso   1.000  C
  H457     1.0000 0.00640  0.16760  0.42030  Biso   1.000  H
  H458     1.0000 0.99360  0.16760  0.07970  Biso   1.000  H
  H459     1.0000 0.50640  0.66760  0.42030  Biso   1.000  H
  H460     1.0000 0.49360  0.66760  0.07970  Biso   1.000  H
  H461     1.0000 0.99360  0.83240  0.57970  Biso   1.000  H
  H462     1.0000 0.00640  0.83240  0.92030  Biso   1.000  H
  H463     1.0000 0.49360  0.33240  0.57970  Biso   1.000  H
  H464     1.0000 0.50640  0.33240  0.92030  Biso   1.000  H
  C497     1.0000 0.00570  0.06310  0.43780  Biso   1.000  C
  C498     1.0000 0.99430  0.06310  0.06220  Biso   1.000  C
  C499     1.0000 0.50570  0.56310  0.43780  Biso   1.000  C
  C500     1.0000 0.49430  0.56310  0.06220  Biso   1.000  C
  C501     1.0000 0.99430  0.93690  0.56220  Biso   1.000  C
  C502     1.0000 0.00570  0.93690  0.93780  Biso   1.000  C
  C503     1.0000 0.49430  0.43690  0.56220  Biso   1.000  C
  C504     1.0000 0.50570  0.43690  0.93780  Biso   1.000  C
  H465     1.0000 0.98100  0.05650  0.42400  Biso   1.000  H
  H466     1.0000 0.01900  0.05650  0.07600  Biso   1.000  H
  H467     1.0000 0.48100  0.55650  0.42400  Biso   1.000  H
  H468     1.0000 0.51900  0.55650  0.07600  Biso   1.000  H
  H469     1.0000 0.01900  0.94350  0.57600  Biso   1.000  H
  H470     1.0000 0.98100  0.94350  0.92400  Biso   1.000  H
  H471     1.0000 0.51900  0.44350  0.57600  Biso   1.000  H
  H472     1.0000 0.48100  0.44350  0.92400  Biso   1.000  H
  C505     1.0000 0.02830  0.00570  0.46170  Biso   1.000  C
  C506     1.0000 0.97170  0.00570  0.03830  Biso   1.000  C
  C507     1.0000 0.52830  0.50570  0.46170  Biso   1.000  C
  C508     1.0000 0.47170  0.50570  0.03830  Biso   1.000  C
  C509     1.0000 0.97170  0.99430  0.53830  Biso   1.000  C
  C510     1.0000 0.02830  0.99430  0.96170  Biso   1.000  C
  C511     1.0000 0.47170  0.49430  0.53830  Biso   1.000  C
  C512     1.0000 0.52830  0.49430  0.96170  Biso   1.000  C
  H473     1.0000 0.01890  0.95950  0.46390  Biso   1.000  H
  H474     1.0000 0.98110  0.95950  0.03610  Biso   1.000  H
  H475     1.0000 0.51890  0.45950  0.46390  Biso   1.000  H
  H476     1.0000 0.48110  0.45950  0.03610  Biso   1.000  H
  H477     1.0000 0.98110  0.04050  0.53610  Biso   1.000  H
  H478     1.0000 0.01890  0.04050  0.96390  Biso   1.000  H
  H479     1.0000 0.48110  0.54050  0.53610  Biso   1.000  H
  H480     1.0000 0.51890  0.54050  0.96390  Biso   1.000  H
  C513     1.0000 0.06410  0.01850  0.48170  Biso   1.000  C
  C514     1.0000 0.93590  0.01850  0.01830  Biso   1.000  C
  C515     1.0000 0.56410  0.51850  0.48170  Biso   1.000  C
  C516     1.0000 0.43590  0.51850  0.01830  Biso   1.000  C
  C517     1.0000 0.93590  0.98150  0.51830  Biso   1.000  C
  C518     1.0000 0.06410  0.98150  0.98170  Biso   1.000  C
  C519     1.0000 0.43590  0.48150  0.51830  Biso   1.000  C
  C520     1.0000 0.56410  0.48150  0.98170  Biso   1.000  C
  C521     1.0000 0.09060  0.96350  0.51140  Biso   1.000  C
  C522     1.0000 0.90940  0.96350  0.98860  Biso   1.000  C
  C523     1.0000 0.59060  0.46350  0.51140  Biso   1.000  C
  C524     1.0000 0.40940  0.46350  0.98860  Biso   1.000  C
  C525     1.0000 0.90940  0.03650  0.48860  Biso   1.000  C
  C526     1.0000 0.09060  0.03650  0.01140  Biso   1.000  C
  C527     1.0000 0.40940  0.53650  0.48860  Biso   1.000  C
  C528     1.0000 0.59060  0.53650  0.01140  Biso   1.000  C
  H481     1.0000 0.08200  0.91430  0.50130  Biso   1.000  H
  H482     1.0000 0.91800  0.91430  0.99870  Biso   1.000  H
  H483     1.0000 0.58200  0.41430  0.50130  Biso   1.000  H
  H484     1.0000 0.41800  0.41430  0.99870  Biso   1.000  H
  H485     1.0000 0.91800  0.08570  0.49870  Biso   1.000  H
  H486     1.0000 0.08200  0.08570  0.00130  Biso   1.000  H
  H487     1.0000 0.41800  0.58570  0.49870  Biso   1.000  H
  H488     1.0000 0.58200  0.58570  0.00130  Biso   1.000  H
  H489     1.0000 0.09380  0.96900  0.54660  Biso   1.000  H
  H490     1.0000 0.90620  0.96900  0.95340  Biso   1.000  H
  H491     1.0000 0.59380  0.46900  0.54660  Biso   1.000  H
  H492     1.0000 0.40620  0.46900  0.95340  Biso   1.000  H
  H493     1.0000 0.90620  0.03100  0.45340  Biso   1.000  H
  H494     1.0000 0.09380  0.03100  0.04660  Biso   1.000  H
  H495     1.0000 0.40620  0.53100  0.45340  Biso   1.000  H
  H496     1.0000 0.59380  0.53100  0.04660  Biso   1.000  H
  C529     1.0000 0.15590  0.94360  0.54130  Biso   1.000  C
  C530     1.0000 0.84410  0.94360  0.95870  Biso   1.000  C
  C531     1.0000 0.65590  0.44360  0.54130  Biso   1.000  C
  C532     1.0000 0.34410  0.44360  0.95870  Biso   1.000  C
  C533     1.0000 0.84410  0.05640  0.45870  Biso   1.000  C
  C534     1.0000 0.15590  0.05640  0.04130  Biso   1.000  C
  C535     1.0000 0.34410  0.55640  0.45870  Biso   1.000  C
  C536     1.0000 0.65590  0.55640  0.04130  Biso   1.000  C
  H497     1.0000 0.15960  0.89340  0.53270  Biso   1.000  H
  H498     1.0000 0.84040  0.89340  0.96730  Biso   1.000  H
  H499     1.0000 0.65960  0.39340  0.53270  Biso   1.000  H
  H500     1.0000 0.34040  0.39340  0.96730  Biso   1.000  H
  H501     1.0000 0.84040  0.10660  0.46730  Biso   1.000  H
  H502     1.0000 0.15960  0.10660  0.03270  Biso   1.000  H
  H503     1.0000 0.34040  0.60660  0.46730  Biso   1.000  H
  H504     1.0000 0.65960  0.60660  0.03270  Biso   1.000  H
  H505     1.0000 0.15110  0.94330  0.57280  Biso   1.000  H
  H506     1.0000 0.84890  0.94330  0.92720  Biso   1.000  H
  H507     1.0000 0.65110  0.44330  0.57280  Biso   1.000  H
  H508     1.0000 0.34890  0.44330  0.92720  Biso   1.000  H
  H509     1.0000 0.84890  0.05670  0.42720  Biso   1.000  H
  H510     1.0000 0.15110  0.05670  0.07280  Biso   1.000  H
  H511     1.0000 0.34890  0.55670  0.42720  Biso   1.000  H
  H512     1.0000 0.65110  0.55670  0.07280  Biso   1.000  H
  C537     1.0000 0.18850  0.98790  0.54600  Biso   1.000  C
  C538     1.0000 0.81150  0.98790  0.95400  Biso   1.000  C
  C539     1.0000 0.68850  0.48790  0.54600  Biso   1.000  C
  C540     1.0000 0.31150  0.48790  0.95400  Biso   1.000  C
  C541     1.0000 0.81150  0.01210  0.45400  Biso   1.000  C
  C542     1.0000 0.18850  0.01210  0.04600  Biso   1.000  C
  C543     1.0000 0.31150  0.51210  0.45400  Biso   1.000  C
  C544     1.0000 0.68850  0.51210  0.04600  Biso   1.000  C
  C545     1.0000 0.22260  0.95860  0.56160  Biso   1.000  C
  C546     1.0000 0.77740  0.95860  0.93840  Biso   1.000  C
  C547     1.0000 0.72260  0.45860  0.56160  Biso   1.000  C
  C548     1.0000 0.27740  0.45860  0.93840  Biso   1.000  C
  C549     1.0000 0.77740  0.04140  0.43840  Biso   1.000  C
  C550     1.0000 0.22260  0.04140  0.06160  Biso   1.000  C
  C551     1.0000 0.27740  0.54140  0.43840  Biso   1.000  C
  C552     1.0000 0.72260  0.54140  0.06160  Biso   1.000  C
  H513     1.0000 0.22610  0.90870  0.56780  Biso   1.000  H
  H514     1.0000 0.77390  0.90870  0.93220  Biso   1.000  H
  H515     1.0000 0.72610  0.40870  0.56780  Biso   1.000  H
  H516     1.0000 0.27390  0.40870  0.93220  Biso   1.000  H
  H517     1.0000 0.77390  0.09130  0.43220  Biso   1.000  H
  H518     1.0000 0.22610  0.09130  0.06780  Biso   1.000  H
  H519     1.0000 0.27390  0.59130  0.43220  Biso   1.000  H
  H520     1.0000 0.72610  0.59130  0.06780  Biso   1.000  H
  C553     1.0000 0.25080  0.00310  0.56780  Biso   1.000  C
  C554     1.0000 0.74920  0.00310  0.93220  Biso   1.000  C
  C555     1.0000 0.75080  0.50310  0.56780  Biso   1.000  C
  C556     1.0000 0.24920  0.50310  0.93220  Biso   1.000  C
  C557     1.0000 0.74920  0.99690  0.43220  Biso   1.000  C
  C558     1.0000 0.25080  0.99690  0.06780  Biso   1.000  C
  C559     1.0000 0.24920  0.49690  0.43220  Biso   1.000  C
  C560     1.0000 0.75080  0.49690  0.06780  Biso   1.000  C
  H521     1.0000 0.27390  0.98390  0.57860  Biso   1.000  H
  H522     1.0000 0.72610  0.98390  0.92140  Biso   1.000  H
  H523     1.0000 0.77390  0.48390  0.57860  Biso   1.000  H
  H524     1.0000 0.22610  0.48390  0.92140  Biso   1.000  H
  H525     1.0000 0.72610  0.01610  0.42140  Biso   1.000  H
  H526     1.0000 0.27390  0.01610  0.07860  Biso   1.000  H
  H527     1.0000 0.22610  0.51610  0.42140  Biso   1.000  H
  H528     1.0000 0.77390  0.51610  0.07860  Biso   1.000  H
  C561     1.0000 0.24590  0.07710  0.55820  Biso   1.000  C
  C562     1.0000 0.75410  0.07710  0.94180  Biso   1.000  C
  C563     1.0000 0.74590  0.57710  0.55820  Biso   1.000  C
  C564     1.0000 0.25410  0.57710  0.94180  Biso   1.000  C
  C565     1.0000 0.75410  0.92290  0.44180  Biso   1.000  C
  C566     1.0000 0.24590  0.92290  0.05820  Biso   1.000  C
  C567     1.0000 0.25410  0.42290  0.44180  Biso   1.000  C
  C568     1.0000 0.74590  0.42290  0.05820  Biso   1.000  C
  H529     1.0000 0.26540  0.10830  0.56250  Biso   1.000  H
  H530     1.0000 0.73460  0.10830  0.93750  Biso   1.000  H
  H531     1.0000 0.76540  0.60830  0.56250  Biso   1.000  H
  H532     1.0000 0.23460  0.60830  0.93750  Biso   1.000  H
  H533     1.0000 0.73460  0.89170  0.43750  Biso   1.000  H
  H534     1.0000 0.26540  0.89170  0.06250  Biso   1.000  H
  H535     1.0000 0.23460  0.39170  0.43750  Biso   1.000  H
  H536     1.0000 0.76540  0.39170  0.06250  Biso   1.000  H
  C569     1.0000 0.21130  0.10320  0.54210  Biso   1.000  C
  C570     1.0000 0.78870  0.10320  0.95790  Biso   1.000  C
  C571     1.0000 0.71130  0.60320  0.54210  Biso   1.000  C
  C572     1.0000 0.28870  0.60320  0.95790  Biso   1.000  C
  C573     1.0000 0.78870  0.89680  0.45790  Biso   1.000  C
  C574     1.0000 0.21130  0.89680  0.04210  Biso   1.000  C
  C575     1.0000 0.28870  0.39680  0.45790  Biso   1.000  C
  C576     1.0000 0.71130  0.39680  0.04210  Biso   1.000  C
  H537     1.0000 0.20750  0.15300  0.53560  Biso   1.000  H
  H538     1.0000 0.79250  0.15300  0.96440  Biso   1.000  H
  H539     1.0000 0.70750  0.65300  0.53560  Biso   1.000  H
  H540     1.0000 0.29250  0.65300  0.96440  Biso   1.000  H
  H541     1.0000 0.79250  0.84700  0.46440  Biso   1.000  H
  H542     1.0000 0.20750  0.84700  0.03560  Biso   1.000  H
  H543     1.0000 0.29250  0.34700  0.46440  Biso   1.000  H
  H544     1.0000 0.70750  0.34700  0.03560  Biso   1.000  H
  Cl1      1.0000 0.12018  0.48716  0.62225  Biso   1.000  Cl
  Cl2      1.0000 0.87982  0.48716  0.87775  Biso   1.000  Cl
  Cl3      1.0000 0.62018  0.98716  0.62225  Biso   1.000  Cl
  Cl4      1.0000 0.37982  0.98716  0.87775  Biso   1.000  Cl
  Cl5      1.0000 0.87982  0.51284  0.37775  Biso   1.000  Cl
  Cl6      1.0000 0.12018  0.51284  0.12225  Biso   1.000  Cl
  Cl7      1.0000 0.37982  0.01284  0.37775  Biso   1.000  Cl
  Cl8      1.0000 0.62018  0.01284  0.12225  Biso   1.000  Cl
  Cl9      1.0000 0.12464  0.52669  0.87322  Biso   1.000  Cl
  Cl10     1.0000 0.87536  0.52669  0.62678  Biso   1.000  Cl
  Cl11     1.0000 0.62464  0.02669  0.87322  Biso   1.000  Cl
  Cl12     1.0000 0.37536  0.02669  0.62678  Biso   1.000  Cl
  Cl13     1.0000 0.87536  0.47331  0.12678  Biso   1.000  Cl
  Cl14     1.0000 0.12464  0.47331  0.37322  Biso   1.000  Cl
  Cl15     1.0000 0.37536  0.97331  0.12678  Biso   1.000  Cl
  Cl16     1.0000 0.62464  0.97331  0.37322  Biso   1.000  Cl
  Cl17     1.0000 0.17444  0.88276  0.90342  Biso   1.000  Cl
  Cl18     1.0000 0.82556  0.88276  0.59658  Biso   1.000  Cl
  Cl19     1.0000 0.67444  0.38276  0.90342  Biso   1.000  Cl
  Cl20     1.0000 0.32556  0.38276  0.59658  Biso   1.000  Cl
  Cl21     1.0000 0.82556  0.11724  0.09658  Biso   1.000  Cl
  Cl22     1.0000 0.17444  0.11724  0.40342  Biso   1.000  Cl
  Cl23     1.0000 0.32556  0.61724  0.09658  Biso   1.000  Cl
  Cl24     1.0000 0.67444  0.61724  0.40342  Biso   1.000  Cl
  Cl25     1.0000 0.19897  0.21359  0.66597  Biso   1.000  Cl
  Cl26     1.0000 0.80103  0.21359  0.83403  Biso   1.000  Cl
  Cl27     1.0000 0.69897  0.71359  0.66597  Biso   1.000  Cl
  Cl28     1.0000 0.30103  0.71359  0.83403  Biso   1.000  Cl
  Cl29     1.0000 0.80103  0.78641  0.33403  Biso   1.000  Cl
  Cl30     1.0000 0.19897  0.78641  0.16597  Biso   1.000  Cl
  Cl31     1.0000 0.30103  0.28641  0.33403  Biso   1.000  Cl
  Cl32     1.0000 0.69897  0.28641  0.16597  Biso   1.000  Cl
  Cl33     1.0000 0.08139  0.80122  0.58686  Biso   1.000  Cl
  Cl34     1.0000 0.91861  0.80122  0.91314  Biso   1.000  Cl
  Cl35     1.0000 0.58139  0.30122  0.58686  Biso   1.000  Cl
  Cl36     1.0000 0.41861  0.30122  0.91314  Biso   1.000  Cl
  Cl37     1.0000 0.91861  0.19878  0.41314  Biso   1.000  Cl
  Cl38     1.0000 0.08139  0.19878  0.08686  Biso   1.000  Cl
  Cl39     1.0000 0.41861  0.69878  0.41314  Biso   1.000  Cl
  Cl40     1.0000 0.58139  0.69878  0.08686  Biso   1.000  Cl
  Cl41     1.0000 0.21798  0.75698  0.63257  Biso   1.000  Cl
  Cl42     1.0000 0.78202  0.75698  0.86743  Biso   1.000  Cl
  Cl43     1.0000 0.71798  0.25698  0.63257  Biso   1.000  Cl
  Cl44     1.0000 0.28202  0.25698  0.86743  Biso   1.000  Cl
  Cl45     1.0000 0.78202  0.24302  0.36743  Biso   1.000  Cl
  Cl46     1.0000 0.21798  0.24302  0.13257  Biso   1.000  Cl
  Cl47     1.0000 0.28202  0.74302  0.36743  Biso   1.000  Cl
  Cl48     1.0000 0.71798  0.74302  0.13257  Biso   1.000  Cl
  Cl49     1.0000 0.04220  0.83103  0.11100  Biso   1.000  Cl
  Cl50     1.0000 0.95780  0.83103  0.38900  Biso   1.000  Cl
  Cl51     1.0000 0.54220  0.33103  0.11100  Biso   1.000  Cl
  Cl52     1.0000 0.45780  0.33103  0.38900  Biso   1.000  Cl
  Cl53     1.0000 0.95780  0.16897  0.88900  Biso   1.000  Cl
  Cl54     1.0000 0.04220  0.16897  0.61100  Biso   1.000  Cl
  Cl55     1.0000 0.45780  0.66897  0.88900  Biso   1.000  Cl
  Cl56     1.0000 0.54220  0.66897  0.61100  Biso   1.000  Cl
  N1       1.0000 0.20680  0.93800  0.77970  Biso   1.000  N
  N2       1.0000 0.79320  0.93800  0.72030  Biso   1.000  N
  N3       1.0000 0.70680  0.43800  0.77970  Biso   1.000  N
  N4       1.0000 0.29320  0.43800  0.72030  Biso   1.000  N
  N5       1.0000 0.79320  0.06200  0.22030  Biso   1.000  N
  N6       1.0000 0.20680  0.06200  0.27970  Biso   1.000  N
  N7       1.0000 0.29320  0.56200  0.22030  Biso   1.000  N
  N8       1.0000 0.70680  0.56200  0.27970  Biso   1.000  N
  N9       1.0000 0.14513  0.01000  0.75360  Biso   1.000  N
  N10      1.0000 0.85487  0.01000  0.74640  Biso   1.000  N
  N11      1.0000 0.64513  0.51000  0.75360  Biso   1.000  N
  N12      1.0000 0.35487  0.51000  0.74640  Biso   1.000  N
  N13      1.0000 0.85487  0.99000  0.24640  Biso   1.000  N
  N14      1.0000 0.14513  0.99000  0.25360  Biso   1.000  N
  N15      1.0000 0.35487  0.49000  0.24640  Biso   1.000  N
  N16      1.0000 0.64513  0.49000  0.25360  Biso   1.000  N
  N17      1.0000 0.10360  0.89480  0.73550  Biso   1.000  N
  N18      1.0000 0.89640  0.89480  0.76450  Biso   1.000  N
  N19      1.0000 0.60360  0.39480  0.73550  Biso   1.000  N
  N20      1.0000 0.39640  0.39480  0.76450  Biso   1.000  N
  N21      1.0000 0.89640  0.10520  0.26450  Biso   1.000  N
  N22      1.0000 0.10360  0.10520  0.23550  Biso   1.000  N
  N23      1.0000 0.39640  0.60520  0.26450  Biso   1.000  N
  N24      1.0000 0.60360  0.60520  0.23550  Biso   1.000  N
  N25      1.0000 0.05632  0.45260  0.71740  Biso   1.000  N
  N26      1.0000 0.94368  0.45260  0.78260  Biso   1.000  N
  N27      1.0000 0.55632  0.95260  0.71740  Biso   1.000  N
  N28      1.0000 0.44368  0.95260  0.78260  Biso   1.000  N
  N29      1.0000 0.94368  0.54740  0.28260  Biso   1.000  N
  N30      1.0000 0.05632  0.54740  0.21740  Biso   1.000  N
  N31      1.0000 0.44368  0.04740  0.28260  Biso   1.000  N
  N32      1.0000 0.55632  0.04740  0.21740  Biso   1.000  N
  N33      1.0000 0.11425  0.36940  0.74770  Biso   1.000  N
  N34      1.0000 0.88575  0.36940  0.75230  Biso   1.000  N
  N35      1.0000 0.61425  0.86940  0.74770  Biso   1.000  N
  N36      1.0000 0.38575  0.86940  0.75230  Biso   1.000  N
  N37      1.0000 0.88575  0.63060  0.25230  Biso   1.000  N
  N38      1.0000 0.11425  0.63060  0.24770  Biso   1.000  N
  N39      1.0000 0.38575  0.13060  0.25230  Biso   1.000  N
  N40      1.0000 0.61425  0.13060  0.24770  Biso   1.000  N
  N41      1.0000 0.16003  0.47960  0.76630  Biso   1.000  N
  N42      1.0000 0.83997  0.47960  0.73370  Biso   1.000  N
  N43      1.0000 0.66003  0.97960  0.76630  Biso   1.000  N
  N44      1.0000 0.33997  0.97960  0.73370  Biso   1.000  N
  N45      1.0000 0.83997  0.52040  0.23370  Biso   1.000  N
  N46      1.0000 0.16003  0.52040  0.26630  Biso   1.000  N
  N47      1.0000 0.33997  0.02040  0.23370  Biso   1.000  N
  N48      1.0000 0.66003  0.02040  0.26630  Biso   1.000  N
  N49      1.0000 0.15409  0.50150  0.51640  Biso   1.000  N
  N50      1.0000 0.84591  0.50150  0.98360  Biso   1.000  N
  N51      1.0000 0.65409  0.00150  0.51640  Biso   1.000  N
  N52      1.0000 0.34591  0.00150  0.98360  Biso   1.000  N
  N53      1.0000 0.84591  0.49850  0.48360  Biso   1.000  N
  N54      1.0000 0.15409  0.49850  0.01640  Biso   1.000  N
  N55      1.0000 0.34591  0.99850  0.48360  Biso   1.000  N
  N56      1.0000 0.65409  0.99850  0.01640  Biso   1.000  N
  N57      1.0000 0.10682  0.61150  0.49290  Biso   1.000  N
  N58      1.0000 0.89318  0.61150  0.00710  Biso   1.000  N
  N59      1.0000 0.60682  0.11150  0.49290  Biso   1.000  N
  N60      1.0000 0.39318  0.11150  0.00710  Biso   1.000  N
  N61      1.0000 0.89318  0.38850  0.50710  Biso   1.000  N
  N62      1.0000 0.10682  0.38850  0.99290  Biso   1.000  N
  N63      1.0000 0.39318  0.88850  0.50710  Biso   1.000  N
  N64      1.0000 0.60682  0.88850  0.99290  Biso   1.000  N
  N65      1.0000 0.04963  0.52660  0.46660  Biso   1.000  N
  N66      1.0000 0.95037  0.52660  0.03340  Biso   1.000  N
  N67      1.0000 0.54963  0.02660  0.46660  Biso   1.000  N
  N68      1.0000 0.45037  0.02660  0.03340  Biso   1.000  N
  N69      1.0000 0.95037  0.47340  0.53340  Biso   1.000  N
  N70      1.0000 0.04963  0.47340  0.96660  Biso   1.000  N
  N71      1.0000 0.45037  0.97340  0.53340  Biso   1.000  N
  N72      1.0000 0.54963  0.97340  0.96660  Biso   1.000  N
  N73      1.0000 0.07930  0.08580  0.47910  Biso   1.000  N
  N74      1.0000 0.92070  0.08580  0.02090  Biso   1.000  N
  N75      1.0000 0.57930  0.58580  0.47910  Biso   1.000  N
  N76      1.0000 0.42070  0.58580  0.02090  Biso   1.000  N
  N77      1.0000 0.92070  0.91420  0.52090  Biso   1.000  N
  N78      1.0000 0.07930  0.91420  0.97910  Biso   1.000  N
  N79      1.0000 0.42070  0.41420  0.52090  Biso   1.000  N
  N80      1.0000 0.57930  0.41420  0.97910  Biso   1.000  N
  N81      1.0000 0.12540  0.97630  0.50190  Biso   1.000  N
  N82      1.0000 0.87460  0.97630  0.99810  Biso   1.000  N
  N83      1.0000 0.62540  0.47630  0.50190  Biso   1.000  N
  N84      1.0000 0.37460  0.47630  0.99810  Biso   1.000  N
  N85      1.0000 0.87460  0.02370  0.49810  Biso   1.000  N
  N86      1.0000 0.12540  0.02370  0.00190  Biso   1.000  N
  N87      1.0000 0.37460  0.52370  0.49810  Biso   1.000  N
  N88      1.0000 0.62540  0.52370  0.00190  Biso   1.000  N
  N89      1.0000 0.18280  0.05960  0.53540  Biso   1.000  N
  N90      1.0000 0.81720  0.05960  0.96460  Biso   1.000  N
  N91      1.0000 0.68280  0.55960  0.53540  Biso   1.000  N
  N92      1.0000 0.31720  0.55960  0.96460  Biso   1.000  N
  N93      1.0000 0.81720  0.94040  0.46460  Biso   1.000  N
  N94      1.0000 0.18280  0.94040  0.03540  Biso   1.000  N
  N95      1.0000 0.31720  0.44040  0.46460  Biso   1.000  N
  N96      1.0000 0.68280  0.44040  0.03540  Biso   1.000  N
  O1       1.0000 0.16570  0.79740  0.76240  Biso   1.000  O
  O2       1.0000 0.83430  0.79740  0.73760  Biso   1.000  O
  O3       1.0000 0.66570  0.29740  0.76240  Biso   1.000  O
  O4       1.0000 0.33430  0.29740  0.73760  Biso   1.000  O
  O5       1.0000 0.83430  0.20260  0.23760  Biso   1.000  O
  O6       1.0000 0.16570  0.20260  0.26240  Biso   1.000  O
  O7       1.0000 0.33430  0.70260  0.23760  Biso   1.000  O
  O8       1.0000 0.66570  0.70260  0.26240  Biso   1.000  O
  H545     1.0000 0.18050  0.80990  0.79040  Biso   1.000  H
  H546     1.0000 0.81950  0.80990  0.70960  Biso   1.000  H
  H547     1.0000 0.68050  0.30990  0.79040  Biso   1.000  H
  H548     1.0000 0.31950  0.30990  0.70960  Biso   1.000  H
  H549     1.0000 0.81950  0.19010  0.20960  Biso   1.000  H
  H550     1.0000 0.18050  0.19010  0.29040  Biso   1.000  H
  H551     1.0000 0.31950  0.69010  0.20960  Biso   1.000  H
  H552     1.0000 0.68050  0.69010  0.29040  Biso   1.000  H
  H553     1.0000 0.17570  0.76950  0.74700  Biso   1.000  H
  H554     1.0000 0.82430  0.76950  0.75300  Biso   1.000  H
  H555     1.0000 0.67570  0.26950  0.74700  Biso   1.000  H
  H556     1.0000 0.32430  0.26950  0.75300  Biso   1.000  H
  H557     1.0000 0.82430  0.23050  0.25300  Biso   1.000  H
  H558     1.0000 0.17570  0.23050  0.24700  Biso   1.000  H
  H559     1.0000 0.32430  0.73050  0.25300  Biso   1.000  H
  H560     1.0000 0.67570  0.73050  0.24700  Biso   1.000  H
  O9       1.0000 0.15580  0.90020  0.67250  Biso   1.000  O
  O10      1.0000 0.84420  0.90020  0.82750  Biso   1.000  O
  O11      1.0000 0.65580  0.40020  0.67250  Biso   1.000  O
  O12      1.0000 0.34420  0.40020  0.82750  Biso   1.000  O
  O13      1.0000 0.84420  0.09980  0.32750  Biso   1.000  O
  O14      1.0000 0.15580  0.09980  0.17250  Biso   1.000  O
  O15      1.0000 0.34420  0.59980  0.32750  Biso   1.000  O
  O16      1.0000 0.65580  0.59980  0.17250  Biso   1.000  O
  H561     1.0000 0.13540  0.88850  0.65210  Biso   1.000  H
  H562     1.0000 0.86460  0.88850  0.84790  Biso   1.000  H
  H563     1.0000 0.63540  0.38850  0.65210  Biso   1.000  H
  H564     1.0000 0.36460  0.38850  0.84790  Biso   1.000  H
  H565     1.0000 0.86460  0.11150  0.34790  Biso   1.000  H
  H566     1.0000 0.13540  0.11150  0.15210  Biso   1.000  H
  H567     1.0000 0.36460  0.61150  0.34790  Biso   1.000  H
  H568     1.0000 0.63540  0.61150  0.15210  Biso   1.000  H
  H569     1.0000 0.17140  0.86880  0.67080  Biso   1.000  H
  H570     1.0000 0.82860  0.86880  0.82920  Biso   1.000  H
  H571     1.0000 0.67140  0.36880  0.67080  Biso   1.000  H
  H572     1.0000 0.32860  0.36880  0.82920  Biso   1.000  H
  H573     1.0000 0.82860  0.13120  0.32920  Biso   1.000  H
  H574     1.0000 0.17140  0.13120  0.17080  Biso   1.000  H
  H575     1.0000 0.32860  0.63120  0.32920  Biso   1.000  H
  H576     1.0000 0.67140  0.63120  0.17080  Biso   1.000  H
  O17      1.0000 0.10087  0.58580  0.73610  Biso   1.000  O
  O18      1.0000 0.89913  0.58580  0.76390  Biso   1.000  O
  O19      1.0000 0.60087  0.08580  0.73610  Biso   1.000  O
  O20      1.0000 0.39913  0.08580  0.76390  Biso   1.000  O
  O21      1.0000 0.89913  0.41420  0.26390  Biso   1.000  O
  O22      1.0000 0.10087  0.41420  0.23610  Biso   1.000  O
  O23      1.0000 0.39913  0.91420  0.26390  Biso   1.000  O
  O24      1.0000 0.60087  0.91420  0.23610  Biso   1.000  O
  H577     1.0000 0.11660  0.60420  0.76160  Biso   1.000  H
  H578     1.0000 0.88340  0.60420  0.73840  Biso   1.000  H
  H579     1.0000 0.61660  0.10420  0.76160  Biso   1.000  H
  H580     1.0000 0.38340  0.10420  0.73840  Biso   1.000  H
  H581     1.0000 0.88340  0.39580  0.23840  Biso   1.000  H
  H582     1.0000 0.11660  0.39580  0.26160  Biso   1.000  H
  H583     1.0000 0.38340  0.89580  0.23840  Biso   1.000  H
  H584     1.0000 0.61660  0.89580  0.26160  Biso   1.000  H
  H585     1.0000 0.10460  0.60140  0.70970  Biso   1.000  H
  H586     1.0000 0.89540  0.60140  0.79030  Biso   1.000  H
  H587     1.0000 0.60460  0.10140  0.70970  Biso   1.000  H
  H588     1.0000 0.39540  0.10140  0.79030  Biso   1.000  H
  H589     1.0000 0.89540  0.39860  0.29030  Biso   1.000  H
  H590     1.0000 0.10460  0.39860  0.20970  Biso   1.000  H
  H591     1.0000 0.39540  0.89860  0.29030  Biso   1.000  H
  H592     1.0000 0.60460  0.89860  0.20970  Biso   1.000  H
  O25      1.0000 0.09356  0.39430  0.48750  Biso   1.000  O
  O26      1.0000 0.90644  0.39430  0.01250  Biso   1.000  O
  O27      1.0000 0.59356  0.89430  0.48750  Biso   1.000  O
  O28      1.0000 0.40644  0.89430  0.01250  Biso   1.000  O
  O29      1.0000 0.90644  0.60570  0.51250  Biso   1.000  O
  O30      1.0000 0.09356  0.60570  0.98750  Biso   1.000  O
  O31      1.0000 0.40644  0.10570  0.51250  Biso   1.000  O
  O32      1.0000 0.59356  0.10570  0.98750  Biso   1.000  O
  H593     1.0000 0.09710  0.37550  0.51600  Biso   1.000  H
  H594     1.0000 0.90290  0.37550  0.98400  Biso   1.000  H
  H595     1.0000 0.59710  0.87550  0.51600  Biso   1.000  H
  H596     1.0000 0.40290  0.87550  0.98400  Biso   1.000  H
  H597     1.0000 0.90290  0.62450  0.48400  Biso   1.000  H
  H598     1.0000 0.09710  0.62450  0.01600  Biso   1.000  H
  H599     1.0000 0.40290  0.12450  0.48400  Biso   1.000  H
  H600     1.0000 0.59710  0.12450  0.01600  Biso   1.000  H
  H601     1.0000 0.10660  0.37380  0.47290  Biso   1.000  H
  H602     1.0000 0.89340  0.37380  0.02710  Biso   1.000  H
  H603     1.0000 0.60660  0.87380  0.47290  Biso   1.000  H
  H604     1.0000 0.39340  0.87380  0.02710  Biso   1.000  H
  H605     1.0000 0.89340  0.62620  0.52710  Biso   1.000  H
  H606     1.0000 0.10660  0.62620  0.97290  Biso   1.000  H
  H607     1.0000 0.39340  0.12620  0.52710  Biso   1.000  H
  H608     1.0000 0.60660  0.12620  0.97290  Biso   1.000  H
  O33      1.0000 0.12750  0.08720  0.59040  Biso   1.000  O
  O34      1.0000 0.87250  0.08720  0.90960  Biso   1.000  O
  O35      1.0000 0.62750  0.58720  0.59040  Biso   1.000  O
  O36      1.0000 0.37250  0.58720  0.90960  Biso   1.000  O
  O37      1.0000 0.87250  0.91280  0.40960  Biso   1.000  O
  O38      1.0000 0.12750  0.91280  0.09040  Biso   1.000  O
  O39      1.0000 0.37250  0.41280  0.40960  Biso   1.000  O
  O40      1.0000 0.62750  0.41280  0.09040  Biso   1.000  O
  H609     1.0000 0.14170  0.09080  0.62010  Biso   1.000  H
  H610     1.0000 0.85830  0.09080  0.87990  Biso   1.000  H
  H611     1.0000 0.64170  0.59080  0.62010  Biso   1.000  H
  H612     1.0000 0.35830  0.59080  0.87990  Biso   1.000  H
  H613     1.0000 0.85830  0.90920  0.37990  Biso   1.000  H
  H614     1.0000 0.14170  0.90920  0.12010  Biso   1.000  H
  H615     1.0000 0.35830  0.40920  0.37990  Biso   1.000  H
  H616     1.0000 0.64170  0.40920  0.12010  Biso   1.000  H
  H617     1.0000 0.10590  0.08810  0.59000  Biso   1.000  H
  H618     1.0000 0.89410  0.08810  0.91000  Biso   1.000  H
  H619     1.0000 0.60590  0.58810  0.59000  Biso   1.000  H
  H620     1.0000 0.39410  0.58810  0.91000  Biso   1.000  H
  H621     1.0000 0.89410  0.91190  0.41000  Biso   1.000  H
  H622     1.0000 0.10590  0.91190  0.09000  Biso   1.000  H
  H623     1.0000 0.39410  0.41190  0.41000  Biso   1.000  H
  H624     1.0000 0.60590  0.41190  0.09000  Biso   1.000  H
  O41      1.0000 0.13830  0.19230  0.51090  Biso   1.000  O
  O42      1.0000 0.86170  0.19230  0.98910  Biso   1.000  O
  O43      1.0000 0.63830  0.69230  0.51090  Biso   1.000  O
  O44      1.0000 0.36170  0.69230  0.98910  Biso   1.000  O
  O45      1.0000 0.86170  0.80770  0.48910  Biso   1.000  O
  O46      1.0000 0.13830  0.80770  0.01090  Biso   1.000  O
  O47      1.0000 0.36170  0.30770  0.48910  Biso   1.000  O
  O48      1.0000 0.63830  0.30770  0.01090  Biso   1.000  O
  H625     1.0000 0.12910  0.22450  0.48880  Biso   1.000  H
  H626     1.0000 0.87090  0.22450  0.01120  Biso   1.000  H
  H627     1.0000 0.62910  0.72450  0.48880  Biso   1.000  H
  H628     1.0000 0.37090  0.72450  0.01120  Biso   1.000  H
  H629     1.0000 0.87090  0.77550  0.51120  Biso   1.000  H
  H630     1.0000 0.12910  0.77550  0.98880  Biso   1.000  H
  H631     1.0000 0.37090  0.27550  0.51120  Biso   1.000  H
  H632     1.0000 0.62910  0.27550  0.98880  Biso   1.000  H
  H633     1.0000 0.13570  0.20440  0.53840  Biso   1.000  H
  H634     1.0000 0.86430  0.20440  0.96160  Biso   1.000  H
  H635     1.0000 0.63570  0.70440  0.53840  Biso   1.000  H
  H636     1.0000 0.36430  0.70440  0.96160  Biso   1.000  H
  H637     1.0000 0.86430  0.79560  0.46160  Biso   1.000  H
  H638     1.0000 0.13570  0.79560  0.03840  Biso   1.000  H
  H639     1.0000 0.36430  0.29560  0.46160  Biso   1.000  H
  H640     1.0000 0.63570  0.29560  0.03840  Biso   1.000  H
  O49      1.0000 0.20270  0.71700  0.84810  Biso   1.000  O
  O50      1.0000 0.79730  0.71700  0.65190  Biso   1.000  O
  O51      1.0000 0.70270  0.21700  0.84810  Biso   1.000  O
  O52      1.0000 0.29730  0.21700  0.65190  Biso   1.000  O
  O53      1.0000 0.79730  0.28300  0.15190  Biso   1.000  O
  O54      1.0000 0.20270  0.28300  0.34810  Biso   1.000  O
  O55      1.0000 0.29730  0.78300  0.15190  Biso   1.000  O
  O56      1.0000 0.70270  0.78300  0.34810  Biso   1.000  O
  O57      1.0000 0.15040  0.69340  0.69580  Biso   1.000  O
  O58      1.0000 0.84960  0.69340  0.80420  Biso   1.000  O
  O59      1.0000 0.65040  0.19340  0.69580  Biso   1.000  O
  O60      1.0000 0.34960  0.19340  0.80420  Biso   1.000  O
  O61      1.0000 0.84960  0.30660  0.30420  Biso   1.000  O
  O62      1.0000 0.15040  0.30660  0.19580  Biso   1.000  O
  O63      1.0000 0.34960  0.80660  0.30420  Biso   1.000  O
  O64      1.0000 0.65040  0.80660  0.19580  Biso   1.000  O
  O65      1.0000 0.07380  0.09140  0.34610  Biso   1.000  O
  O66      1.0000 0.92620  0.09140  0.15390  Biso   1.000  O
  O67      1.0000 0.57380  0.59140  0.34610  Biso   1.000  O
  O68      1.0000 0.42620  0.59140  0.15390  Biso   1.000  O
  O69      1.0000 0.92620  0.90860  0.65390  Biso   1.000  O
  O70      1.0000 0.07380  0.90860  0.84610  Biso   1.000  O
  O71      1.0000 0.42620  0.40860  0.65390  Biso   1.000  O
  O72      1.0000 0.57380  0.40860  0.84610  Biso   1.000  O
  O73      1.0000 0.10870  0.71110  0.06460  Biso   1.000  O
  O74      1.0000 0.89130  0.71110  0.43540  Biso   1.000  O
  O75      1.0000 0.60870  0.21110  0.06460  Biso   1.000  O
  O76      1.0000 0.39130  0.21110  0.43540  Biso   1.000  O
  O77      1.0000 0.89130  0.28890  0.93540  Biso   1.000  O
  O78      1.0000 0.10870  0.28890  0.56460  Biso   1.000  O
  O79      1.0000 0.39130  0.78890  0.93540  Biso   1.000  O
  O80      1.0000 0.60870  0.78890  0.56460  Biso   1.000  O
  O81      1.0000 0.05340  0.64300  0.65530  Biso   1.000  O
  O82      1.0000 0.94660  0.64300  0.84470  Biso   1.000  O
  O83      1.0000 0.55340  0.14300  0.65530  Biso   1.000  O
  O84      1.0000 0.44660  0.14300  0.84470  Biso   1.000  O
  O85      1.0000 0.94660  0.35700  0.34470  Biso   1.000  O
  O86      1.0000 0.05340  0.35700  0.15530  Biso   1.000  O
  O87      1.0000 0.44660  0.85700  0.34470  Biso   1.000  O
  O88      1.0000 0.55340  0.85700  0.15530  Biso   1.000  O
  O89      1.0000 0.09909  0.46810  0.65280  Biso   1.000  O
  O90      1.0000 0.90091  0.46810  0.84720  Biso   1.000  O
  O91      1.0000 0.59909  0.96810  0.65280  Biso   1.000  O
  O92      1.0000 0.40091  0.96810  0.84720  Biso   1.000  O
  O93      1.0000 0.90091  0.53190  0.34720  Biso   1.000  O
  O94      1.0000 0.09909  0.53190  0.15280  Biso   1.000  O
  O95      1.0000 0.40091  0.03190  0.34720  Biso   1.000  O
  O96      1.0000 0.59909  0.03190  0.15280  Biso   1.000  O
  O97      1.0000 0.09643  0.49980  0.57290  Biso   1.000  O
  O98      1.0000 0.90357  0.49980  0.92710  Biso   1.000  O
  O99      1.0000 0.59643  0.99980  0.57290  Biso   1.000  O
  O100     1.0000 0.40357  0.99980  0.92710  Biso   1.000  O
  O101     1.0000 0.90357  0.50020  0.42710  Biso   1.000  O
  O102     1.0000 0.09643  0.50020  0.07290  Biso   1.000  O
  O103     1.0000 0.40357  0.00020  0.42710  Biso   1.000  O
  O104     1.0000 0.59643  0.00020  0.07290  Biso   1.000  O
  O105     1.0000 0.14391  0.42880  0.62170  Biso   1.000  O
  O106     1.0000 0.85609  0.42880  0.87830  Biso   1.000  O
  O107     1.0000 0.64391  0.92880  0.62170  Biso   1.000  O
  O108     1.0000 0.35609  0.92880  0.87830  Biso   1.000  O
  O109     1.0000 0.85609  0.57120  0.37830  Biso   1.000  O
  O110     1.0000 0.14391  0.57120  0.12170  Biso   1.000  O
  O111     1.0000 0.35609  0.07120  0.37830  Biso   1.000  O
  O112     1.0000 0.64391  0.07120  0.12170  Biso   1.000  O
  O113     1.0000 0.14070  0.55070  0.64070  Biso   1.000  O
  O114     1.0000 0.85930  0.55070  0.85930  Biso   1.000  O
  O115     1.0000 0.64070  0.05070  0.64070  Biso   1.000  O
  O116     1.0000 0.35930  0.05070  0.85930  Biso   1.000  O
  O117     1.0000 0.85930  0.44930  0.35930  Biso   1.000  O
  O118     1.0000 0.14070  0.44930  0.14070  Biso   1.000  O
  O119     1.0000 0.35930  0.94930  0.35930  Biso   1.000  O
  O120     1.0000 0.64070  0.94930  0.14070  Biso   1.000  O
  O121     1.0000 0.10160  0.50450  0.82570  Biso   1.000  O
  O122     1.0000 0.89840  0.50450  0.67430  Biso   1.000  O
  O123     1.0000 0.60160  0.00450  0.82570  Biso   1.000  O
  O124     1.0000 0.39840  0.00450  0.67430  Biso   1.000  O
  O125     1.0000 0.89840  0.49550  0.17430  Biso   1.000  O
  O126     1.0000 0.10160  0.49550  0.32570  Biso   1.000  O
  O127     1.0000 0.39840  0.99550  0.17430  Biso   1.000  O
  O128     1.0000 0.60160  0.99550  0.32570  Biso   1.000  O
  O129     1.0000 0.15343  0.47480  0.89160  Biso   1.000  O
  O130     1.0000 0.84657  0.47480  0.60840  Biso   1.000  O
  O131     1.0000 0.65343  0.97480  0.89160  Biso   1.000  O
  O132     1.0000 0.34657  0.97480  0.60840  Biso   1.000  O
  O133     1.0000 0.84657  0.52520  0.10840  Biso   1.000  O
  O134     1.0000 0.15343  0.52520  0.39160  Biso   1.000  O
  O135     1.0000 0.34657  0.02520  0.10840  Biso   1.000  O
  O136     1.0000 0.65343  0.02520  0.39160  Biso   1.000  O
  O137     1.0000 0.10344  0.52910  0.90530  Biso   1.000  O
  O138     1.0000 0.89656  0.52910  0.59470  Biso   1.000  O
  O139     1.0000 0.60344  0.02910  0.90530  Biso   1.000  O
  O140     1.0000 0.39656  0.02910  0.59470  Biso   1.000  O
  O141     1.0000 0.89656  0.47090  0.09470  Biso   1.000  O
  O142     1.0000 0.10344  0.47090  0.40530  Biso   1.000  O
  O143     1.0000 0.39656  0.97090  0.09470  Biso   1.000  O
  O144     1.0000 0.60344  0.97090  0.40530  Biso   1.000  O
  O145     1.0000 0.13770  0.59600  0.86930  Biso   1.000  O
  O146     1.0000 0.86230  0.59600  0.63070  Biso   1.000  O
  O147     1.0000 0.63770  0.09600  0.86930  Biso   1.000  O
  O148     1.0000 0.36230  0.09600  0.63070  Biso   1.000  O
  O149     1.0000 0.86230  0.40400  0.13070  Biso   1.000  O
  O150     1.0000 0.13770  0.40400  0.36930  Biso   1.000  O
  O151     1.0000 0.36230  0.90400  0.13070  Biso   1.000  O
  O152     1.0000 0.63770  0.90400  0.36930  Biso   1.000  O
  O153     1.0000 0.19810  0.82620  0.92710  Biso   1.000  O
  O154     1.0000 0.80190  0.82620  0.57290  Biso   1.000  O
  O155     1.0000 0.69810  0.32620  0.92710  Biso   1.000  O
  O156     1.0000 0.30190  0.32620  0.57290  Biso   1.000  O
  O157     1.0000 0.80190  0.17380  0.07290  Biso   1.000  O
  O158     1.0000 0.19810  0.17380  0.42710  Biso   1.000  O
  O159     1.0000 0.30190  0.67380  0.07290  Biso   1.000  O
  O160     1.0000 0.69810  0.67380  0.42710  Biso   1.000  O
  O161     1.0000 0.14440  0.88260  0.92180  Biso   1.000  O
  O162     1.0000 0.85560  0.88260  0.57820  Biso   1.000  O
  O163     1.0000 0.64440  0.38260  0.92180  Biso   1.000  O
  O164     1.0000 0.35560  0.38260  0.57820  Biso   1.000  O
  O165     1.0000 0.85560  0.11740  0.07820  Biso   1.000  O
  O166     1.0000 0.14440  0.11740  0.42180  Biso   1.000  O
  O167     1.0000 0.35560  0.61740  0.07820  Biso   1.000  O
  O168     1.0000 0.64440  0.61740  0.42180  Biso   1.000  O
  O169     1.0000 0.19110  0.95440  0.91380  Biso   1.000  O
  O170     1.0000 0.80890  0.95440  0.58620  Biso   1.000  O
  O171     1.0000 0.69110  0.45440  0.91380  Biso   1.000  O
  O172     1.0000 0.30890  0.45440  0.58620  Biso   1.000  O
  O173     1.0000 0.80890  0.04560  0.08620  Biso   1.000  O
  O174     1.0000 0.19110  0.04560  0.41380  Biso   1.000  O
  O175     1.0000 0.30890  0.54560  0.08620  Biso   1.000  O
  O176     1.0000 0.69110  0.54560  0.41380  Biso   1.000  O
  O177     1.0000 0.16090  0.87060  0.85120  Biso   1.000  O
  O178     1.0000 0.83910  0.87060  0.64880  Biso   1.000  O
  O179     1.0000 0.66090  0.37060  0.85120  Biso   1.000  O
  O180     1.0000 0.33910  0.37060  0.64880  Biso   1.000  O
  O181     1.0000 0.83910  0.12940  0.14880  Biso   1.000  O
  O182     1.0000 0.16090  0.12940  0.35120  Biso   1.000  O
  O183     1.0000 0.33910  0.62940  0.14880  Biso   1.000  O
  O184     1.0000 0.66090  0.62940  0.35120  Biso   1.000  O
  O185     1.0000 0.21580  0.22940  0.71640  Biso   1.000  O
  O186     1.0000 0.78420  0.22940  0.78360  Biso   1.000  O
  O187     1.0000 0.71580  0.72940  0.71640  Biso   1.000  O
  O188     1.0000 0.28420  0.72940  0.78360  Biso   1.000  O
  O189     1.0000 0.78420  0.77060  0.28360  Biso   1.000  O
  O190     1.0000 0.21580  0.77060  0.21640  Biso   1.000  O
  O191     1.0000 0.28420  0.27060  0.28360  Biso   1.000  O
  O192     1.0000 0.71580  0.27060  0.21640  Biso   1.000  O
  O193     1.0000 0.19800  0.13640  0.65630  Biso   1.000  O
  O194     1.0000 0.80200  0.13640  0.84370  Biso   1.000  O
  O195     1.0000 0.69800  0.63640  0.65630  Biso   1.000  O
  O196     1.0000 0.30200  0.63640  0.84370  Biso   1.000  O
  O197     1.0000 0.80200  0.86360  0.34370  Biso   1.000  O
  O198     1.0000 0.19800  0.86360  0.15630  Biso   1.000  O
  O199     1.0000 0.30200  0.36360  0.34370  Biso   1.000  O
  O200     1.0000 0.69800  0.36360  0.15630  Biso   1.000  O
  O201     1.0000 0.21490  0.24940  0.63370  Biso   1.000  O
  O202     1.0000 0.78510  0.24940  0.86630  Biso   1.000  O
  O203     1.0000 0.71490  0.74940  0.63370  Biso   1.000  O
  O204     1.0000 0.28510  0.74940  0.86630  Biso   1.000  O
  O205     1.0000 0.78510  0.75060  0.36630  Biso   1.000  O
  O206     1.0000 0.21490  0.75060  0.13370  Biso   1.000  O
  O207     1.0000 0.28510  0.25060  0.36630  Biso   1.000  O
  O208     1.0000 0.71490  0.25060  0.13370  Biso   1.000  O
  O209     1.0000 0.16170  0.23750  0.65180  Biso   1.000  O
  O210     1.0000 0.83830  0.23750  0.84820  Biso   1.000  O
  O211     1.0000 0.66170  0.73750  0.65180  Biso   1.000  O
  O212     1.0000 0.33830  0.73750  0.84820  Biso   1.000  O
  O213     1.0000 0.83830  0.76250  0.34820  Biso   1.000  O
  O214     1.0000 0.16170  0.76250  0.15180  Biso   1.000  O
  O215     1.0000 0.33830  0.26250  0.34820  Biso   1.000  O
  O216     1.0000 0.66170  0.26250  0.15180  Biso   1.000  O
  O217     1.0000 0.05140  0.79830  0.54420  Biso   1.000  O
  O218     1.0000 0.94860  0.79830  0.95580  Biso   1.000  O
  O219     1.0000 0.55140  0.29830  0.54420  Biso   1.000  O
  O220     1.0000 0.44860  0.29830  0.95580  Biso   1.000  O
  O221     1.0000 0.94860  0.20170  0.45580  Biso   1.000  O
  O222     1.0000 0.05140  0.20170  0.04420  Biso   1.000  O
  O223     1.0000 0.44860  0.70170  0.45580  Biso   1.000  O
  O224     1.0000 0.55140  0.70170  0.04420  Biso   1.000  O
  O225     1.0000 0.08320  0.87050  0.61110  Biso   1.000  O
  O226     1.0000 0.91680  0.87050  0.88890  Biso   1.000  O
  O227     1.0000 0.58320  0.37050  0.61110  Biso   1.000  O
  O228     1.0000 0.41680  0.37050  0.88890  Biso   1.000  O
  O229     1.0000 0.91680  0.12950  0.38890  Biso   1.000  O
  O230     1.0000 0.08320  0.12950  0.11110  Biso   1.000  O
  O231     1.0000 0.41680  0.62950  0.38890  Biso   1.000  O
  O232     1.0000 0.58320  0.62950  0.11110  Biso   1.000  O
  O233     1.0000 0.07940  0.74160  0.61290  Biso   1.000  O
  O234     1.0000 0.92060  0.74160  0.88710  Biso   1.000  O
  O235     1.0000 0.57940  0.24160  0.61290  Biso   1.000  O
  O236     1.0000 0.42060  0.24160  0.88710  Biso   1.000  O
  O237     1.0000 0.92060  0.25840  0.38710  Biso   1.000  O
  O238     1.0000 0.07940  0.25840  0.11290  Biso   1.000  O
  O239     1.0000 0.42060  0.75840  0.38710  Biso   1.000  O
  O240     1.0000 0.57940  0.75840  0.11290  Biso   1.000  O
  O241     1.0000 0.11010  0.79440  0.56860  Biso   1.000  O
  O242     1.0000 0.88990  0.79440  0.93140  Biso   1.000  O
  O243     1.0000 0.61010  0.29440  0.56860  Biso   1.000  O
  O244     1.0000 0.38990  0.29440  0.93140  Biso   1.000  O
  O245     1.0000 0.88990  0.20560  0.43140  Biso   1.000  O
  O246     1.0000 0.11010  0.20560  0.06860  Biso   1.000  O
  O247     1.0000 0.38990  0.70560  0.43140  Biso   1.000  O
  O248     1.0000 0.61010  0.70560  0.06860  Biso   1.000  O
  O249     1.0000 0.20600  0.76880  0.57990  Biso   1.000  O
  O250     1.0000 0.79400  0.76880  0.92010  Biso   1.000  O
  O251     1.0000 0.70600  0.26880  0.57990  Biso   1.000  O
  O252     1.0000 0.29400  0.26880  0.92010  Biso   1.000  O
  O253     1.0000 0.79400  0.23120  0.42010  Biso   1.000  O
  O254     1.0000 0.20600  0.23120  0.07990  Biso   1.000  O
  O255     1.0000 0.29400  0.73120  0.42010  Biso   1.000  O
  O256     1.0000 0.70600  0.73120  0.07990  Biso   1.000  O
  O257     1.0000 0.21080  0.81730  0.65800  Biso   1.000  O
  O258     1.0000 0.78920  0.81730  0.84200  Biso   1.000  O
  O259     1.0000 0.71080  0.31730  0.65800  Biso   1.000  O
  O260     1.0000 0.28920  0.31730  0.84200  Biso   1.000  O
  O261     1.0000 0.78920  0.18270  0.34200  Biso   1.000  O
  O262     1.0000 0.21080  0.18270  0.15800  Biso   1.000  O
  O263     1.0000 0.28920  0.68270  0.34200  Biso   1.000  O
  O264     1.0000 0.71080  0.68270  0.15800  Biso   1.000  O
  O265     1.0000 0.25280  0.73810  0.65030  Biso   1.000  O
  O266     1.0000 0.74720  0.73810  0.84970  Biso   1.000  O
  O267     1.0000 0.75280  0.23810  0.65030  Biso   1.000  O
  O268     1.0000 0.24720  0.23810  0.84970  Biso   1.000  O
  O269     1.0000 0.74720  0.26190  0.34970  Biso   1.000  O
  O270     1.0000 0.25280  0.26190  0.15030  Biso   1.000  O
  O271     1.0000 0.24720  0.76190  0.34970  Biso   1.000  O
  O272     1.0000 0.75280  0.76190  0.15030  Biso   1.000  O
  O273     1.0000 0.19800  0.69350  0.64030  Biso   1.000  O
  O274     1.0000 0.80200  0.69350  0.85970  Biso   1.000  O
  O275     1.0000 0.69800  0.19350  0.64030  Biso   1.000  O
  O276     1.0000 0.30200  0.19350  0.85970  Biso   1.000  O
  O277     1.0000 0.80200  0.30650  0.35970  Biso   1.000  O
  O278     1.0000 0.19800  0.30650  0.14030  Biso   1.000  O
  O279     1.0000 0.30200  0.80650  0.35970  Biso   1.000  O
  O280     1.0000 0.69800  0.80650  0.14030  Biso   1.000  O
  O281     1.0000 0.04870  0.83570  0.16310  Biso   1.000  O
  O282     1.0000 0.95130  0.83570  0.33690  Biso   1.000  O
  O283     1.0000 0.54870  0.33570  0.16310  Biso   1.000  O
  O284     1.0000 0.45130  0.33570  0.33690  Biso   1.000  O
  O285     1.0000 0.95130  0.16430  0.83690  Biso   1.000  O
  O286     1.0000 0.04870  0.16430  0.66310  Biso   1.000  O
  O287     1.0000 0.45130  0.66430  0.83690  Biso   1.000  O
  O288     1.0000 0.54870  0.66430  0.66310  Biso   1.000  O
  O289     1.0000 0.05390  0.89380  0.09410  Biso   1.000  O
  O290     1.0000 0.94610  0.89380  0.40590  Biso   1.000  O
  O291     1.0000 0.55390  0.39380  0.09410  Biso   1.000  O
  O292     1.0000 0.44610  0.39380  0.40590  Biso   1.000  O
  O293     1.0000 0.94610  0.10620  0.90590  Biso   1.000  O
  O294     1.0000 0.05390  0.10620  0.59410  Biso   1.000  O
  O295     1.0000 0.44610  0.60620  0.90590  Biso   1.000  O
  O296     1.0000 0.55390  0.60620  0.59410  Biso   1.000  O
  O297     1.0000 0.00540  0.82510  0.08860  Biso   1.000  O
  O298     1.0000 0.99460  0.82510  0.41140  Biso   1.000  O
  O299     1.0000 0.50540  0.32510  0.08860  Biso   1.000  O
  O300     1.0000 0.49460  0.32510  0.41140  Biso   1.000  O
  O301     1.0000 0.99460  0.17490  0.91140  Biso   1.000  O
  O302     1.0000 0.00540  0.17490  0.58860  Biso   1.000  O
  O303     1.0000 0.49460  0.67490  0.91140  Biso   1.000  O
  O304     1.0000 0.50540  0.67490  0.58860  Biso   1.000  O
  O305     1.0000 0.05850  0.76990  0.10440  Biso   1.000  O
  O306     1.0000 0.94150  0.76990  0.39560  Biso   1.000  O
  O307     1.0000 0.55850  0.26990  0.10440  Biso   1.000  O
  O308     1.0000 0.44150  0.26990  0.39560  Biso   1.000  O
  O309     1.0000 0.94150  0.23010  0.89560  Biso   1.000  O
  O310     1.0000 0.05850  0.23010  0.60440  Biso   1.000  O
  O311     1.0000 0.44150  0.73010  0.89560  Biso   1.000  O
  O312     1.0000 0.55850  0.73010  0.60440  Biso   1.000  O
  Cl57     1.0000 0.04200  0.30270  0.35590  Biso   1.000  Cl
  Cl58     1.0000 0.95800  0.30270  0.14410  Biso   1.000  Cl
  Cl59     1.0000 0.54200  0.80270  0.35590  Biso   1.000  Cl
  Cl60     1.0000 0.45800  0.80270  0.14410  Biso   1.000  Cl
  Cl61     1.0000 0.95800  0.69730  0.64410  Biso   1.000  Cl
  Cl62     1.0000 0.04200  0.69730  0.85590  Biso   1.000  Cl
  Cl63     1.0000 0.45800  0.19730  0.64410  Biso   1.000  Cl
  Cl64     1.0000 0.54200  0.19730  0.85590  Biso   1.000  Cl
  O313     1.0000 0.07420  0.30660  0.39770  Biso   1.000  O
  O314     1.0000 0.92580  0.30660  0.10230  Biso   1.000  O
  O315     1.0000 0.57420  0.80660  0.39770  Biso   1.000  O
  O316     1.0000 0.42580  0.80660  0.10230  Biso   1.000  O
  O317     1.0000 0.92580  0.69340  0.60230  Biso   1.000  O
  O318     1.0000 0.07420  0.69340  0.89770  Biso   1.000  O
  O319     1.0000 0.42580  0.19340  0.60230  Biso   1.000  O
  O320     1.0000 0.57420  0.19340  0.89770  Biso   1.000  O
  O321     1.0000 0.04490  0.35440  0.31820  Biso   1.000  O
  O322     1.0000 0.95510  0.35440  0.18180  Biso   1.000  O
  O323     1.0000 0.54490  0.85440  0.31820  Biso   1.000  O
  O324     1.0000 0.45510  0.85440  0.18180  Biso   1.000  O
  O325     1.0000 0.95510  0.64560  0.68180  Biso   1.000  O
  O326     1.0000 0.04490  0.64560  0.81820  Biso   1.000  O
  O327     1.0000 0.45510  0.14560  0.68180  Biso   1.000  O
  O328     1.0000 0.54490  0.14560  0.81820  Biso   1.000  O
  O329     1.0000 0.03540  0.23170  0.33520  Biso   1.000  O
  O330     1.0000 0.96460  0.23170  0.16480  Biso   1.000  O
  O331     1.0000 0.53540  0.73170  0.33520  Biso   1.000  O
  O332     1.0000 0.46460  0.73170  0.16480  Biso   1.000  O
  O333     1.0000 0.96460  0.76830  0.66480  Biso   1.000  O
  O334     1.0000 0.03540  0.76830  0.83520  Biso   1.000  O
  O335     1.0000 0.46460  0.26830  0.66480  Biso   1.000  O
  O336     1.0000 0.53540  0.26830  0.83520  Biso   1.000  O
  O337     1.0000 0.01200  0.32530  0.37160  Biso   1.000  O
  O338     1.0000 0.98800  0.32530  0.12840  Biso   1.000  O
  O339     1.0000 0.51200  0.82530  0.37160  Biso   1.000  O
  O340     1.0000 0.48800  0.82530  0.12840  Biso   1.000  O
  O341     1.0000 0.98800  0.67470  0.62840  Biso   1.000  O
  O342     1.0000 0.01200  0.67470  0.87160  Biso   1.000  O
  O343     1.0000 0.48800  0.17470  0.62840  Biso   1.000  O
  O344     1.0000 0.51200  0.17470  0.87160  Biso   1.000  O
  O345     1.0000 0.12560  0.29150  0.43480  Biso   1.000  O
  O346     1.0000 0.87440  0.29150  0.06520  Biso   1.000  O
  O347     1.0000 0.62560  0.79150  0.43480  Biso   1.000  O
  O348     1.0000 0.37440  0.79150  0.06520  Biso   1.000  O
  O349     1.0000 0.87440  0.70850  0.56520  Biso   1.000  O
  O350     1.0000 0.12560  0.70850  0.93480  Biso   1.000  O
  O351     1.0000 0.37440  0.20850  0.56520  Biso   1.000  O
  O352     1.0000 0.62560  0.20850  0.93480  Biso   1.000  O
  Cl65     1.0000 0.04190  0.30450  0.32590  Biso   1.000  Cl
  Cl66     1.0000 0.95810  0.30450  0.17410  Biso   1.000  Cl
  Cl67     1.0000 0.54190  0.80450  0.32590  Biso   1.000  Cl
  Cl68     1.0000 0.45810  0.80450  0.17410  Biso   1.000  Cl
  Cl69     1.0000 0.95810  0.69550  0.67410  Biso   1.000  Cl
  Cl70     1.0000 0.04190  0.69550  0.82590  Biso   1.000  Cl
  Cl71     1.0000 0.45810  0.19550  0.67410  Biso   1.000  Cl
  Cl72     1.0000 0.54190  0.19550  0.82590  Biso   1.000  Cl
  O353     1.0000 0.16160  0.28550  0.45260  Biso   1.000  O
  O354     1.0000 0.83840  0.28550  0.04740  Biso   1.000  O
  O355     1.0000 0.66160  0.78550  0.45260  Biso   1.000  O
  O356     1.0000 0.33840  0.78550  0.04740  Biso   1.000  O
  O357     1.0000 0.83840  0.71450  0.54740  Biso   1.000  O
  O358     1.0000 0.16160  0.71450  0.95260  Biso   1.000  O
  O359     1.0000 0.33840  0.21450  0.54740  Biso   1.000  O
  O360     1.0000 0.66160  0.21450  0.95260  Biso   1.000  O
  O361     1.0000 0.03870  0.36260  0.35850  Biso   1.000  O
  O362     1.0000 0.96130  0.36260  0.14150  Biso   1.000  O
  O363     1.0000 0.53870  0.86260  0.35850  Biso   1.000  O
  O364     1.0000 0.46130  0.86260  0.14150  Biso   1.000  O
  O365     1.0000 0.96130  0.63740  0.64150  Biso   1.000  O
  O366     1.0000 0.03870  0.63740  0.85850  Biso   1.000  O
  O367     1.0000 0.46130  0.13740  0.64150  Biso   1.000  O
  O368     1.0000 0.53870  0.13740  0.85850  Biso   1.000  O
  O369     1.0000 0.06260  0.33010  0.29530  Biso   1.000  O
  O370     1.0000 0.93740  0.33010  0.20470  Biso   1.000  O
  O371     1.0000 0.56260  0.83010  0.29530  Biso   1.000  O
  O372     1.0000 0.43740  0.83010  0.20470  Biso   1.000  O
  O373     1.0000 0.93740  0.66990  0.70470  Biso   1.000  O
  O374     1.0000 0.06260  0.66990  0.79530  Biso   1.000  O
  O375     1.0000 0.43740  0.16990  0.70470  Biso   1.000  O
  O376     1.0000 0.56260  0.16990  0.79530  Biso   1.000  O
  O377     1.0000 0.00670  0.28300  0.29450  Biso   1.000  O
  O378     1.0000 0.99330  0.28300  0.20550  Biso   1.000  O
  O379     1.0000 0.50670  0.78300  0.29450  Biso   1.000  O
  O380     1.0000 0.49330  0.78300  0.20550  Biso   1.000  O
  O381     1.0000 0.99330  0.71700  0.70550  Biso   1.000  O
  O382     1.0000 0.00670  0.71700  0.79450  Biso   1.000  O
  O383     1.0000 0.49330  0.21700  0.70550  Biso   1.000  O
  O384     1.0000 0.50670  0.21700  0.79450  Biso   1.000  O
  O385     1.0000 0.05990  0.24300  0.35500  Biso   1.000  O
  O386     1.0000 0.94010  0.24300  0.14500  Biso   1.000  O
  O387     1.0000 0.55990  0.74300  0.35500  Biso   1.000  O
  O388     1.0000 0.44010  0.74300  0.14500  Biso   1.000  O
  O389     1.0000 0.94010  0.75700  0.64500  Biso   1.000  O
  O390     1.0000 0.05990  0.75700  0.85500  Biso   1.000  O
  O391     1.0000 0.44010  0.25700  0.64500  Biso   1.000  O
  O392     1.0000 0.55990  0.25700  0.85500  Biso   1.000  O
