data_image0
_cell_length_a       15.3762
_cell_length_b       25.9847
_cell_length_c       25.4431
_cell_angle_alpha    90
_cell_angle_beta     97.626
_cell_angle_gamma    90

_symmetry_space_group_name_H-M    "P 1"
_symmetry_int_tables_number       1

loop_
  _symmetry_equiv_pos_as_xyz
  'x, y, z'

loop_
  _atom_site_label
  _atom_site_occupancy
  _atom_site_fract_x
  _atom_site_fract_y
  _atom_site_fract_z
  _atom_site_thermal_displace_type
  _atom_site_B_iso_or_equiv
  _atom_site_type_symbol
  Cu1      1.0000 0.64313  0.65820  0.18152  Biso   1.000  Cu
  Cu2      1.0000 0.35687  0.15820  0.31848  Biso   1.000  Cu
  Cu3      1.0000 0.35687  0.34180  0.81848  Biso   1.000  Cu
  Cu4      1.0000 0.64313  0.84180  0.68152  Biso   1.000  Cu
  Cu5      1.0000 0.47123  0.73370  0.24020  Biso   1.000  Cu
  Cu6      1.0000 0.52877  0.23370  0.25980  Biso   1.000  Cu
  Cu7      1.0000 0.52877  0.26630  0.75980  Biso   1.000  Cu
  Cu8      1.0000 0.47123  0.76630  0.74020  Biso   1.000  Cu
  Cu9      1.0000 0.29773  0.68768  0.79422  Biso   1.000  Cu
  Cu10     1.0000 0.70227  0.18768  0.70578  Biso   1.000  Cu
  Cu11     1.0000 0.70227  0.31232  0.20578  Biso   1.000  Cu
  Cu12     1.0000 0.29773  0.81232  0.29422  Biso   1.000  Cu
  S1       1.0000 0.73677  0.52119  0.21812  Biso   1.000  S
  S2       1.0000 0.26323  0.02119  0.28188  Biso   1.000  S
  S3       1.0000 0.26323  0.47881  0.78188  Biso   1.000  S
  S4       1.0000 0.73677  0.97881  0.71812  Biso   1.000  S
  O1       1.0000 0.65470  0.49990  0.19350  Biso   1.000  O
  O2       1.0000 0.34530  0.99990  0.30650  Biso   1.000  O
  O3       1.0000 0.34530  0.50010  0.80650  Biso   1.000  O
  O4       1.0000 0.65470  0.00010  0.69350  Biso   1.000  O
  O5       1.0000 0.76510  0.48520  0.25990  Biso   1.000  O
  O6       1.0000 0.23490  0.98520  0.24010  Biso   1.000  O
  O7       1.0000 0.23490  0.51480  0.74010  Biso   1.000  O
  O8       1.0000 0.76510  0.01480  0.75990  Biso   1.000  O
  O9       1.0000 0.80140  0.52280  0.17980  Biso   1.000  O
  O10      1.0000 0.19860  0.02280  0.32020  Biso   1.000  O
  O11      1.0000 0.19860  0.47720  0.82020  Biso   1.000  O
  O12      1.0000 0.80140  0.97720  0.67980  Biso   1.000  O
  O13      1.0000 0.72510  0.57444  0.23710  Biso   1.000  O
  O14      1.0000 0.27490  0.07444  0.26290  Biso   1.000  O
  O15      1.0000 0.27490  0.42556  0.76290  Biso   1.000  O
  O16      1.0000 0.72510  0.92556  0.73710  Biso   1.000  O
  S5       1.0000 0.39580  0.64720  0.04980  Biso   1.000  S
  S6       1.0000 0.60420  0.14720  0.45020  Biso   1.000  S
  S7       1.0000 0.60420  0.35280  0.95020  Biso   1.000  S
  S8       1.0000 0.39580  0.85280  0.54980  Biso   1.000  S
  O17      1.0000 0.41360  0.62700  0.10440  Biso   1.000  O
  O18      1.0000 0.58640  0.12700  0.39560  Biso   1.000  O
  O19      1.0000 0.58640  0.37300  0.89560  Biso   1.000  O
  O20      1.0000 0.41360  0.87300  0.60440  Biso   1.000  O
  O21      1.0000 0.47890  0.64580  0.02700  Biso   1.000  O
  O22      1.0000 0.52110  0.14580  0.47300  Biso   1.000  O
  O23      1.0000 0.52110  0.35420  0.97300  Biso   1.000  O
  O24      1.0000 0.47890  0.85420  0.52700  Biso   1.000  O
  O25      1.0000 0.33280  0.61430  0.01850  Biso   1.000  O
  O26      1.0000 0.66720  0.11430  0.48150  Biso   1.000  O
  O27      1.0000 0.66720  0.38570  0.98150  Biso   1.000  O
  O28      1.0000 0.33280  0.88570  0.51850  Biso   1.000  O
  O29      1.0000 0.36180  0.69850  0.05350  Biso   1.000  O
  O30      1.0000 0.63820  0.19850  0.44650  Biso   1.000  O
  O31      1.0000 0.63820  0.30150  0.94650  Biso   1.000  O
  O32      1.0000 0.36180  0.80150  0.55350  Biso   1.000  O
  S9       1.0000 0.56181  0.84512  0.41075  Biso   1.000  S
  S10      1.0000 0.43819  0.34512  0.08925  Biso   1.000  S
  S11      1.0000 0.43819  0.15488  0.58925  Biso   1.000  S
  S12      1.0000 0.56181  0.65488  0.91075  Biso   1.000  S
  O33      1.0000 0.56750  0.85240  0.35370  Biso   1.000  O
  O34      1.0000 0.43250  0.35240  0.14630  Biso   1.000  O
  O35      1.0000 0.43250  0.14760  0.64630  Biso   1.000  O
  O36      1.0000 0.56750  0.64760  0.85370  Biso   1.000  O
  O37      1.0000 0.47410  0.86110  0.41960  Biso   1.000  O
  O38      1.0000 0.52590  0.36110  0.08040  Biso   1.000  O
  O39      1.0000 0.52590  0.13890  0.58040  Biso   1.000  O
  O40      1.0000 0.47410  0.63890  0.91960  Biso   1.000  O
  O41      1.0000 0.58260  0.79450  0.41980  Biso   1.000  O
  O42      1.0000 0.41740  0.29450  0.08020  Biso   1.000  O
  O43      1.0000 0.41740  0.20550  0.58020  Biso   1.000  O
  O44      1.0000 0.58260  0.70550  0.91980  Biso   1.000  O
  O45      1.0000 0.62280  0.87990  0.44120  Biso   1.000  O
  O46      1.0000 0.37720  0.37990  0.05880  Biso   1.000  O
  O47      1.0000 0.37720  0.12010  0.55880  Biso   1.000  O
  O48      1.0000 0.62280  0.62010  0.94120  Biso   1.000  O
  S13      1.0000 0.98386  0.84220  0.19342  Biso   1.000  S
  S14      1.0000 0.01614  0.34220  0.30658  Biso   1.000  S
  S15      1.0000 0.01614  0.15780  0.80658  Biso   1.000  S
  S16      1.0000 0.98386  0.65780  0.69342  Biso   1.000  S
  O49      1.0000 0.89200  0.85720  0.19000  Biso   1.000  O
  O50      1.0000 0.10800  0.35720  0.31000  Biso   1.000  O
  O51      1.0000 0.10800  0.14280  0.81000  Biso   1.000  O
  O52      1.0000 0.89200  0.64280  0.69000  Biso   1.000  O
  O53      1.0000 0.99980  0.79437  0.21990  Biso   1.000  O
  O54      1.0000 0.00020  0.29437  0.28010  Biso   1.000  O
  O55      1.0000 0.00020  0.20563  0.78010  Biso   1.000  O
  O56      1.0000 0.99980  0.70563  0.71990  Biso   1.000  O
  O57      1.0000 0.03830  0.88310  0.22270  Biso   1.000  O
  O58      1.0000 0.96170  0.38310  0.27730  Biso   1.000  O
  O59      1.0000 0.96170  0.11690  0.77730  Biso   1.000  O
  O60      1.0000 0.03830  0.61690  0.72270  Biso   1.000  O
  O61      1.0000 0.01560  0.83300  0.13960  Biso   1.000  O
  O62      1.0000 0.98440  0.33300  0.36040  Biso   1.000  O
  O63      1.0000 0.98440  0.16700  0.86040  Biso   1.000  O
  O64      1.0000 0.01560  0.66700  0.63960  Biso   1.000  O
  N1       1.0000 0.56360  0.72521  0.14120  Biso   1.000  N
  N2       1.0000 0.43640  0.22521  0.35880  Biso   1.000  N
  N3       1.0000 0.43640  0.27479  0.85880  Biso   1.000  N
  N4       1.0000 0.56360  0.77479  0.64120  Biso   1.000  N
  N5       1.0000 0.49640  0.74703  0.16401  Biso   1.000  N
  N6       1.0000 0.50360  0.24703  0.33599  Biso   1.000  N
  N7       1.0000 0.50360  0.25297  0.83599  Biso   1.000  N
  N8       1.0000 0.49640  0.75297  0.66401  Biso   1.000  N
  N9       1.0000 0.50380  0.78610  0.08942  Biso   1.000  N
  N10      1.0000 0.49620  0.28610  0.41058  Biso   1.000  N
  N11      1.0000 0.49620  0.21390  0.91058  Biso   1.000  N
  N12      1.0000 0.50380  0.71390  0.58942  Biso   1.000  N
  N13      1.0000 0.44590  0.77649  0.81579  Biso   1.000  N
  N14      1.0000 0.55410  0.27649  0.68421  Biso   1.000  N
  N15      1.0000 0.55410  0.22351  0.18421  Biso   1.000  N
  N16      1.0000 0.44590  0.72351  0.31579  Biso   1.000  N
  N17      1.0000 0.38150  0.74981  0.83671  Biso   1.000  N
  N18      1.0000 0.61850  0.24981  0.66329  Biso   1.000  N
  N19      1.0000 0.61850  0.25019  0.16329  Biso   1.000  N
  N20      1.0000 0.38150  0.75019  0.33671  Biso   1.000  N
  N21      1.0000 0.44250  0.80369  0.89655  Biso   1.000  N
  N22      1.0000 0.55750  0.30369  0.60345  Biso   1.000  N
  N23      1.0000 0.55750  0.19631  0.10345  Biso   1.000  N
  N24      1.0000 0.44250  0.69631  0.39655  Biso   1.000  N
  N25      1.0000 0.68040  0.70080  0.24611  Biso   1.000  N
  N26      1.0000 0.31960  0.20080  0.25389  Biso   1.000  N
  N27      1.0000 0.31960  0.29920  0.75389  Biso   1.000  N
  N28      1.0000 0.68040  0.79920  0.74611  Biso   1.000  N
  N29      1.0000 0.61830  0.72746  0.27022  Biso   1.000  N
  N30      1.0000 0.38170  0.22746  0.22978  Biso   1.000  N
  N31      1.0000 0.38170  0.27254  0.72978  Biso   1.000  N
  N32      1.0000 0.61830  0.77254  0.77022  Biso   1.000  N
  N33      1.0000 0.74920  0.74817  0.30882  Biso   1.000  N
  N34      1.0000 0.25080  0.24817  0.19118  Biso   1.000  N
  N35      1.0000 0.25080  0.25183  0.69118  Biso   1.000  N
  N36      1.0000 0.74920  0.75183  0.80882  Biso   1.000  N
  N37      1.0000 0.17790  0.73638  0.33343  Biso   1.000  N
  N38      1.0000 0.82210  0.23638  0.16657  Biso   1.000  N
  N39      1.0000 0.82210  0.26362  0.66657  Biso   1.000  N
  N40      1.0000 0.17790  0.76362  0.83343  Biso   1.000  N
  N41      1.0000 0.19010  0.78809  0.32228  Biso   1.000  N
  N42      1.0000 0.80990  0.28809  0.17772  Biso   1.000  N
  N43      1.0000 0.80990  0.21191  0.67772  Biso   1.000  N
  N44      1.0000 0.19010  0.71191  0.82228  Biso   1.000  N
  N45      1.0000 0.06400  0.78152  0.35146  Biso   1.000  N
  N46      1.0000 0.93600  0.28152  0.14854  Biso   1.000  N
  N47      1.0000 0.93600  0.21848  0.64854  Biso   1.000  N
  N48      1.0000 0.06400  0.71848  0.85146  Biso   1.000  N
  N49      1.0000 0.32820  0.73842  0.20783  Biso   1.000  N
  N50      1.0000 0.67180  0.23842  0.29217  Biso   1.000  N
  N51      1.0000 0.67180  0.26158  0.79217  Biso   1.000  N
  N52      1.0000 0.32820  0.76158  0.70783  Biso   1.000  N
  N53      1.0000 0.26390  0.76468  0.22961  Biso   1.000  N
  N54      1.0000 0.73610  0.26468  0.27039  Biso   1.000  N
  N55      1.0000 0.73610  0.23532  0.77039  Biso   1.000  N
  N56      1.0000 0.26390  0.73532  0.72961  Biso   1.000  N
  N57      1.0000 0.19990  0.70835  0.17416  Biso   1.000  N
  N58      1.0000 0.80010  0.20835  0.32584  Biso   1.000  N
  N59      1.0000 0.80010  0.29165  0.82584  Biso   1.000  N
  N60      1.0000 0.19990  0.79165  0.67416  Biso   1.000  N
  N61      1.0000 0.77600  0.72192  0.14090  Biso   1.000  N
  N62      1.0000 0.22400  0.22192  0.35910  Biso   1.000  N
  N63      1.0000 0.22400  0.27808  0.85910  Biso   1.000  N
  N64      1.0000 0.77600  0.77808  0.64090  Biso   1.000  N
  N65      1.0000 0.75550  0.67289  0.15643  Biso   1.000  N
  N66      1.0000 0.24450  0.17289  0.34357  Biso   1.000  N
  N67      1.0000 0.24450  0.32711  0.84357  Biso   1.000  N
  N68      1.0000 0.75550  0.82711  0.65643  Biso   1.000  N
  N69      1.0000 0.88810  0.67007  0.13583  Biso   1.000  N
  N70      1.0000 0.11190  0.17007  0.36417  Biso   1.000  N
  N71      1.0000 0.11190  0.32993  0.86417  Biso   1.000  N
  N72      1.0000 0.88810  0.82993  0.63583  Biso   1.000  N
  N73      1.0000 0.52820  0.30984  0.24914  Biso   1.000  N
  N74      1.0000 0.47180  0.80984  0.25086  Biso   1.000  N
  N75      1.0000 0.47180  0.69016  0.75086  Biso   1.000  N
  N76      1.0000 0.52820  0.19016  0.74914  Biso   1.000  N
  N77      1.0000 0.59180  0.34035  0.23143  Biso   1.000  N
  N78      1.0000 0.40820  0.84035  0.26857  Biso   1.000  N
  N79      1.0000 0.40820  0.65965  0.76857  Biso   1.000  N
  N80      1.0000 0.59180  0.15965  0.73143  Biso   1.000  N
  N81      1.0000 0.48630  0.38931  0.25149  Biso   1.000  N
  N82      1.0000 0.51370  0.88931  0.24851  Biso   1.000  N
  N83      1.0000 0.51370  0.61069  0.74851  Biso   1.000  N
  N84      1.0000 0.48630  0.11069  0.75149  Biso   1.000  N
  N85      1.0000 0.47370  0.65771  0.23113  Biso   1.000  N
  N86      1.0000 0.52630  0.15771  0.26887  Biso   1.000  N
  N87      1.0000 0.52630  0.34229  0.76887  Biso   1.000  N
  N88      1.0000 0.47370  0.84229  0.73113  Biso   1.000  N
  N89      1.0000 0.53960  0.63042  0.21169  Biso   1.000  N
  N90      1.0000 0.46040  0.13042  0.28831  Biso   1.000  N
  N91      1.0000 0.46040  0.36958  0.78831  Biso   1.000  N
  N92      1.0000 0.53960  0.86958  0.71169  Biso   1.000  N
  N93      1.0000 0.45050  0.57582  0.24044  Biso   1.000  N
  N94      1.0000 0.54950  0.07582  0.25956  Biso   1.000  N
  N95      1.0000 0.54950  0.42418  0.75956  Biso   1.000  N
  N96      1.0000 0.45050  0.92418  0.74044  Biso   1.000  N
  C1       1.0000 0.56730  0.74914  0.09670  Biso   1.000  C
  C2       1.0000 0.43270  0.24914  0.40330  Biso   1.000  C
  C3       1.0000 0.43270  0.25086  0.90330  Biso   1.000  C
  C4       1.0000 0.56730  0.75086  0.59670  Biso   1.000  C
  H1       1.0000 0.60810  0.74190  0.07280  Biso   1.000  H
  H2       1.0000 0.39190  0.24190  0.42720  Biso   1.000  H
  H3       1.0000 0.39190  0.25810  0.92720  Biso   1.000  H
  H4       1.0000 0.60810  0.75810  0.57280  Biso   1.000  H
  C5       1.0000 0.46200  0.78290  0.13230  Biso   1.000  C
  C6       1.0000 0.53800  0.28290  0.36770  Biso   1.000  C
  C7       1.0000 0.53800  0.21710  0.86770  Biso   1.000  C
  C8       1.0000 0.46200  0.71710  0.63230  Biso   1.000  C
  H5       1.0000 0.41390  0.80400  0.13860  Biso   1.000  H
  H6       1.0000 0.58610  0.30400  0.36140  Biso   1.000  H
  H7       1.0000 0.58610  0.19600  0.86140  Biso   1.000  H
  H8       1.0000 0.41390  0.69600  0.63860  Biso   1.000  H
  C9       1.0000 0.48160  0.80814  0.85280  Biso   1.000  C
  C10      1.0000 0.51840  0.30814  0.64720  Biso   1.000  C
  C11      1.0000 0.51840  0.19186  0.14720  Biso   1.000  C
  C12      1.0000 0.48160  0.69186  0.35280  Biso   1.000  C
  H9       1.0000 0.52860  0.83100  0.84900  Biso   1.000  H
  H10      1.0000 0.47140  0.33100  0.65100  Biso   1.000  H
  H11      1.0000 0.47140  0.16900  0.15100  Biso   1.000  H
  H12      1.0000 0.52860  0.66900  0.34900  Biso   1.000  H
  C13      1.0000 0.38040  0.76647  0.88500  Biso   1.000  C
  C14      1.0000 0.61960  0.26647  0.61500  Biso   1.000  C
  C15      1.0000 0.61960  0.23353  0.11500  Biso   1.000  C
  C16      1.0000 0.38040  0.73353  0.38500  Biso   1.000  C
  H13      1.0000 0.34200  0.75440  0.90860  Biso   1.000  H
  H14      1.0000 0.65800  0.25440  0.59140  Biso   1.000  H
  H15      1.0000 0.65800  0.24560  0.09140  Biso   1.000  H
  H16      1.0000 0.34200  0.74560  0.40860  Biso   1.000  H
  C17      1.0000 0.49020  0.82408  0.04460  Biso   1.000  C
  C18      1.0000 0.50980  0.32408  0.45540  Biso   1.000  C
  C19      1.0000 0.50980  0.17592  0.95540  Biso   1.000  C
  C20      1.0000 0.49020  0.67592  0.54460  Biso   1.000  C
  C21      1.0000 0.47290  0.79381  0.99300  Biso   1.000  C
  C22      1.0000 0.52710  0.29381  0.50700  Biso   1.000  C
  C23      1.0000 0.52710  0.20619  0.00700  Biso   1.000  C
  C24      1.0000 0.47290  0.70619  0.49300  Biso   1.000  C
  H17      1.0000 0.41950  0.77240  0.99280  Biso   1.000  H
  H18      1.0000 0.58050  0.27240  0.50720  Biso   1.000  H
  H19      1.0000 0.58050  0.22760  0.00720  Biso   1.000  H
  H20      1.0000 0.41950  0.72760  0.49280  Biso   1.000  H
  H21      1.0000 0.52300  0.77080  0.98930  Biso   1.000  H
  H22      1.0000 0.47700  0.27080  0.51070  Biso   1.000  H
  H23      1.0000 0.47700  0.22920  0.01070  Biso   1.000  H
  H24      1.0000 0.52300  0.72920  0.48930  Biso   1.000  H
  C25      1.0000 0.46030  0.83262  0.94700  Biso   1.000  C
  C26      1.0000 0.53970  0.33262  0.55300  Biso   1.000  C
  C27      1.0000 0.53970  0.16738  0.05300  Biso   1.000  C
  C28      1.0000 0.46030  0.66738  0.44700  Biso   1.000  C
  C29      1.0000 0.37940  0.86710  0.95280  Biso   1.000  C
  C30      1.0000 0.62060  0.36710  0.54720  Biso   1.000  C
  C31      1.0000 0.62060  0.13290  0.04720  Biso   1.000  C
  C32      1.0000 0.37940  0.63290  0.45280  Biso   1.000  C
  H25      1.0000 0.36880  0.89140  0.92270  Biso   1.000  H
  H26      1.0000 0.63120  0.39140  0.57730  Biso   1.000  H
  H27      1.0000 0.63120  0.10860  0.07730  Biso   1.000  H
  H28      1.0000 0.36880  0.60860  0.42270  Biso   1.000  H
  H29      1.0000 0.32640  0.84560  0.95320  Biso   1.000  H
  H30      1.0000 0.67360  0.34560  0.54680  Biso   1.000  H
  H31      1.0000 0.67360  0.15440  0.04680  Biso   1.000  H
  H32      1.0000 0.32640  0.65440  0.45320  Biso   1.000  H
  C33      1.0000 0.39900  0.89660  0.00470  Biso   1.000  C
  C34      1.0000 0.60100  0.39660  0.49530  Biso   1.000  C
  C35      1.0000 0.60100  0.10340  0.99530  Biso   1.000  C
  C36      1.0000 0.39900  0.60340  0.50470  Biso   1.000  C
  H33      1.0000 0.34820  0.91950  0.00880  Biso   1.000  H
  H34      1.0000 0.65180  0.41950  0.49120  Biso   1.000  H
  H35      1.0000 0.65180  0.08050  0.99120  Biso   1.000  H
  H36      1.0000 0.34820  0.58050  0.50880  Biso   1.000  H
  C37      1.0000 0.41160  0.85810  0.05180  Biso   1.000  C
  C38      1.0000 0.58840  0.35810  0.44820  Biso   1.000  C
  C39      1.0000 0.58840  0.14190  0.94820  Biso   1.000  C
  C40      1.0000 0.41160  0.64190  0.55180  Biso   1.000  C
  H37      1.0000 0.42260  0.87690  0.08590  Biso   1.000  H
  H38      1.0000 0.57740  0.37690  0.41410  Biso   1.000  H
  H39      1.0000 0.57740  0.12310  0.91410  Biso   1.000  H
  H40      1.0000 0.42260  0.62310  0.58590  Biso   1.000  H
  H41      1.0000 0.35830  0.83680  0.05200  Biso   1.000  H
  H42      1.0000 0.64170  0.33680  0.44800  Biso   1.000  H
  H43      1.0000 0.64170  0.16320  0.94800  Biso   1.000  H
  H44      1.0000 0.35830  0.66320  0.55200  Biso   1.000  H
  C41      1.0000 0.57280  0.85670  0.04510  Biso   1.000  C
  C42      1.0000 0.42720  0.35670  0.45490  Biso   1.000  C
  C43      1.0000 0.42720  0.14330  0.95490  Biso   1.000  C
  C44      1.0000 0.57280  0.64330  0.54510  Biso   1.000  C
  H45      1.0000 0.62360  0.83430  0.04130  Biso   1.000  H
  H46      1.0000 0.37640  0.33430  0.45870  Biso   1.000  H
  H47      1.0000 0.37640  0.16570  0.95870  Biso   1.000  H
  H48      1.0000 0.62360  0.66570  0.54130  Biso   1.000  H
  H49      1.0000 0.58500  0.87540  0.07920  Biso   1.000  H
  H50      1.0000 0.41500  0.37540  0.42080  Biso   1.000  H
  H51      1.0000 0.41500  0.12460  0.92080  Biso   1.000  H
  H52      1.0000 0.58500  0.62460  0.57920  Biso   1.000  H
  C45      1.0000 0.55890  0.89510  0.99920  Biso   1.000  C
  C46      1.0000 0.44110  0.39510  0.50080  Biso   1.000  C
  C47      1.0000 0.44110  0.10490  0.00080  Biso   1.000  C
  C48      1.0000 0.55890  0.60490  0.49920  Biso   1.000  C
  H53      1.0000 0.61280  0.91670  0.99940  Biso   1.000  H
  H54      1.0000 0.38720  0.41670  0.50060  Biso   1.000  H
  H55      1.0000 0.38720  0.08330  0.00060  Biso   1.000  H
  H56      1.0000 0.61280  0.58330  0.49940  Biso   1.000  H
  C49      1.0000 0.54210  0.86520  0.94710  Biso   1.000  C
  C50      1.0000 0.45790  0.36520  0.55290  Biso   1.000  C
  C51      1.0000 0.45790  0.13480  0.05290  Biso   1.000  C
  C52      1.0000 0.54210  0.63480  0.44710  Biso   1.000  C
  H57      1.0000 0.53430  0.88940  0.91690  Biso   1.000  H
  H58      1.0000 0.46570  0.38940  0.58310  Biso   1.000  H
  H59      1.0000 0.46570  0.11060  0.08310  Biso   1.000  H
  H60      1.0000 0.53430  0.61060  0.41690  Biso   1.000  H
  H61      1.0000 0.59300  0.84280  0.94330  Biso   1.000  H
  H62      1.0000 0.40700  0.34280  0.55670  Biso   1.000  H
  H63      1.0000 0.40700  0.15720  0.05670  Biso   1.000  H
  H64      1.0000 0.59300  0.65720  0.44330  Biso   1.000  H
  C53      1.0000 0.48110  0.92940  0.00520  Biso   1.000  C
  C54      1.0000 0.51890  0.42940  0.49480  Biso   1.000  C
  C55      1.0000 0.51890  0.07060  0.99480  Biso   1.000  C
  C56      1.0000 0.48110  0.57060  0.50520  Biso   1.000  C
  H65      1.0000 0.47260  0.95460  0.97580  Biso   1.000  H
  H66      1.0000 0.52740  0.45460  0.52420  Biso   1.000  H
  H67      1.0000 0.52740  0.04540  0.02420  Biso   1.000  H
  H68      1.0000 0.47260  0.54540  0.47580  Biso   1.000  H
  H69      1.0000 0.49220  0.94870  0.03900  Biso   1.000  H
  H70      1.0000 0.50780  0.44870  0.46100  Biso   1.000  H
  H71      1.0000 0.50780  0.05130  0.96100  Biso   1.000  H
  H72      1.0000 0.49220  0.55130  0.53900  Biso   1.000  H
  C57      1.0000 0.75850  0.71410  0.26990  Biso   1.000  C
  C58      1.0000 0.24150  0.21410  0.23010  Biso   1.000  C
  C59      1.0000 0.24150  0.28590  0.73010  Biso   1.000  C
  C60      1.0000 0.75850  0.78590  0.76990  Biso   1.000  C
  H73      1.0000 0.81280  0.70170  0.26100  Biso   1.000  H
  H74      1.0000 0.18720  0.20170  0.23900  Biso   1.000  H
  H75      1.0000 0.18720  0.29830  0.73900  Biso   1.000  H
  H76      1.0000 0.81280  0.79830  0.76100  Biso   1.000  H
  C61      1.0000 0.66100  0.75480  0.30740  Biso   1.000  C
  C62      1.0000 0.33900  0.25480  0.19260  Biso   1.000  C
  C63      1.0000 0.33900  0.24520  0.69260  Biso   1.000  C
  C64      1.0000 0.66100  0.74520  0.80740  Biso   1.000  C
  H77      1.0000 0.63450  0.77660  0.33060  Biso   1.000  H
  H78      1.0000 0.36550  0.27660  0.16940  Biso   1.000  H
  H79      1.0000 0.36550  0.22340  0.66940  Biso   1.000  H
  H80      1.0000 0.63450  0.72340  0.83060  Biso   1.000  H
  C65      1.0000 0.10160  0.73440  0.35070  Biso   1.000  C
  C66      1.0000 0.89840  0.23440  0.14930  Biso   1.000  C
  C67      1.0000 0.89840  0.26560  0.64930  Biso   1.000  C
  C68      1.0000 0.10160  0.76560  0.85070  Biso   1.000  C
  H81      1.0000 0.07570  0.70370  0.36150  Biso   1.000  H
  H82      1.0000 0.92430  0.20370  0.13850  Biso   1.000  H
  H83      1.0000 0.92430  0.29630  0.63850  Biso   1.000  H
  H84      1.0000 0.07570  0.79630  0.86150  Biso   1.000  H
  C69      1.0000 0.12150  0.81375  0.33290  Biso   1.000  C
  C70      1.0000 0.87850  0.31375  0.16710  Biso   1.000  C
  C71      1.0000 0.87850  0.18625  0.66710  Biso   1.000  C
  C72      1.0000 0.12150  0.68625  0.83290  Biso   1.000  C
  H85      1.0000 0.11340  0.84980  0.32830  Biso   1.000  H
  H86      1.0000 0.88660  0.34980  0.17170  Biso   1.000  H
  H87      1.0000 0.88660  0.15020  0.67170  Biso   1.000  H
  H88      1.0000 0.11340  0.65020  0.82830  Biso   1.000  H
  C73      1.0000 0.81720  0.77580  0.34450  Biso   1.000  C
  C74      1.0000 0.18280  0.27580  0.15550  Biso   1.000  C
  C75      1.0000 0.18280  0.22420  0.65550  Biso   1.000  C
  C76      1.0000 0.81720  0.72420  0.84450  Biso   1.000  C
  C77      1.0000 0.90770  0.76354  0.32900  Biso   1.000  C
  C78      1.0000 0.09230  0.26354  0.17100  Biso   1.000  C
  C79      1.0000 0.09230  0.23646  0.67100  Biso   1.000  C
  C80      1.0000 0.90770  0.73646  0.82900  Biso   1.000  C
  H89      1.0000 0.91020  0.77380  0.29170  Biso   1.000  H
  H90      1.0000 0.08980  0.27380  0.20830  Biso   1.000  H
  H91      1.0000 0.08980  0.22620  0.70830  Biso   1.000  H
  H92      1.0000 0.91020  0.72620  0.79170  Biso   1.000  H
  H93      1.0000 0.91940  0.72620  0.33240  Biso   1.000  H
  H94      1.0000 0.08060  0.22620  0.16760  Biso   1.000  H
  H95      1.0000 0.08060  0.27380  0.66760  Biso   1.000  H
  H96      1.0000 0.91940  0.77380  0.83240  Biso   1.000  H
  C81      1.0000 0.97580  0.79355  0.36620  Biso   1.000  C
  C82      1.0000 0.02420  0.29355  0.13380  Biso   1.000  C
  C83      1.0000 0.02420  0.20645  0.63380  Biso   1.000  C
  C84      1.0000 0.97580  0.70645  0.86620  Biso   1.000  C
  C85      1.0000 0.95930  0.85150  0.36010  Biso   1.000  C
  C86      1.0000 0.04070  0.35150  0.13990  Biso   1.000  C
  C87      1.0000 0.04070  0.14850  0.63990  Biso   1.000  C
  C88      1.0000 0.95930  0.64850  0.86010  Biso   1.000  C
  H97      1.0000 0.00450  0.87080  0.38370  Biso   1.000  H
  H98      1.0000 0.99550  0.37080  0.11630  Biso   1.000  H
  H99      1.0000 0.99550  0.12920  0.61630  Biso   1.000  H
  H100     1.0000 0.00450  0.62920  0.88370  Biso   1.000  H
  H101     1.0000 0.96240  0.86220  0.32310  Biso   1.000  H
  H102     1.0000 0.03760  0.36220  0.17690  Biso   1.000  H
  H103     1.0000 0.03760  0.13780  0.67690  Biso   1.000  H
  H104     1.0000 0.96240  0.63780  0.82310  Biso   1.000  H
  C89      1.0000 0.86810  0.86300  0.37510  Biso   1.000  C
  C90      1.0000 0.13190  0.36300  0.12490  Biso   1.000  C
  C91      1.0000 0.13190  0.13700  0.62490  Biso   1.000  C
  C92      1.0000 0.86810  0.63700  0.87510  Biso   1.000  C
  H105     1.0000 0.85640  0.90080  0.37120  Biso   1.000  H
  H106     1.0000 0.14360  0.40080  0.12880  Biso   1.000  H
  H107     1.0000 0.14360  0.09920  0.62880  Biso   1.000  H
  H108     1.0000 0.85640  0.59920  0.87120  Biso   1.000  H
  C93      1.0000 0.79990  0.83406  0.33800  Biso   1.000  C
  C94      1.0000 0.20010  0.33406  0.16200  Biso   1.000  C
  C95      1.0000 0.20010  0.16594  0.66200  Biso   1.000  C
  C96      1.0000 0.79990  0.66594  0.83800  Biso   1.000  C
  H109     1.0000 0.80310  0.84450  0.30090  Biso   1.000  H
  H110     1.0000 0.19690  0.34450  0.19910  Biso   1.000  H
  H111     1.0000 0.19690  0.15550  0.69910  Biso   1.000  H
  H112     1.0000 0.80310  0.65550  0.80090  Biso   1.000  H
  H113     1.0000 0.74040  0.84230  0.34650  Biso   1.000  H
  H114     1.0000 0.25960  0.34230  0.15350  Biso   1.000  H
  H115     1.0000 0.25960  0.15770  0.65350  Biso   1.000  H
  H116     1.0000 0.74040  0.65770  0.84650  Biso   1.000  H
  C97      1.0000 0.81270  0.75990  0.40170  Biso   1.000  C
  C98      1.0000 0.18730  0.25990  0.09830  Biso   1.000  C
  C99      1.0000 0.18730  0.24010  0.59830  Biso   1.000  C
  C100     1.0000 0.81270  0.74010  0.90170  Biso   1.000  C
  H117     1.0000 0.75360  0.76720  0.41120  Biso   1.000  H
  H118     1.0000 0.24640  0.26720  0.08880  Biso   1.000  H
  H119     1.0000 0.24640  0.23280  0.58880  Biso   1.000  H
  H120     1.0000 0.75360  0.73280  0.91120  Biso   1.000  H
  H121     1.0000 0.82380  0.72250  0.40590  Biso   1.000  H
  H122     1.0000 0.17620  0.22250  0.09410  Biso   1.000  H
  H123     1.0000 0.17620  0.27750  0.59410  Biso   1.000  H
  H124     1.0000 0.82380  0.77750  0.90590  Biso   1.000  H
  C101     1.0000 0.88140  0.78980  0.43810  Biso   1.000  C
  C102     1.0000 0.11860  0.28980  0.06190  Biso   1.000  C
  C103     1.0000 0.11860  0.21020  0.56190  Biso   1.000  C
  C104     1.0000 0.88140  0.71020  0.93810  Biso   1.000  C
  H125     1.0000 0.87870  0.77910  0.47560  Biso   1.000  H
  H126     1.0000 0.12130  0.27910  0.02440  Biso   1.000  H
  H127     1.0000 0.12130  0.22090  0.52440  Biso   1.000  H
  H128     1.0000 0.87870  0.72090  0.97560  Biso   1.000  H
  C105     1.0000 0.97260  0.77740  0.42370  Biso   1.000  C
  C106     1.0000 0.02740  0.27740  0.07630  Biso   1.000  C
  C107     1.0000 0.02740  0.22260  0.57630  Biso   1.000  C
  C108     1.0000 0.97260  0.72260  0.92370  Biso   1.000  C
  H129     1.0000 0.01780  0.79630  0.44750  Biso   1.000  H
  H130     1.0000 0.98220  0.29630  0.05250  Biso   1.000  H
  H131     1.0000 0.98220  0.20370  0.55250  Biso   1.000  H
  H132     1.0000 0.01780  0.70370  0.94750  Biso   1.000  H
  H133     1.0000 0.98440  0.74010  0.42780  Biso   1.000  H
  H134     1.0000 0.01560  0.24010  0.07220  Biso   1.000  H
  H135     1.0000 0.01560  0.25990  0.57220  Biso   1.000  H
  H136     1.0000 0.98440  0.75990  0.92780  Biso   1.000  H
  C109     1.0000 0.86390  0.84740  0.43280  Biso   1.000  C
  C110     1.0000 0.13610  0.34740  0.06720  Biso   1.000  C
  C111     1.0000 0.13610  0.15260  0.56720  Biso   1.000  C
  C112     1.0000 0.86390  0.65260  0.93280  Biso   1.000  C
  H137     1.0000 0.90850  0.86660  0.45680  Biso   1.000  H
  H138     1.0000 0.09150  0.36660  0.04320  Biso   1.000  H
  H139     1.0000 0.09150  0.13340  0.54320  Biso   1.000  H
  H140     1.0000 0.90850  0.63340  0.95680  Biso   1.000  H
  H141     1.0000 0.80530  0.85550  0.44270  Biso   1.000  H
  H142     1.0000 0.19470  0.35550  0.05730  Biso   1.000  H
  H143     1.0000 0.19470  0.14450  0.55730  Biso   1.000  H
  H144     1.0000 0.80530  0.64450  0.94270  Biso   1.000  H
  C113     1.0000 0.28790  0.70470  0.17460  Biso   1.000  C
  C114     1.0000 0.71210  0.20470  0.32540  Biso   1.000  C
  C115     1.0000 0.71210  0.29530  0.82540  Biso   1.000  C
  C116     1.0000 0.28790  0.79530  0.67460  Biso   1.000  C
  H145     1.0000 0.31630  0.68110  0.15390  Biso   1.000  H
  H146     1.0000 0.68370  0.18110  0.34610  Biso   1.000  H
  H147     1.0000 0.68370  0.31890  0.84610  Biso   1.000  H
  H148     1.0000 0.31630  0.81890  0.65390  Biso   1.000  H
  C117     1.0000 0.18790  0.74630  0.20880  Biso   1.000  C
  C118     1.0000 0.81210  0.24630  0.29120  Biso   1.000  C
  C119     1.0000 0.81210  0.25370  0.79120  Biso   1.000  C
  C120     1.0000 0.18790  0.75370  0.70880  Biso   1.000  C
  H149     1.0000 0.13260  0.75790  0.21690  Biso   1.000  H
  H150     1.0000 0.86740  0.25790  0.28310  Biso   1.000  H
  H151     1.0000 0.86740  0.24210  0.78310  Biso   1.000  H
  H152     1.0000 0.13260  0.74210  0.71690  Biso   1.000  H
  C121     1.0000 0.85580  0.71880  0.12880  Biso   1.000  C
  C122     1.0000 0.14420  0.21880  0.37120  Biso   1.000  C
  C123     1.0000 0.14420  0.28120  0.87120  Biso   1.000  C
  C124     1.0000 0.85580  0.78120  0.62880  Biso   1.000  C
  H153     1.0000 0.88720  0.74690  0.11670  Biso   1.000  H
  H154     1.0000 0.11280  0.24690  0.38330  Biso   1.000  H
  H155     1.0000 0.11280  0.25310  0.88330  Biso   1.000  H
  H156     1.0000 0.88720  0.75310  0.61670  Biso   1.000  H
  C125     1.0000 0.82360  0.64220  0.15290  Biso   1.000  C
  C126     1.0000 0.17640  0.14220  0.34710  Biso   1.000  C
  C127     1.0000 0.17640  0.35780  0.84710  Biso   1.000  C
  C128     1.0000 0.82360  0.85780  0.65290  Biso   1.000  C
  H157     1.0000 0.82620  0.60650  0.16100  Biso   1.000  H
  H158     1.0000 0.17380  0.10650  0.33900  Biso   1.000  H
  H159     1.0000 0.17380  0.39350  0.83900  Biso   1.000  H
  H160     1.0000 0.82620  0.89350  0.66100  Biso   1.000  H
  C129     1.0000 0.13470  0.67250  0.14530  Biso   1.000  C
  C130     1.0000 0.86530  0.17250  0.35470  Biso   1.000  C
  C131     1.0000 0.86530  0.32750  0.85470  Biso   1.000  C
  C132     1.0000 0.13470  0.82750  0.64530  Biso   1.000  C
  C133     1.0000 0.14210  0.67460  0.08620  Biso   1.000  C
  C134     1.0000 0.85790  0.17460  0.41380  Biso   1.000  C
  C135     1.0000 0.85790  0.32540  0.91380  Biso   1.000  C
  C136     1.0000 0.14210  0.82540  0.58620  Biso   1.000  C
  H161     1.0000 0.20190  0.66460  0.08000  Biso   1.000  H
  H162     1.0000 0.79810  0.16460  0.42000  Biso   1.000  H
  H163     1.0000 0.79810  0.33540  0.92000  Biso   1.000  H
  H164     1.0000 0.20190  0.83540  0.58000  Biso   1.000  H
  H165     1.0000 0.13070  0.71000  0.07280  Biso   1.000  H
  H166     1.0000 0.86930  0.21000  0.42720  Biso   1.000  H
  H167     1.0000 0.86930  0.29000  0.92720  Biso   1.000  H
  H168     1.0000 0.13070  0.79000  0.57280  Biso   1.000  H
  C137     1.0000 0.07440  0.63740  0.05710  Biso   1.000  C
  C138     1.0000 0.92560  0.13740  0.44290  Biso   1.000  C
  C139     1.0000 0.92560  0.36260  0.94290  Biso   1.000  C
  C140     1.0000 0.07440  0.86260  0.55710  Biso   1.000  C
  H169     1.0000 0.07860  0.63830  0.01830  Biso   1.000  H
  H170     1.0000 0.92140  0.13830  0.48170  Biso   1.000  H
  H171     1.0000 0.92140  0.36170  0.98170  Biso   1.000  H
  H172     1.0000 0.07860  0.86170  0.51830  Biso   1.000  H
  C141     1.0000 0.98270  0.65410  0.06670  Biso   1.000  C
  C142     1.0000 0.01730  0.15410  0.43330  Biso   1.000  C
  C143     1.0000 0.01730  0.34590  0.93330  Biso   1.000  C
  C144     1.0000 0.98270  0.84590  0.56670  Biso   1.000  C
  H173     1.0000 0.93840  0.63080  0.04750  Biso   1.000  H
  H174     1.0000 0.06160  0.13080  0.45250  Biso   1.000  H
  H175     1.0000 0.06160  0.36920  0.95250  Biso   1.000  H
  H176     1.0000 0.93840  0.86920  0.54750  Biso   1.000  H
  H177     1.0000 0.97090  0.68950  0.05320  Biso   1.000  H
  H178     1.0000 0.02910  0.18950  0.44680  Biso   1.000  H
  H179     1.0000 0.02910  0.31050  0.94680  Biso   1.000  H
  H180     1.0000 0.97090  0.81050  0.55320  Biso   1.000  H
  C145     1.0000 0.97600  0.65230  0.12630  Biso   1.000  C
  C146     1.0000 0.02400  0.15230  0.37370  Biso   1.000  C
  C147     1.0000 0.02400  0.34770  0.87370  Biso   1.000  C
  C148     1.0000 0.97600  0.84770  0.62630  Biso   1.000  C
  C149     1.0000 0.04310  0.68937  0.15570  Biso   1.000  C
  C150     1.0000 0.95690  0.18937  0.34430  Biso   1.000  C
  C151     1.0000 0.95690  0.31063  0.84430  Biso   1.000  C
  C152     1.0000 0.04310  0.81063  0.65570  Biso   1.000  C
  H181     1.0000 0.03130  0.72500  0.14280  Biso   1.000  H
  H182     1.0000 0.96870  0.22500  0.35720  Biso   1.000  H
  H183     1.0000 0.96870  0.27500  0.85720  Biso   1.000  H
  H184     1.0000 0.03130  0.77500  0.64280  Biso   1.000  H
  H185     1.0000 0.03920  0.68850  0.19420  Biso   1.000  H
  H186     1.0000 0.96080  0.18850  0.30580  Biso   1.000  H
  H187     1.0000 0.96080  0.31150  0.80580  Biso   1.000  H
  H188     1.0000 0.03920  0.81150  0.69420  Biso   1.000  H
  C153     1.0000 0.15350  0.61850  0.16650  Biso   1.000  C
  C154     1.0000 0.84650  0.11850  0.33350  Biso   1.000  C
  C155     1.0000 0.84650  0.38150  0.83350  Biso   1.000  C
  C156     1.0000 0.15350  0.88150  0.66650  Biso   1.000  C
  H189     1.0000 0.15010  0.61770  0.20510  Biso   1.000  H
  H190     1.0000 0.84990  0.11770  0.29490  Biso   1.000  H
  H191     1.0000 0.84990  0.38230  0.79490  Biso   1.000  H
  H192     1.0000 0.15010  0.88230  0.70510  Biso   1.000  H
  H193     1.0000 0.21320  0.60790  0.16070  Biso   1.000  H
  H194     1.0000 0.78680  0.10790  0.33930  Biso   1.000  H
  H195     1.0000 0.78680  0.39210  0.83930  Biso   1.000  H
  H196     1.0000 0.21320  0.89210  0.66070  Biso   1.000  H
  C157     1.0000 0.08540  0.58160  0.13760  Biso   1.000  C
  C158     1.0000 0.91460  0.08160  0.36240  Biso   1.000  C
  C159     1.0000 0.91460  0.41840  0.86240  Biso   1.000  C
  C160     1.0000 0.08540  0.91840  0.63760  Biso   1.000  C
  H197     1.0000 0.09760  0.54590  0.15130  Biso   1.000  H
  H198     1.0000 0.90240  0.04590  0.34870  Biso   1.000  H
  H199     1.0000 0.90240  0.45410  0.84870  Biso   1.000  H
  H200     1.0000 0.09760  0.95410  0.65130  Biso   1.000  H
  C161     1.0000 0.99370  0.59745  0.14730  Biso   1.000  C
  C162     1.0000 0.00630  0.09745  0.35270  Biso   1.000  C
  C163     1.0000 0.00630  0.40255  0.85270  Biso   1.000  C
  C164     1.0000 0.99370  0.90255  0.64730  Biso   1.000  C
  H201     1.0000 0.98900  0.59620  0.18570  Biso   1.000  H
  H202     1.0000 0.01100  0.09620  0.31430  Biso   1.000  H
  H203     1.0000 0.01100  0.40380  0.81430  Biso   1.000  H
  H204     1.0000 0.98900  0.90380  0.68570  Biso   1.000  H
  H205     1.0000 0.94980  0.57350  0.12880  Biso   1.000  H
  H206     1.0000 0.05020  0.07350  0.37120  Biso   1.000  H
  H207     1.0000 0.05020  0.42650  0.87120  Biso   1.000  H
  H208     1.0000 0.94980  0.92650  0.62880  Biso   1.000  H
  C165     1.0000 0.09240  0.58290  0.07800  Biso   1.000  C
  C166     1.0000 0.90760  0.08290  0.42200  Biso   1.000  C
  C167     1.0000 0.90760  0.41710  0.92200  Biso   1.000  C
  C168     1.0000 0.09240  0.91710  0.57800  Biso   1.000  C
  H209     1.0000 0.15190  0.57200  0.07180  Biso   1.000  H
  H210     1.0000 0.84810  0.07200  0.42820  Biso   1.000  H
  H211     1.0000 0.84810  0.42800  0.92820  Biso   1.000  H
  H212     1.0000 0.15190  0.92800  0.57180  Biso   1.000  H
  H213     1.0000 0.04930  0.55880  0.05910  Biso   1.000  H
  H214     1.0000 0.95070  0.05880  0.44090  Biso   1.000  H
  H215     1.0000 0.95070  0.44120  0.94090  Biso   1.000  H
  H216     1.0000 0.04930  0.94120  0.55910  Biso   1.000  H
  C169     1.0000 0.46530  0.34026  0.26070  Biso   1.000  C
  C170     1.0000 0.53470  0.84026  0.23930  Biso   1.000  C
  C171     1.0000 0.53470  0.65974  0.73930  Biso   1.000  C
  C172     1.0000 0.46530  0.15974  0.76070  Biso   1.000  C
  H217     1.0000 0.41320  0.32930  0.27360  Biso   1.000  H
  H218     1.0000 0.58680  0.82930  0.22640  Biso   1.000  H
  H219     1.0000 0.58680  0.67070  0.72640  Biso   1.000  H
  H220     1.0000 0.41320  0.17070  0.77360  Biso   1.000  H
  C173     1.0000 0.56500  0.38789  0.23330  Biso   1.000  C
  C174     1.0000 0.43500  0.88789  0.26670  Biso   1.000  C
  C175     1.0000 0.43500  0.61211  0.76670  Biso   1.000  C
  C176     1.0000 0.56500  0.11211  0.73330  Biso   1.000  C
  H221     1.0000 0.59610  0.41710  0.22340  Biso   1.000  H
  H222     1.0000 0.40390  0.91710  0.27660  Biso   1.000  H
  H223     1.0000 0.40390  0.58290  0.77660  Biso   1.000  H
  H224     1.0000 0.59610  0.08290  0.72340  Biso   1.000  H
  C177     1.0000 0.42020  0.62395  0.24790  Biso   1.000  C
  C178     1.0000 0.57980  0.12395  0.25210  Biso   1.000  C
  C179     1.0000 0.57980  0.37605  0.75210  Biso   1.000  C
  C180     1.0000 0.42020  0.87605  0.74790  Biso   1.000  C
  H225     1.0000 0.36850  0.63200  0.26300  Biso   1.000  H
  H226     1.0000 0.63150  0.13200  0.23700  Biso   1.000  H
  H227     1.0000 0.63150  0.36800  0.73700  Biso   1.000  H
  H228     1.0000 0.36850  0.86800  0.76300  Biso   1.000  H
  C181     1.0000 0.52370  0.58173  0.21760  Biso   1.000  C
  C182     1.0000 0.47630  0.08173  0.28240  Biso   1.000  C
  C183     1.0000 0.47630  0.41827  0.78240  Biso   1.000  C
  C184     1.0000 0.52370  0.91827  0.71760  Biso   1.000  C
  H229     1.0000 0.55880  0.55440  0.20730  Biso   1.000  H
  H230     1.0000 0.44120  0.05440  0.29270  Biso   1.000  H
  H231     1.0000 0.44120  0.44560  0.79270  Biso   1.000  H
  H232     1.0000 0.55880  0.94560  0.70730  Biso   1.000  H
  C185     1.0000 0.42920  0.43333  0.26280  Biso   1.000  C
  C186     1.0000 0.57080  0.93333  0.23720  Biso   1.000  C
  C187     1.0000 0.57080  0.56667  0.73720  Biso   1.000  C
  C188     1.0000 0.42920  0.06667  0.76280  Biso   1.000  C
  C189     1.0000 0.41050  0.52747  0.25720  Biso   1.000  C
  C190     1.0000 0.58950  0.02747  0.24280  Biso   1.000  C
  C191     1.0000 0.58950  0.47253  0.74280  Biso   1.000  C
  C192     1.0000 0.41050  0.97253  0.75720  Biso   1.000  C
  C193     1.0000 0.47000  0.48287  0.24510  Biso   1.000  C
  C194     1.0000 0.53000  0.98287  0.25490  Biso   1.000  C
  C195     1.0000 0.53000  0.51713  0.75490  Biso   1.000  C
  C196     1.0000 0.47000  0.01713  0.74510  Biso   1.000  C
  H233     1.0000 0.47440  0.48150  0.20660  Biso   1.000  H
  H234     1.0000 0.52560  0.98150  0.29340  Biso   1.000  H
  H235     1.0000 0.52560  0.51850  0.79340  Biso   1.000  H
  H236     1.0000 0.47440  0.01850  0.70660  Biso   1.000  H
  H237     1.0000 0.52970  0.48750  0.26450  Biso   1.000  H
  H238     1.0000 0.47030  0.98750  0.23550  Biso   1.000  H
  H239     1.0000 0.47030  0.51250  0.73550  Biso   1.000  H
  H240     1.0000 0.52970  0.01250  0.76450  Biso   1.000  H
  C197     1.0000 0.31890  0.52121  0.22620  Biso   1.000  C
  C198     1.0000 0.68110  0.02121  0.27380  Biso   1.000  C
  C199     1.0000 0.68110  0.47879  0.77380  Biso   1.000  C
  C200     1.0000 0.31890  0.97879  0.72620  Biso   1.000  C
  H241     1.0000 0.32260  0.52080  0.18770  Biso   1.000  H
  H242     1.0000 0.67740  0.02080  0.31230  Biso   1.000  H
  H243     1.0000 0.67740  0.47920  0.81230  Biso   1.000  H
  H244     1.0000 0.32260  0.97920  0.68770  Biso   1.000  H
  H245     1.0000 0.28110  0.55040  0.23390  Biso   1.000  H
  H246     1.0000 0.71890  0.05040  0.26610  Biso   1.000  H
  H247     1.0000 0.71890  0.44960  0.76610  Biso   1.000  H
  H248     1.0000 0.28110  0.94960  0.73390  Biso   1.000  H
  C201     1.0000 0.27980  0.47063  0.24280  Biso   1.000  C
  C202     1.0000 0.72020  0.97063  0.25720  Biso   1.000  C
  C203     1.0000 0.72020  0.52937  0.75720  Biso   1.000  C
  C204     1.0000 0.27980  0.02937  0.74280  Biso   1.000  C
  H249     1.0000 0.22000  0.46590  0.22250  Biso   1.000  H
  H250     1.0000 0.78000  0.96590  0.27750  Biso   1.000  H
  H251     1.0000 0.78000  0.53410  0.77750  Biso   1.000  H
  H252     1.0000 0.22000  0.03410  0.72250  Biso   1.000  H
  C205     1.0000 0.33890  0.42552  0.23120  Biso   1.000  C
  C206     1.0000 0.66110  0.92552  0.26880  Biso   1.000  C
  C207     1.0000 0.66110  0.57448  0.76880  Biso   1.000  C
  C208     1.0000 0.33890  0.07448  0.73120  Biso   1.000  C
  H253     1.0000 0.31330  0.39260  0.24150  Biso   1.000  H
  H254     1.0000 0.68670  0.89260  0.25850  Biso   1.000  H
  H255     1.0000 0.68670  0.60740  0.75850  Biso   1.000  H
  H256     1.0000 0.31330  0.10740  0.74150  Biso   1.000  H
  H257     1.0000 0.34380  0.42420  0.19280  Biso   1.000  H
  H258     1.0000 0.65620  0.92420  0.30720  Biso   1.000  H
  H259     1.0000 0.65620  0.57580  0.80720  Biso   1.000  H
  H260     1.0000 0.34380  0.07580  0.69280  Biso   1.000  H
  C209     1.0000 0.42300  0.43468  0.32140  Biso   1.000  C
  C210     1.0000 0.57700  0.93468  0.17860  Biso   1.000  C
  C211     1.0000 0.57700  0.56532  0.67860  Biso   1.000  C
  C212     1.0000 0.42300  0.06532  0.82140  Biso   1.000  C
  H261     1.0000 0.48230  0.43870  0.34150  Biso   1.000  H
  H262     1.0000 0.51770  0.93870  0.15850  Biso   1.000  H
  H263     1.0000 0.51770  0.56130  0.65850  Biso   1.000  H
  H264     1.0000 0.48230  0.06130  0.84150  Biso   1.000  H
  H265     1.0000 0.39770  0.40200  0.33240  Biso   1.000  H
  H266     1.0000 0.60230  0.90200  0.16760  Biso   1.000  H
  H267     1.0000 0.60230  0.59800  0.66760  Biso   1.000  H
  H268     1.0000 0.39770  0.09800  0.83240  Biso   1.000  H
  C213     1.0000 0.36480  0.47985  0.33340  Biso   1.000  C
  C214     1.0000 0.63520  0.97985  0.16660  Biso   1.000  C
  C215     1.0000 0.63520  0.52015  0.66660  Biso   1.000  C
  C216     1.0000 0.36480  0.02015  0.83340  Biso   1.000  C
  H269     1.0000 0.36050  0.48100  0.37220  Biso   1.000  H
  H270     1.0000 0.63950  0.98100  0.12780  Biso   1.000  H
  H271     1.0000 0.63950  0.51900  0.62780  Biso   1.000  H
  H272     1.0000 0.36050  0.01900  0.87220  Biso   1.000  H
  C217     1.0000 0.40410  0.53023  0.31620  Biso   1.000  C
  C218     1.0000 0.59590  0.03023  0.18380  Biso   1.000  C
  C219     1.0000 0.59590  0.46977  0.68380  Biso   1.000  C
  C220     1.0000 0.40410  0.96977  0.81620  Biso   1.000  C
  H273     1.0000 0.36650  0.55960  0.32370  Biso   1.000  H
  H274     1.0000 0.63350  0.05960  0.17630  Biso   1.000  H
  H275     1.0000 0.63350  0.44040  0.67630  Biso   1.000  H
  H276     1.0000 0.36650  0.94040  0.82370  Biso   1.000  H
  H277     1.0000 0.46320  0.53550  0.33630  Biso   1.000  H
  H278     1.0000 0.53680  0.03550  0.16370  Biso   1.000  H
  H279     1.0000 0.53680  0.46450  0.66370  Biso   1.000  H
  H280     1.0000 0.46320  0.96450  0.83630  Biso   1.000  H
  C221     1.0000 0.27260  0.47220  0.30210  Biso   1.000  C
  C222     1.0000 0.72740  0.97220  0.19790  Biso   1.000  C
  C223     1.0000 0.72740  0.52780  0.69790  Biso   1.000  C
  C224     1.0000 0.27260  0.02780  0.80210  Biso   1.000  C
  H281     1.0000 0.24690  0.43960  0.31300  Biso   1.000  H
  H282     1.0000 0.75310  0.93960  0.18700  Biso   1.000  H
  H283     1.0000 0.75310  0.56040  0.68700  Biso   1.000  H
  H284     1.0000 0.24690  0.06040  0.81300  Biso   1.000  H
  H285     1.0000 0.23360  0.50080  0.30970  Biso   1.000  H
  H286     1.0000 0.76640  0.00080  0.19030  Biso   1.000  H
  H287     1.0000 0.76640  0.49920  0.69030  Biso   1.000  H
  H288     1.0000 0.23360  0.99920  0.80970  Biso   1.000  H
  O65      1.0000 0.60830  0.61196  0.12002  Biso   1.000  O
  O66      1.0000 0.39170  0.11196  0.37998  Biso   1.000  O
  O67      1.0000 0.39170  0.38804  0.87998  Biso   1.000  O
  O68      1.0000 0.60830  0.88804  0.62002  Biso   1.000  O
  H289     1.0000 0.63810  0.61880  0.09470  Biso   1.000  H
  H290     1.0000 0.36190  0.11880  0.40530  Biso   1.000  H
  H291     1.0000 0.36190  0.38120  0.90530  Biso   1.000  H
  H292     1.0000 0.63810  0.88120  0.59470  Biso   1.000  H
  H293     1.0000 0.55410  0.61600  0.10810  Biso   1.000  H
  H294     1.0000 0.44590  0.11600  0.39190  Biso   1.000  H
  H295     1.0000 0.44590  0.38400  0.89190  Biso   1.000  H
  H296     1.0000 0.55410  0.88400  0.60810  Biso   1.000  H
  O69      1.0000 0.32380  0.63789  0.85358  Biso   1.000  O
  O70      1.0000 0.67620  0.13789  0.64642  Biso   1.000  O
  O71      1.0000 0.67620  0.36211  0.14642  Biso   1.000  O
  O72      1.0000 0.32380  0.86211  0.35358  Biso   1.000  O
  H297     1.0000 0.37210  0.64520  0.87310  Biso   1.000  H
  H298     1.0000 0.62790  0.14520  0.62690  Biso   1.000  H
  H299     1.0000 0.62790  0.35480  0.12690  Biso   1.000  H
  H300     1.0000 0.37210  0.85480  0.37310  Biso   1.000  H
  H301     1.0000 0.28300  0.63760  0.87360  Biso   1.000  H
  H302     1.0000 0.71700  0.13760  0.62640  Biso   1.000  H
  H303     1.0000 0.71700  0.36240  0.12640  Biso   1.000  H
  H304     1.0000 0.28300  0.86240  0.37360  Biso   1.000  H
  O73      1.0000 0.21570  0.62026  0.74520  Biso   1.000  O
  O74      1.0000 0.78430  0.12026  0.75480  Biso   1.000  O
  O75      1.0000 0.78430  0.37974  0.25480  Biso   1.000  O
  O76      1.0000 0.21570  0.87974  0.24520  Biso   1.000  O
  H305     1.0000 0.23400  0.59010  0.75510  Biso   1.000  H
  H306     1.0000 0.76600  0.09010  0.74490  Biso   1.000  H
  H307     1.0000 0.76600  0.40990  0.24490  Biso   1.000  H
  H308     1.0000 0.23400  0.90990  0.25510  Biso   1.000  H
  H309     1.0000 0.16060  0.62180  0.74740  Biso   1.000  H
  H310     1.0000 0.83940  0.12180  0.75260  Biso   1.000  H
  H311     1.0000 0.83940  0.37820  0.25260  Biso   1.000  H
  H312     1.0000 0.16060  0.87820  0.24740  Biso   1.000  H
  O77      1.0000 0.26270  0.64138  0.30747  Biso   1.000  O
  O78      1.0000 0.73730  0.14138  0.19253  Biso   1.000  O
  O79      1.0000 0.73730  0.35862  0.69253  Biso   1.000  O
  O80      1.0000 0.26270  0.85862  0.80747  Biso   1.000  O
  O81      1.0000 0.69390  0.76867  0.50830  Biso   1.000  O
  O82      1.0000 0.30610  0.26867  0.99170  Biso   1.000  O
  O83      1.0000 0.30610  0.23133  0.49170  Biso   1.000  O
  O84      1.0000 0.69390  0.73133  0.00830  Biso   1.000  O
  O85      1.0000 0.71530  0.81759  0.18800  Biso   1.000  O
  O86      1.0000 0.28470  0.31759  0.31200  Biso   1.000  O
  O87      1.0000 0.28470  0.18241  0.81200  Biso   1.000  O
  O88      1.0000 0.71530  0.68241  0.68800  Biso   1.000  O
  O89      1.0000 0.79640  0.68028  0.51300  Biso   1.000  O
  O90      1.0000 0.20360  0.18028  0.98700  Biso   1.000  O
  O91      1.0000 0.20360  0.31972  0.48700  Biso   1.000  O
  O92      1.0000 0.79640  0.81972  0.01300  Biso   1.000  O
  O93      1.0000 0.17720  0.57323  0.37120  Biso   1.000  O
  O94      1.0000 0.82280  0.07323  0.12880  Biso   1.000  O
  O95      1.0000 0.82280  0.42677  0.62880  Biso   1.000  O
  O96      1.0000 0.17720  0.92677  0.87120  Biso   1.000  O
  O97      1.0000 0.64260  0.60760  0.33540  Biso   1.000  O
  O98      1.0000 0.35740  0.10760  0.16460  Biso   1.000  O
  O99      1.0000 0.35740  0.39240  0.66460  Biso   1.000  O
  O100     1.0000 0.64260  0.89240  0.83540  Biso   1.000  O
  O101     1.0000 0.77320  0.61230  0.42720  Biso   1.000  O
  O102     1.0000 0.22680  0.11230  0.07280  Biso   1.000  O
  O103     1.0000 0.22680  0.38770  0.57280  Biso   1.000  O
  O104     1.0000 0.77320  0.88770  0.92720  Biso   1.000  O
  O105     1.0000 0.90060  0.61860  0.27650  Biso   1.000  O
  O106     1.0000 0.09940  0.11860  0.22350  Biso   1.000  O
  O107     1.0000 0.09940  0.38140  0.72350  Biso   1.000  O
  O108     1.0000 0.90060  0.88140  0.77650  Biso   1.000  O
  O109     1.0000 0.70150  0.87350  0.53940  Biso   1.000  O
  O110     1.0000 0.29850  0.37350  0.96060  Biso   1.000  O
  O111     1.0000 0.29850  0.12650  0.46060  Biso   1.000  O
  O112     1.0000 0.70150  0.62650  0.03940  Biso   1.000  O
  O113     1.0000 0.13270  0.70690  0.50140  Biso   1.000  O
  O114     1.0000 0.86730  0.20690  0.99860  Biso   1.000  O
  O115     1.0000 0.86730  0.29310  0.49860  Biso   1.000  O
  O116     1.0000 0.13270  0.79310  0.00140  Biso   1.000  O
  O117     1.0000 0.24240  0.77940  0.46670  Biso   1.000  O
  O118     1.0000 0.75760  0.27940  0.03330  Biso   1.000  O
  O119     1.0000 0.75760  0.22060  0.53330  Biso   1.000  O
  O120     1.0000 0.24240  0.72060  0.96670  Biso   1.000  O
  O121     1.0000 0.96720  0.70740  0.54630  Biso   1.000  O
  O122     1.0000 0.03280  0.20740  0.95370  Biso   1.000  O
  O123     1.0000 0.03280  0.29260  0.45370  Biso   1.000  O
  O124     1.0000 0.96720  0.79260  0.04630  Biso   1.000  O
  O125     1.0000 0.30800  0.86730  0.15620  Biso   1.000  O
  O126     1.0000 0.69200  0.36730  0.34380  Biso   1.000  O
  O127     1.0000 0.69200  0.13270  0.84380  Biso   1.000  O
  O128     1.0000 0.30800  0.63270  0.65620  Biso   1.000  O
  O129     1.0000 0.92720  0.63820  0.38530  Biso   1.000  O
  O130     1.0000 0.07280  0.13820  0.11470  Biso   1.000  O
  O131     1.0000 0.07280  0.36180  0.61470  Biso   1.000  O
  O132     1.0000 0.92720  0.86180  0.88530  Biso   1.000  O
  O133     1.0000 0.20860  0.88460  0.42820  Biso   1.000  O
  O134     1.0000 0.79140  0.38460  0.07180  Biso   1.000  O
  O135     1.0000 0.79140  0.11540  0.57180  Biso   1.000  O
  O136     1.0000 0.20860  0.61540  0.92820  Biso   1.000  O
  O137     1.0000 0.04020  0.54500  0.29010  Biso   1.000  O
  O138     1.0000 0.95980  0.04500  0.20990  Biso   1.000  O
  O139     1.0000 0.95980  0.45500  0.70990  Biso   1.000  O
  O140     1.0000 0.04020  0.95500  0.79010  Biso   1.000  O
  O141     1.0000 0.94300  0.95640  0.27390  Biso   1.000  O
  O142     1.0000 0.05700  0.45640  0.22610  Biso   1.000  O
  O143     1.0000 0.05700  0.04360  0.72610  Biso   1.000  O
  O144     1.0000 0.94300  0.54360  0.77390  Biso   1.000  O
  O145     1.0000 0.08620  0.62270  0.44280  Biso   1.000  O
  O146     1.0000 0.91380  0.12270  0.05720  Biso   1.000  O
  O147     1.0000 0.91380  0.37730  0.55720  Biso   1.000  O
  O148     1.0000 0.08620  0.87730  0.94280  Biso   1.000  O
  O149     1.0000 0.24300  0.49010  0.54110  Biso   1.000  O
  O150     1.0000 0.75700  0.99010  0.95890  Biso   1.000  O
  O151     1.0000 0.75700  0.50990  0.45890  Biso   1.000  O
  O152     1.0000 0.24300  0.00990  0.04110  Biso   1.000  O
  O153     1.0000 0.90860  0.44990  0.15360  Biso   1.000  O
  O154     1.0000 0.09140  0.94990  0.34640  Biso   1.000  O
  O155     1.0000 0.09140  0.55010  0.84640  Biso   1.000  O
  O156     1.0000 0.90860  0.05010  0.65360  Biso   1.000  O
  O157     1.0000 0.79250  0.96340  0.56730  Biso   1.000  O
  O158     1.0000 0.20750  0.46340  0.93270  Biso   1.000  O
  O159     1.0000 0.20750  0.03660  0.43270  Biso   1.000  O
  O160     1.0000 0.79250  0.53660  0.06730  Biso   1.000  O
  O161     1.0000 0.73070  0.95690  0.40900  Biso   1.000  O
  O162     1.0000 0.26930  0.45690  0.09100  Biso   1.000  O
  O163     1.0000 0.26930  0.04310  0.59100  Biso   1.000  O
  O164     1.0000 0.73070  0.54310  0.90900  Biso   1.000  O
  O165     1.0000 0.25850  0.49180  0.43720  Biso   1.000  O
  O166     1.0000 0.74150  0.99180  0.06280  Biso   1.000  O
  O167     1.0000 0.74150  0.50820  0.56280  Biso   1.000  O
  O168     1.0000 0.25850  0.00820  0.93720  Biso   1.000  O
  O169     1.0000 0.16690  0.40130  0.41420  Biso   1.000  O
  O170     1.0000 0.83310  0.90130  0.08580  Biso   1.000  O
  O171     1.0000 0.83310  0.59870  0.58580  Biso   1.000  O
  O172     1.0000 0.16690  0.09870  0.91420  Biso   1.000  O
  O173     1.0000 0.07310  0.97520  0.17340  Biso   1.000  O
  O174     1.0000 0.92690  0.47520  0.32660  Biso   1.000  O
  O175     1.0000 0.92690  0.02480  0.82660  Biso   1.000  O
  O176     1.0000 0.07310  0.52480  0.67340  Biso   1.000  O
  O177     1.0000 0.34230  0.96760  0.14660  Biso   1.000  O
  O178     1.0000 0.65770  0.46760  0.35340  Biso   1.000  O
  O179     1.0000 0.65770  0.03240  0.85340  Biso   1.000  O
  O180     1.0000 0.34230  0.53240  0.64660  Biso   1.000  O
  O181     1.0000 0.08590  0.53680  0.51550  Biso   1.000  O
  O182     1.0000 0.91410  0.03680  0.98450  Biso   1.000  O
  O183     1.0000 0.91410  0.46320  0.48450  Biso   1.000  O
  O184     1.0000 0.08590  0.96320  0.01550  Biso   1.000  O
  O185     1.0000 0.39680  0.52310  0.08530  Biso   1.000  O
  O186     1.0000 0.60320  0.02310  0.41470  Biso   1.000  O
  O187     1.0000 0.60320  0.47690  0.91470  Biso   1.000  O
  O188     1.0000 0.39680  0.97690  0.58530  Biso   1.000  O
  O189     1.0000 0.55630  0.46800  0.09710  Biso   1.000  O
  O190     1.0000 0.44370  0.96800  0.40290  Biso   1.000  O
  O191     1.0000 0.44370  0.53200  0.90290  Biso   1.000  O
  O192     1.0000 0.55630  0.03200  0.59710  Biso   1.000  O
  O193     1.0000 0.16830  0.83440  0.09810  Biso   1.000  O
  O194     1.0000 0.83170  0.33440  0.40190  Biso   1.000  O
  O195     1.0000 0.83170  0.16560  0.90190  Biso   1.000  O
  O196     1.0000 0.16830  0.66560  0.59810  Biso   1.000  O
  O197     1.0000 0.31930  0.96310  0.47900  Biso   1.000  O
  O198     1.0000 0.68070  0.46310  0.02100  Biso   1.000  O
  O199     1.0000 0.68070  0.03690  0.52100  Biso   1.000  O
  O200     1.0000 0.31930  0.53690  0.97900  Biso   1.000  O
  O201     1.0000 0.88460  0.96800  0.48150  Biso   1.000  O
  O202     1.0000 0.11540  0.46800  0.01850  Biso   1.000  O
  O203     1.0000 0.11540  0.03200  0.51850  Biso   1.000  O
  O204     1.0000 0.88460  0.53200  0.98150  Biso   1.000  O
  O205     1.0000 0.95010  0.04320  0.55250  Biso   1.000  O
  O206     1.0000 0.04990  0.54320  0.94750  Biso   1.000  O
  O207     1.0000 0.04990  0.95680  0.44750  Biso   1.000  O
  O208     1.0000 0.95010  0.45680  0.05250  Biso   1.000  O
  O209     1.0000 0.40110  0.67620  0.01030  Biso   1.000  O
  O210     1.0000 0.59890  0.17620  0.48970  Biso   1.000  O
  O211     1.0000 0.59890  0.32380  0.98970  Biso   1.000  O
  O212     1.0000 0.40110  0.82380  0.51030  Biso   1.000  O
  O213     1.0000 0.69930  0.48550  0.14710  Biso   1.000  O
  O214     1.0000 0.30070  0.98550  0.35290  Biso   1.000  O
  O215     1.0000 0.30070  0.51450  0.85290  Biso   1.000  O
  O216     1.0000 0.69930  0.01450  0.64710  Biso   1.000  O
  O217     1.0000 0.74620  0.52990  0.25230  Biso   1.000  O
  O218     1.0000 0.25380  0.02990  0.24770  Biso   1.000  O
  O219     1.0000 0.25380  0.47010  0.74770  Biso   1.000  O
  O220     1.0000 0.74620  0.97010  0.75230  Biso   1.000  O
  O221     1.0000 0.21380  0.37790  0.39410  Biso   1.000  O
  O222     1.0000 0.78620  0.87790  0.10590  Biso   1.000  O
  O223     1.0000 0.78620  0.62210  0.60590  Biso   1.000  O
  O224     1.0000 0.21380  0.12210  0.89410  Biso   1.000  O
  O225     1.0000 0.98900  0.94890  0.09040  Biso   1.000  O
  O226     1.0000 0.01100  0.44890  0.40960  Biso   1.000  O
  O227     1.0000 0.01100  0.05110  0.90960  Biso   1.000  O
  O228     1.0000 0.98900  0.55110  0.59040  Biso   1.000  O
  O229     1.0000 0.38490  0.02170  0.10280  Biso   1.000  O
  O230     1.0000 0.61510  0.52170  0.39720  Biso   1.000  O
  O231     1.0000 0.61510  0.97830  0.89720  Biso   1.000  O
  O232     1.0000 0.38490  0.47830  0.60280  Biso   1.000  O
  O233     1.0000 0.11960  0.54250  0.57210  Biso   1.000  O
  O234     1.0000 0.88040  0.04250  0.92790  Biso   1.000  O
  O235     1.0000 0.88040  0.45750  0.42790  Biso   1.000  O
  O236     1.0000 0.11960  0.95750  0.07210  Biso   1.000  O
  O237     1.0000 0.11830  0.57510  0.53130  Biso   1.000  O
  O238     1.0000 0.88170  0.07510  0.96870  Biso   1.000  O
  O239     1.0000 0.88170  0.42490  0.46870  Biso   1.000  O
  O240     1.0000 0.11830  0.92490  0.03130  Biso   1.000  O
