data_image0
_cell_length_a       25.064
_cell_length_b       12.361
_cell_length_c       26.806
_cell_angle_alpha    90
_cell_angle_beta     109.194
_cell_angle_gamma    90

_symmetry_space_group_name_H-M    "P 1"
_symmetry_int_tables_number       1

loop_
  _symmetry_equiv_pos_as_xyz
  'x, y, z'

loop_
  _atom_site_label
  _atom_site_occupancy
  _atom_site_fract_x
  _atom_site_fract_y
  _atom_site_fract_z
  _atom_site_thermal_displace_type
  _atom_site_B_iso_or_equiv
  _atom_site_type_symbol
  Tb1      1.0000 0.12678  0.28512  0.04556  Biso   1.000  Tb
  Tb2      1.0000 0.87322  0.28512  0.45444  Biso   1.000  Tb
  Tb3      1.0000 0.62678  0.78512  0.04556  Biso   1.000  Tb
  Tb4      1.0000 0.37322  0.78512  0.45444  Biso   1.000  Tb
  Tb5      1.0000 0.87322  0.71488  0.95444  Biso   1.000  Tb
  Tb6      1.0000 0.12678  0.71488  0.54556  Biso   1.000  Tb
  Tb7      1.0000 0.37322  0.21488  0.95444  Biso   1.000  Tb
  Tb8      1.0000 0.62678  0.21488  0.54556  Biso   1.000  Tb
  Cu1      1.0000 0.25275  0.79015  0.86557  Biso   1.000  Cu
  Cu2      1.0000 0.74725  0.79015  0.63443  Biso   1.000  Cu
  Cu3      1.0000 0.75275  0.29015  0.86557  Biso   1.000  Cu
  Cu4      1.0000 0.24725  0.29015  0.63443  Biso   1.000  Cu
  Cu5      1.0000 0.74725  0.20985  0.13443  Biso   1.000  Cu
  Cu6      1.0000 0.25275  0.20985  0.36557  Biso   1.000  Cu
  Cu7      1.0000 0.24725  0.70985  0.13443  Biso   1.000  Cu
  Cu8      1.0000 0.75275  0.70985  0.36557  Biso   1.000  Cu
  Cu9      1.0000 0.00000  0.74934  0.25000  Biso   1.000  Cu
  Cu10     1.0000 0.50000  0.24934  0.25000  Biso   1.000  Cu
  Cu11     1.0000 0.00000  0.25066  0.75000  Biso   1.000  Cu
  Cu12     1.0000 0.50000  0.75066  0.75000  Biso   1.000  Cu
  C1       1.0000 0.98402  0.59390  0.15349  Biso   1.000  C
  C2       1.0000 0.01598  0.59390  0.34651  Biso   1.000  C
  C3       1.0000 0.48402  0.09390  0.15349  Biso   1.000  C
  C4       1.0000 0.51598  0.09390  0.34651  Biso   1.000  C
  C5       1.0000 0.01598  0.40610  0.84651  Biso   1.000  C
  C6       1.0000 0.98402  0.40610  0.65349  Biso   1.000  C
  C7       1.0000 0.51598  0.90610  0.84651  Biso   1.000  C
  C8       1.0000 0.48402  0.90610  0.65349  Biso   1.000  C
  H1       1.0000 0.94460  0.60570  0.14510  Biso   1.000  H
  H2       1.0000 0.05540  0.60570  0.35490  Biso   1.000  H
  H3       1.0000 0.44460  0.10570  0.14510  Biso   1.000  H
  H4       1.0000 0.55540  0.10570  0.35490  Biso   1.000  H
  H5       1.0000 0.05540  0.39430  0.85490  Biso   1.000  H
  H6       1.0000 0.94460  0.39430  0.64510  Biso   1.000  H
  H7       1.0000 0.55540  0.89430  0.85490  Biso   1.000  H
  H8       1.0000 0.44460  0.89430  0.64510  Biso   1.000  H
  C9       1.0000 0.00169  0.52690  0.12161  Biso   1.000  C
  C10      1.0000 0.99831  0.52690  0.37839  Biso   1.000  C
  C11      1.0000 0.50169  0.02690  0.12161  Biso   1.000  C
  C12      1.0000 0.49831  0.02690  0.37839  Biso   1.000  C
  C13      1.0000 0.99831  0.47310  0.87839  Biso   1.000  C
  C14      1.0000 0.00169  0.47310  0.62161  Biso   1.000  C
  C15      1.0000 0.49831  0.97310  0.87839  Biso   1.000  C
  C16      1.0000 0.50169  0.97310  0.62161  Biso   1.000  C
  H9       1.0000 0.97520  0.49340  0.09180  Biso   1.000  H
  H10      1.0000 0.02480  0.49340  0.40820  Biso   1.000  H
  H11      1.0000 0.47520  0.99340  0.09180  Biso   1.000  H
  H12      1.0000 0.52480  0.99340  0.40820  Biso   1.000  H
  H13      1.0000 0.02480  0.50660  0.90820  Biso   1.000  H
  H14      1.0000 0.97520  0.50660  0.59180  Biso   1.000  H
  H15      1.0000 0.52480  0.00660  0.90820  Biso   1.000  H
  H16      1.0000 0.47520  0.00660  0.59180  Biso   1.000  H
  C17      1.0000 0.05951  0.50850  0.13368  Biso   1.000  C
  C18      1.0000 0.94049  0.50850  0.36632  Biso   1.000  C
  C19      1.0000 0.55951  0.00850  0.13368  Biso   1.000  C
  C20      1.0000 0.44049  0.00850  0.36632  Biso   1.000  C
  C21      1.0000 0.94049  0.49150  0.86632  Biso   1.000  C
  C22      1.0000 0.05951  0.49150  0.63368  Biso   1.000  C
  C23      1.0000 0.44049  0.99150  0.86632  Biso   1.000  C
  C24      1.0000 0.55951  0.99150  0.63368  Biso   1.000  C
  C25      1.0000 0.09652  0.56200  0.17721  Biso   1.000  C
  C26      1.0000 0.90348  0.56200  0.32279  Biso   1.000  C
  C27      1.0000 0.59652  0.06200  0.17721  Biso   1.000  C
  C28      1.0000 0.40348  0.06200  0.32279  Biso   1.000  C
  C29      1.0000 0.90348  0.43800  0.82279  Biso   1.000  C
  C30      1.0000 0.09652  0.43800  0.67721  Biso   1.000  C
  C31      1.0000 0.40348  0.93800  0.82279  Biso   1.000  C
  C32      1.0000 0.59652  0.93800  0.67721  Biso   1.000  C
  H17      1.0000 0.13620  0.55410  0.18550  Biso   1.000  H
  H18      1.0000 0.86380  0.55410  0.31450  Biso   1.000  H
  H19      1.0000 0.63620  0.05410  0.18550  Biso   1.000  H
  H20      1.0000 0.36380  0.05410  0.31450  Biso   1.000  H
  H21      1.0000 0.86380  0.44590  0.81450  Biso   1.000  H
  H22      1.0000 0.13620  0.44590  0.68550  Biso   1.000  H
  H23      1.0000 0.36380  0.94590  0.81450  Biso   1.000  H
  H24      1.0000 0.63620  0.94590  0.68550  Biso   1.000  H
  C33      1.0000 0.07514  0.62590  0.20787  Biso   1.000  C
  C34      1.0000 0.92486  0.62590  0.29213  Biso   1.000  C
  C35      1.0000 0.57514  0.12590  0.20787  Biso   1.000  C
  C36      1.0000 0.42486  0.12590  0.29213  Biso   1.000  C
  C37      1.0000 0.92486  0.37410  0.79213  Biso   1.000  C
  C38      1.0000 0.07514  0.37410  0.70787  Biso   1.000  C
  C39      1.0000 0.42486  0.87410  0.79213  Biso   1.000  C
  C40      1.0000 0.57514  0.87410  0.70787  Biso   1.000  C
  C41      1.0000 0.11087  0.68170  0.25657  Biso   1.000  C
  C42      1.0000 0.88913  0.68170  0.24343  Biso   1.000  C
  C43      1.0000 0.61087  0.18170  0.25657  Biso   1.000  C
  C44      1.0000 0.38913  0.18170  0.24343  Biso   1.000  C
  C45      1.0000 0.88913  0.31830  0.74343  Biso   1.000  C
  C46      1.0000 0.11087  0.31830  0.75657  Biso   1.000  C
  C47      1.0000 0.38913  0.81830  0.74343  Biso   1.000  C
  C48      1.0000 0.61087  0.81830  0.75657  Biso   1.000  C
  C49      1.0000 0.16969  0.66880  0.27711  Biso   1.000  C
  C50      1.0000 0.83031  0.66880  0.22289  Biso   1.000  C
  C51      1.0000 0.66969  0.16880  0.27711  Biso   1.000  C
  C52      1.0000 0.33031  0.16880  0.22289  Biso   1.000  C
  C53      1.0000 0.83031  0.33120  0.72289  Biso   1.000  C
  C54      1.0000 0.16969  0.33120  0.77711  Biso   1.000  C
  C55      1.0000 0.33031  0.83120  0.72289  Biso   1.000  C
  C56      1.0000 0.66969  0.83120  0.77711  Biso   1.000  C
  H25      1.0000 0.18910  0.62630  0.25900  Biso   1.000  H
  H26      1.0000 0.81090  0.62630  0.24100  Biso   1.000  H
  H27      1.0000 0.68910  0.12630  0.25900  Biso   1.000  H
  H28      1.0000 0.31090  0.12630  0.24100  Biso   1.000  H
  H29      1.0000 0.81090  0.37370  0.74100  Biso   1.000  H
  H30      1.0000 0.18910  0.37370  0.75900  Biso   1.000  H
  H31      1.0000 0.31090  0.87370  0.74100  Biso   1.000  H
  H32      1.0000 0.68910  0.87370  0.75900  Biso   1.000  H
  C57      1.0000 0.19885  0.71930  0.32436  Biso   1.000  C
  C58      1.0000 0.80115  0.71930  0.17564  Biso   1.000  C
  C59      1.0000 0.69885  0.21930  0.32436  Biso   1.000  C
  C60      1.0000 0.30115  0.21930  0.17564  Biso   1.000  C
  C61      1.0000 0.80115  0.28070  0.67564  Biso   1.000  C
  C62      1.0000 0.19885  0.28070  0.82436  Biso   1.000  C
  C63      1.0000 0.30115  0.78070  0.67564  Biso   1.000  C
  C64      1.0000 0.69885  0.78070  0.82436  Biso   1.000  C
  C65      1.0000 0.16949  0.78010  0.34945  Biso   1.000  C
  C66      1.0000 0.83051  0.78010  0.15055  Biso   1.000  C
  C67      1.0000 0.66949  0.28010  0.34945  Biso   1.000  C
  C68      1.0000 0.33051  0.28010  0.15055  Biso   1.000  C
  C69      1.0000 0.83051  0.21990  0.65055  Biso   1.000  C
  C70      1.0000 0.16949  0.21990  0.84945  Biso   1.000  C
  C71      1.0000 0.33051  0.71990  0.65055  Biso   1.000  C
  C72      1.0000 0.66949  0.71990  0.84945  Biso   1.000  C
  H33      1.0000 0.18890  0.81510  0.38190  Biso   1.000  H
  H34      1.0000 0.81110  0.81510  0.11810  Biso   1.000  H
  H35      1.0000 0.68890  0.31510  0.38190  Biso   1.000  H
  H36      1.0000 0.31110  0.31510  0.11810  Biso   1.000  H
  H37      1.0000 0.81110  0.18490  0.61810  Biso   1.000  H
  H38      1.0000 0.18890  0.18490  0.88190  Biso   1.000  H
  H39      1.0000 0.31110  0.68490  0.61810  Biso   1.000  H
  H40      1.0000 0.68890  0.68490  0.88190  Biso   1.000  H
  C73      1.0000 0.11156  0.79000  0.32727  Biso   1.000  C
  C74      1.0000 0.88844  0.79000  0.17273  Biso   1.000  C
  C75      1.0000 0.61156  0.29000  0.32727  Biso   1.000  C
  C76      1.0000 0.38844  0.29000  0.17273  Biso   1.000  C
  C77      1.0000 0.88844  0.21000  0.67273  Biso   1.000  C
  C78      1.0000 0.11156  0.21000  0.82727  Biso   1.000  C
  C79      1.0000 0.38844  0.71000  0.67273  Biso   1.000  C
  C80      1.0000 0.61156  0.71000  0.82727  Biso   1.000  C
  H41      1.0000 0.09160  0.83210  0.34500  Biso   1.000  H
  H42      1.0000 0.90840  0.83210  0.15500  Biso   1.000  H
  H43      1.0000 0.59160  0.33210  0.34500  Biso   1.000  H
  H44      1.0000 0.40840  0.33210  0.15500  Biso   1.000  H
  H45      1.0000 0.90840  0.16790  0.65500  Biso   1.000  H
  H46      1.0000 0.09160  0.16790  0.84500  Biso   1.000  H
  H47      1.0000 0.40840  0.66790  0.65500  Biso   1.000  H
  H48      1.0000 0.59160  0.66790  0.84500  Biso   1.000  H
  C81      1.0000 0.26234  0.70710  0.35002  Biso   1.000  C
  C82      1.0000 0.73766  0.70710  0.14998  Biso   1.000  C
  C83      1.0000 0.76234  0.20710  0.35002  Biso   1.000  C
  C84      1.0000 0.23766  0.20710  0.14998  Biso   1.000  C
  C85      1.0000 0.73766  0.29290  0.64998  Biso   1.000  C
  C86      1.0000 0.26234  0.29290  0.85002  Biso   1.000  C
  C87      1.0000 0.23766  0.79290  0.64998  Biso   1.000  C
  C88      1.0000 0.76234  0.79290  0.85002  Biso   1.000  C
  C89      1.0000 0.08218  0.43420  0.10172  Biso   1.000  C
  C90      1.0000 0.91782  0.43420  0.39828  Biso   1.000  C
  C91      1.0000 0.58218  0.93420  0.10172  Biso   1.000  C
  C92      1.0000 0.41782  0.93420  0.39828  Biso   1.000  C
  C93      1.0000 0.91782  0.56580  0.89828  Biso   1.000  C
  C94      1.0000 0.08218  0.56580  0.60172  Biso   1.000  C
  C95      1.0000 0.41782  0.06580  0.89828  Biso   1.000  C
  C96      1.0000 0.58218  0.06580  0.60172  Biso   1.000  C
  C97      1.0000 0.88278  0.32180  0.93467  Biso   1.000  C
  C98      1.0000 0.11722  0.32180  0.56533  Biso   1.000  C
  C99      1.0000 0.38278  0.82180  0.93467  Biso   1.000  C
  C100     1.0000 0.61722  0.82180  0.56533  Biso   1.000  C
  C101     1.0000 0.11722  0.67820  0.06533  Biso   1.000  C
  C102     1.0000 0.88278  0.67820  0.43467  Biso   1.000  C
  C103     1.0000 0.61722  0.17820  0.06533  Biso   1.000  C
  C104     1.0000 0.38278  0.17820  0.43467  Biso   1.000  C
  H49      1.0000 0.87030  0.37550  0.95370  Biso   1.000  H
  H50      1.0000 0.12970  0.37550  0.54630  Biso   1.000  H
  H51      1.0000 0.37030  0.87550  0.95370  Biso   1.000  H
  H52      1.0000 0.62970  0.87550  0.54630  Biso   1.000  H
  H53      1.0000 0.12970  0.62450  0.04630  Biso   1.000  H
  H54      1.0000 0.87030  0.62450  0.45370  Biso   1.000  H
  H55      1.0000 0.62970  0.12450  0.04630  Biso   1.000  H
  H56      1.0000 0.37030  0.12450  0.45370  Biso   1.000  H
  C105     1.0000 0.93976  0.30180  0.94864  Biso   1.000  C
  C106     1.0000 0.06024  0.30180  0.55136  Biso   1.000  C
  C107     1.0000 0.43976  0.80180  0.94864  Biso   1.000  C
  C108     1.0000 0.56024  0.80180  0.55136  Biso   1.000  C
  C109     1.0000 0.06024  0.69820  0.05136  Biso   1.000  C
  C110     1.0000 0.93976  0.69820  0.44864  Biso   1.000  C
  C111     1.0000 0.56024  0.19820  0.05136  Biso   1.000  C
  C112     1.0000 0.43976  0.19820  0.44864  Biso   1.000  C
  H57      1.0000 0.96580  0.34040  0.97690  Biso   1.000  H
  H58      1.0000 0.03420  0.34040  0.52310  Biso   1.000  H
  H59      1.0000 0.46580  0.84040  0.97690  Biso   1.000  H
  H60      1.0000 0.53420  0.84040  0.52310  Biso   1.000  H
  H61      1.0000 0.03420  0.65960  0.02310  Biso   1.000  H
  H62      1.0000 0.96580  0.65960  0.47690  Biso   1.000  H
  H63      1.0000 0.53420  0.15960  0.02310  Biso   1.000  H
  H64      1.0000 0.46580  0.15960  0.47690  Biso   1.000  H
  C113     1.0000 0.95888  0.22340  0.92051  Biso   1.000  C
  C114     1.0000 0.04112  0.22340  0.57949  Biso   1.000  C
  C115     1.0000 0.45888  0.72340  0.92051  Biso   1.000  C
  C116     1.0000 0.54112  0.72340  0.57949  Biso   1.000  C
  C117     1.0000 0.04112  0.77660  0.07949  Biso   1.000  C
  C118     1.0000 0.95888  0.77660  0.42051  Biso   1.000  C
  C119     1.0000 0.54112  0.27660  0.07949  Biso   1.000  C
  C120     1.0000 0.45888  0.27660  0.42051  Biso   1.000  C
  C121     1.0000 0.91913  0.17090  0.87915  Biso   1.000  C
  C122     1.0000 0.08087  0.17090  0.62085  Biso   1.000  C
  C123     1.0000 0.41913  0.67090  0.87915  Biso   1.000  C
  C124     1.0000 0.58087  0.67090  0.62085  Biso   1.000  C
  C125     1.0000 0.08087  0.82910  0.12085  Biso   1.000  C
  C126     1.0000 0.91913  0.82910  0.37915  Biso   1.000  C
  C127     1.0000 0.58087  0.32910  0.12085  Biso   1.000  C
  C128     1.0000 0.41913  0.32910  0.37915  Biso   1.000  C
  H65      1.0000 0.93050  0.11730  0.85930  Biso   1.000  H
  H66      1.0000 0.06950  0.11730  0.64070  Biso   1.000  H
  H67      1.0000 0.43050  0.61730  0.85930  Biso   1.000  H
  H68      1.0000 0.56950  0.61730  0.64070  Biso   1.000  H
  H69      1.0000 0.06950  0.88270  0.14070  Biso   1.000  H
  H70      1.0000 0.93050  0.88270  0.35930  Biso   1.000  H
  H71      1.0000 0.56950  0.38270  0.14070  Biso   1.000  H
  H72      1.0000 0.43050  0.38270  0.35930  Biso   1.000  H
  C129     1.0000 0.86207  0.19770  0.86706  Biso   1.000  C
  C130     1.0000 0.13793  0.19770  0.63294  Biso   1.000  C
  C131     1.0000 0.36207  0.69770  0.86706  Biso   1.000  C
  C132     1.0000 0.63793  0.69770  0.63294  Biso   1.000  C
  C133     1.0000 0.13793  0.80230  0.13294  Biso   1.000  C
  C134     1.0000 0.86207  0.80230  0.36706  Biso   1.000  C
  C135     1.0000 0.63793  0.30230  0.13294  Biso   1.000  C
  C136     1.0000 0.36207  0.30230  0.36706  Biso   1.000  C
  C137     1.0000 0.81833  0.15320  0.82091  Biso   1.000  C
  C138     1.0000 0.18167  0.15320  0.67909  Biso   1.000  C
  C139     1.0000 0.31833  0.65320  0.82091  Biso   1.000  C
  C140     1.0000 0.68167  0.65320  0.67909  Biso   1.000  C
  C141     1.0000 0.18167  0.84680  0.17909  Biso   1.000  C
  C142     1.0000 0.81833  0.84680  0.32091  Biso   1.000  C
  C143     1.0000 0.68167  0.34680  0.17909  Biso   1.000  C
  C144     1.0000 0.31833  0.34680  0.32091  Biso   1.000  C
  C145     1.0000 0.82793  0.07410  0.78774  Biso   1.000  C
  C146     1.0000 0.17207  0.07410  0.71226  Biso   1.000  C
  C147     1.0000 0.32793  0.57410  0.78774  Biso   1.000  C
  C148     1.0000 0.67207  0.57410  0.71226  Biso   1.000  C
  C149     1.0000 0.17207  0.92590  0.21226  Biso   1.000  C
  C150     1.0000 0.82793  0.92590  0.28774  Biso   1.000  C
  C151     1.0000 0.67207  0.42590  0.21226  Biso   1.000  C
  C152     1.0000 0.32793  0.42590  0.28774  Biso   1.000  C
  H73      1.0000 0.86420  0.04210  0.79550  Biso   1.000  H
  H74      1.0000 0.13580  0.04210  0.70450  Biso   1.000  H
  H75      1.0000 0.36420  0.54210  0.79550  Biso   1.000  H
  H76      1.0000 0.63580  0.54210  0.70450  Biso   1.000  H
  H77      1.0000 0.13580  0.95790  0.20450  Biso   1.000  H
  H78      1.0000 0.86420  0.95790  0.29550  Biso   1.000  H
  H79      1.0000 0.63580  0.45790  0.20450  Biso   1.000  H
  H80      1.0000 0.36420  0.45790  0.29550  Biso   1.000  H
  C153     1.0000 0.78401  0.04250  0.74340  Biso   1.000  C
  C154     1.0000 0.21599  0.04250  0.75660  Biso   1.000  C
  C155     1.0000 0.28401  0.54250  0.74340  Biso   1.000  C
  C156     1.0000 0.71599  0.54250  0.75660  Biso   1.000  C
  C157     1.0000 0.21599  0.95750  0.25660  Biso   1.000  C
  C158     1.0000 0.78401  0.95750  0.24340  Biso   1.000  C
  C159     1.0000 0.71599  0.45750  0.25660  Biso   1.000  C
  C160     1.0000 0.28401  0.45750  0.24340  Biso   1.000  C
  C161     1.0000 0.73229  0.09480  0.73105  Biso   1.000  C
  C162     1.0000 0.26771  0.09480  0.76895  Biso   1.000  C
  C163     1.0000 0.23229  0.59480  0.73105  Biso   1.000  C
  C164     1.0000 0.76771  0.59480  0.76895  Biso   1.000  C
  C165     1.0000 0.26771  0.90520  0.26895  Biso   1.000  C
  C166     1.0000 0.73229  0.90520  0.23105  Biso   1.000  C
  C167     1.0000 0.76771  0.40520  0.26895  Biso   1.000  C
  C168     1.0000 0.23229  0.40520  0.23105  Biso   1.000  C
  H81      1.0000 0.70260  0.07920  0.69920  Biso   1.000  H
  H82      1.0000 0.29740  0.07920  0.80080  Biso   1.000  H
  H83      1.0000 0.20260  0.57920  0.69920  Biso   1.000  H
  H84      1.0000 0.79740  0.57920  0.80080  Biso   1.000  H
  H85      1.0000 0.29740  0.92080  0.30080  Biso   1.000  H
  H86      1.0000 0.70260  0.92080  0.19920  Biso   1.000  H
  H87      1.0000 0.79740  0.42080  0.30080  Biso   1.000  H
  H88      1.0000 0.20260  0.42080  0.19920  Biso   1.000  H
  C169     1.0000 0.72509  0.17010  0.76640  Biso   1.000  C
  C170     1.0000 0.27491  0.17010  0.73360  Biso   1.000  C
  C171     1.0000 0.22509  0.67010  0.76640  Biso   1.000  C
  C172     1.0000 0.77491  0.67010  0.73360  Biso   1.000  C
  C173     1.0000 0.27491  0.82990  0.23360  Biso   1.000  C
  C174     1.0000 0.72509  0.82990  0.26640  Biso   1.000  C
  C175     1.0000 0.77491  0.32990  0.23360  Biso   1.000  C
  C176     1.0000 0.22509  0.32990  0.26640  Biso   1.000  C
  H89      1.0000 0.68930  0.20410  0.75890  Biso   1.000  H
  H90      1.0000 0.31070  0.20410  0.74110  Biso   1.000  H
  H91      1.0000 0.18930  0.70410  0.75890  Biso   1.000  H
  H92      1.0000 0.81070  0.70410  0.74110  Biso   1.000  H
  H93      1.0000 0.31070  0.79590  0.24110  Biso   1.000  H
  H94      1.0000 0.68930  0.79590  0.25890  Biso   1.000  H
  H95      1.0000 0.81070  0.29590  0.24110  Biso   1.000  H
  H96      1.0000 0.18930  0.29590  0.25890  Biso   1.000  H
  C177     1.0000 0.79079  0.94990  0.70991  Biso   1.000  C
  C178     1.0000 0.20921  0.94990  0.79009  Biso   1.000  C
  C179     1.0000 0.29079  0.44990  0.70991  Biso   1.000  C
  C180     1.0000 0.70921  0.44990  0.79009  Biso   1.000  C
  C181     1.0000 0.20921  0.05010  0.29009  Biso   1.000  C
  C182     1.0000 0.79079  0.05010  0.20991  Biso   1.000  C
  C183     1.0000 0.70921  0.55010  0.29009  Biso   1.000  C
  C184     1.0000 0.29079  0.55010  0.20991  Biso   1.000  C
  C185     1.0000 0.02081  0.20010  0.93424  Biso   1.000  C
  C186     1.0000 0.97919  0.20010  0.56576  Biso   1.000  C
  C187     1.0000 0.52081  0.70010  0.93424  Biso   1.000  C
  C188     1.0000 0.47919  0.70010  0.56576  Biso   1.000  C
  C189     1.0000 0.97919  0.79990  0.06576  Biso   1.000  C
  C190     1.0000 0.02081  0.79990  0.43424  Biso   1.000  C
  C191     1.0000 0.47919  0.29990  0.06576  Biso   1.000  C
  C192     1.0000 0.52081  0.29990  0.43424  Biso   1.000  C
  C193     1.0000 0.22648  0.97950  0.92321  Biso   1.000  C
  C194     1.0000 0.77352  0.97950  0.57679  Biso   1.000  C
  C195     1.0000 0.72648  0.47950  0.92321  Biso   1.000  C
  C196     1.0000 0.27352  0.47950  0.57679  Biso   1.000  C
  C197     1.0000 0.77352  0.02050  0.07679  Biso   1.000  C
  C198     1.0000 0.22648  0.02050  0.42321  Biso   1.000  C
  C199     1.0000 0.27352  0.52050  0.07679  Biso   1.000  C
  C200     1.0000 0.72648  0.52050  0.42321  Biso   1.000  C
  H97      1.0000 0.24860  0.02170  0.90770  Biso   1.000  H
  H98      1.0000 0.75140  0.02170  0.59230  Biso   1.000  H
  H99      1.0000 0.74860  0.52170  0.90770  Biso   1.000  H
  H100     1.0000 0.25140  0.52170  0.59230  Biso   1.000  H
  H101     1.0000 0.75140  0.97830  0.09230  Biso   1.000  H
  H102     1.0000 0.24860  0.97830  0.40770  Biso   1.000  H
  H103     1.0000 0.25140  0.47830  0.09230  Biso   1.000  H
  H104     1.0000 0.74860  0.47830  0.40770  Biso   1.000  H
  C201     1.0000 0.19997  0.02950  0.95419  Biso   1.000  C
  C202     1.0000 0.80003  0.02950  0.54581  Biso   1.000  C
  C203     1.0000 0.69997  0.52950  0.95419  Biso   1.000  C
  C204     1.0000 0.30003  0.52950  0.54581  Biso   1.000  C
  C205     1.0000 0.80003  0.97050  0.04581  Biso   1.000  C
  C206     1.0000 0.19997  0.97050  0.45419  Biso   1.000  C
  C207     1.0000 0.30003  0.47050  0.04581  Biso   1.000  C
  C208     1.0000 0.69997  0.47050  0.45419  Biso   1.000  C
  H105     1.0000 0.20490  0.10490  0.96100  Biso   1.000  H
  H106     1.0000 0.79510  0.10490  0.53900  Biso   1.000  H
  H107     1.0000 0.70490  0.60490  0.96100  Biso   1.000  H
  H108     1.0000 0.29510  0.60490  0.53900  Biso   1.000  H
  H109     1.0000 0.79510  0.89510  0.03900  Biso   1.000  H
  H110     1.0000 0.20490  0.89510  0.46100  Biso   1.000  H
  H111     1.0000 0.29510  0.39510  0.03900  Biso   1.000  H
  H112     1.0000 0.70490  0.39510  0.46100  Biso   1.000  H
  C209     1.0000 0.16594  0.97010  0.97551  Biso   1.000  C
  C210     1.0000 0.83406  0.97010  0.52449  Biso   1.000  C
  C211     1.0000 0.66594  0.47010  0.97551  Biso   1.000  C
  C212     1.0000 0.33406  0.47010  0.52449  Biso   1.000  C
  C213     1.0000 0.83406  0.02990  0.02449  Biso   1.000  C
  C214     1.0000 0.16594  0.02990  0.47551  Biso   1.000  C
  C215     1.0000 0.33406  0.52990  0.02449  Biso   1.000  C
  C216     1.0000 0.66594  0.52990  0.47551  Biso   1.000  C
  C217     1.0000 0.16133  0.85960  0.96594  Biso   1.000  C
  C218     1.0000 0.83867  0.85960  0.53406  Biso   1.000  C
  C219     1.0000 0.66133  0.35960  0.96594  Biso   1.000  C
  C220     1.0000 0.33867  0.35960  0.53406  Biso   1.000  C
  C221     1.0000 0.83867  0.14040  0.03406  Biso   1.000  C
  C222     1.0000 0.16133  0.14040  0.46594  Biso   1.000  C
  C223     1.0000 0.33867  0.64040  0.03406  Biso   1.000  C
  C224     1.0000 0.66133  0.64040  0.46594  Biso   1.000  C
  H113     1.0000 0.13810  0.81660  0.97990  Biso   1.000  H
  H114     1.0000 0.86190  0.81660  0.52010  Biso   1.000  H
  H115     1.0000 0.63810  0.31660  0.97990  Biso   1.000  H
  H116     1.0000 0.36190  0.31660  0.52010  Biso   1.000  H
  H117     1.0000 0.86190  0.18340  0.02010  Biso   1.000  H
  H118     1.0000 0.13810  0.18340  0.47990  Biso   1.000  H
  H119     1.0000 0.36190  0.68340  0.02010  Biso   1.000  H
  H120     1.0000 0.63810  0.68340  0.47990  Biso   1.000  H
  C225     1.0000 0.19048  0.81280  0.93622  Biso   1.000  C
  C226     1.0000 0.80952  0.81280  0.56378  Biso   1.000  C
  C227     1.0000 0.69048  0.31280  0.93622  Biso   1.000  C
  C228     1.0000 0.30952  0.31280  0.56378  Biso   1.000  C
  C229     1.0000 0.80952  0.18720  0.06378  Biso   1.000  C
  C230     1.0000 0.19048  0.18720  0.43622  Biso   1.000  C
  C231     1.0000 0.30952  0.68720  0.06378  Biso   1.000  C
  C232     1.0000 0.69048  0.68720  0.43622  Biso   1.000  C
  C233     1.0000 0.19303  0.69430  0.92805  Biso   1.000  C
  C234     1.0000 0.80697  0.69430  0.57195  Biso   1.000  C
  C235     1.0000 0.69303  0.19430  0.92805  Biso   1.000  C
  C236     1.0000 0.30697  0.19430  0.57195  Biso   1.000  C
  C237     1.0000 0.80697  0.30570  0.07195  Biso   1.000  C
  C238     1.0000 0.19303  0.30570  0.42805  Biso   1.000  C
  C239     1.0000 0.30697  0.80570  0.07195  Biso   1.000  C
  C240     1.0000 0.69303  0.80570  0.42805  Biso   1.000  C
  C241     1.0000 0.16816  0.61910  0.95085  Biso   1.000  C
  C242     1.0000 0.83184  0.61910  0.54915  Biso   1.000  C
  C243     1.0000 0.66816  0.11910  0.95085  Biso   1.000  C
  C244     1.0000 0.33184  0.11910  0.54915  Biso   1.000  C
  C245     1.0000 0.83184  0.38090  0.04915  Biso   1.000  C
  C246     1.0000 0.16816  0.38090  0.45085  Biso   1.000  C
  C247     1.0000 0.33184  0.88090  0.04915  Biso   1.000  C
  C248     1.0000 0.66816  0.88090  0.45085  Biso   1.000  C
  H121     1.0000 0.14270  0.64180  0.96830  Biso   1.000  H
  H122     1.0000 0.85730  0.64180  0.53170  Biso   1.000  H
  H123     1.0000 0.64270  0.14180  0.96830  Biso   1.000  H
  H124     1.0000 0.35730  0.14180  0.53170  Biso   1.000  H
  H125     1.0000 0.85730  0.35820  0.03170  Biso   1.000  H
  H126     1.0000 0.14270  0.35820  0.46830  Biso   1.000  H
  H127     1.0000 0.35730  0.85820  0.03170  Biso   1.000  H
  H128     1.0000 0.64270  0.85820  0.46830  Biso   1.000  H
  C249     1.0000 0.17997  0.50990  0.94857  Biso   1.000  C
  C250     1.0000 0.82003  0.50990  0.55143  Biso   1.000  C
  C251     1.0000 0.67997  0.00990  0.94857  Biso   1.000  C
  C252     1.0000 0.32003  0.00990  0.55143  Biso   1.000  C
  C253     1.0000 0.82003  0.49010  0.05143  Biso   1.000  C
  C254     1.0000 0.17997  0.49010  0.44857  Biso   1.000  C
  C255     1.0000 0.32003  0.99010  0.05143  Biso   1.000  C
  C256     1.0000 0.67997  0.99010  0.44857  Biso   1.000  C
  C257     1.0000 0.21494  0.47930  0.92033  Biso   1.000  C
  C258     1.0000 0.78506  0.47930  0.57967  Biso   1.000  C
  C259     1.0000 0.71494  0.97930  0.92033  Biso   1.000  C
  C260     1.0000 0.28506  0.97930  0.57967  Biso   1.000  C
  C261     1.0000 0.78506  0.52070  0.07967  Biso   1.000  C
  C262     1.0000 0.21494  0.52070  0.42033  Biso   1.000  C
  C263     1.0000 0.28506  0.02070  0.07967  Biso   1.000  C
  C264     1.0000 0.71494  0.02070  0.42033  Biso   1.000  C
  H129     1.0000 0.22470  0.40540  0.91860  Biso   1.000  H
  H130     1.0000 0.77530  0.40540  0.58140  Biso   1.000  H
  H131     1.0000 0.72470  0.90540  0.91860  Biso   1.000  H
  H132     1.0000 0.27530  0.90540  0.58140  Biso   1.000  H
  H133     1.0000 0.77530  0.59460  0.08140  Biso   1.000  H
  H134     1.0000 0.22470  0.59460  0.41860  Biso   1.000  H
  H135     1.0000 0.27530  0.09460  0.08140  Biso   1.000  H
  H136     1.0000 0.72470  0.09460  0.41860  Biso   1.000  H
  C265     1.0000 0.23546  0.55770  0.89475  Biso   1.000  C
  C266     1.0000 0.76454  0.55770  0.60525  Biso   1.000  C
  C267     1.0000 0.73546  0.05770  0.89475  Biso   1.000  C
  C268     1.0000 0.26454  0.05770  0.60525  Biso   1.000  C
  C269     1.0000 0.76454  0.44230  0.10525  Biso   1.000  C
  C270     1.0000 0.23546  0.44230  0.39475  Biso   1.000  C
  C271     1.0000 0.26454  0.94230  0.10525  Biso   1.000  C
  C272     1.0000 0.73546  0.94230  0.39475  Biso   1.000  C
  H137     1.0000 0.25730  0.53590  0.87350  Biso   1.000  H
  H138     1.0000 0.74270  0.53590  0.62650  Biso   1.000  H
  H139     1.0000 0.75730  0.03590  0.87350  Biso   1.000  H
  H140     1.0000 0.24270  0.03590  0.62650  Biso   1.000  H
  H141     1.0000 0.74270  0.46410  0.12650  Biso   1.000  H
  H142     1.0000 0.25730  0.46410  0.37350  Biso   1.000  H
  H143     1.0000 0.24270  0.96410  0.12650  Biso   1.000  H
  H144     1.0000 0.75730  0.96410  0.37350  Biso   1.000  H
  C273     1.0000 0.13410  0.02200  0.00854  Biso   1.000  C
  C274     1.0000 0.86590  0.02200  0.49146  Biso   1.000  C
  C275     1.0000 0.63410  0.52200  0.00854  Biso   1.000  C
  C276     1.0000 0.36590  0.52200  0.49146  Biso   1.000  C
  C277     1.0000 0.86590  0.97800  0.99146  Biso   1.000  C
  C278     1.0000 0.13410  0.97800  0.50854  Biso   1.000  C
  C279     1.0000 0.36590  0.47800  0.99146  Biso   1.000  C
  C280     1.0000 0.63410  0.47800  0.50854  Biso   1.000  C
  C281     1.0000 0.15882  0.42870  0.97949  Biso   1.000  C
  C282     1.0000 0.84118  0.42870  0.52051  Biso   1.000  C
  C283     1.0000 0.65882  0.92870  0.97949  Biso   1.000  C
  C284     1.0000 0.34118  0.92870  0.52051  Biso   1.000  C
  C285     1.0000 0.84118  0.57130  0.02051  Biso   1.000  C
  C286     1.0000 0.15882  0.57130  0.47949  Biso   1.000  C
  C287     1.0000 0.34118  0.07130  0.02051  Biso   1.000  C
  C288     1.0000 0.65882  0.07130  0.47949  Biso   1.000  C
  N1       1.0000 0.76595  0.19680  0.81018  Biso   1.000  N
  N2       1.0000 0.23405  0.19680  0.68982  Biso   1.000  N
  N3       1.0000 0.26595  0.69680  0.81018  Biso   1.000  N
  N4       1.0000 0.73405  0.69680  0.68982  Biso   1.000  N
  N5       1.0000 0.23405  0.80320  0.18982  Biso   1.000  N
  N6       1.0000 0.76595  0.80320  0.31018  Biso   1.000  N
  N7       1.0000 0.73405  0.30320  0.18982  Biso   1.000  N
  N8       1.0000 0.26595  0.30320  0.31018  Biso   1.000  N
  N9       1.0000 0.84405  0.26950  0.89562  Biso   1.000  N
  N10      1.0000 0.15595  0.26950  0.60438  Biso   1.000  N
  N11      1.0000 0.34405  0.76950  0.89562  Biso   1.000  N
  N12      1.0000 0.65595  0.76950  0.60438  Biso   1.000  N
  N13      1.0000 0.15595  0.73050  0.10438  Biso   1.000  N
  N14      1.0000 0.84405  0.73050  0.39562  Biso   1.000  N
  N15      1.0000 0.65595  0.23050  0.10438  Biso   1.000  N
  N16      1.0000 0.34405  0.23050  0.39562  Biso   1.000  N
  N17      1.0000 0.01910  0.64410  0.19604  Biso   1.000  N
  N18      1.0000 0.98090  0.64410  0.30396  Biso   1.000  N
  N19      1.0000 0.51910  0.14410  0.19604  Biso   1.000  N
  N20      1.0000 0.48090  0.14410  0.30396  Biso   1.000  N
  N21      1.0000 0.98090  0.35590  0.80396  Biso   1.000  N
  N22      1.0000 0.01910  0.35590  0.69604  Biso   1.000  N
  N23      1.0000 0.48090  0.85590  0.80396  Biso   1.000  N
  N24      1.0000 0.51910  0.85590  0.69604  Biso   1.000  N
  N25      1.0000 0.08284  0.74250  0.28176  Biso   1.000  N
  N26      1.0000 0.91716  0.74250  0.21824  Biso   1.000  N
  N27      1.0000 0.58284  0.24250  0.28176  Biso   1.000  N
  N28      1.0000 0.41716  0.24250  0.21824  Biso   1.000  N
  N29      1.0000 0.91716  0.25750  0.71824  Biso   1.000  N
  N30      1.0000 0.08284  0.25750  0.78176  Biso   1.000  N
  N31      1.0000 0.41716  0.75750  0.71824  Biso   1.000  N
  N32      1.0000 0.58284  0.75750  0.78176  Biso   1.000  N
  N33      1.0000 0.22208  0.87180  0.91406  Biso   1.000  N
  N34      1.0000 0.77792  0.87180  0.58594  Biso   1.000  N
  N35      1.0000 0.72208  0.37180  0.91406  Biso   1.000  N
  N36      1.0000 0.27792  0.37180  0.58594  Biso   1.000  N
  N37      1.0000 0.77792  0.12820  0.08594  Biso   1.000  N
  N38      1.0000 0.22208  0.12820  0.41406  Biso   1.000  N
  N39      1.0000 0.27792  0.62820  0.08594  Biso   1.000  N
  N40      1.0000 0.72208  0.62820  0.41406  Biso   1.000  N
  N41      1.0000 0.22563  0.66350  0.89879  Biso   1.000  N
  N42      1.0000 0.77437  0.66350  0.60121  Biso   1.000  N
  N43      1.0000 0.72563  0.16350  0.89879  Biso   1.000  N
  N44      1.0000 0.27437  0.16350  0.60121  Biso   1.000  N
  N45      1.0000 0.77437  0.33650  0.10121  Biso   1.000  N
  N46      1.0000 0.22563  0.33650  0.39879  Biso   1.000  N
  N47      1.0000 0.27437  0.83650  0.10121  Biso   1.000  N
  N48      1.0000 0.72563  0.83650  0.39879  Biso   1.000  N
  O1       1.0000 0.04806  0.38190  0.06381  Biso   1.000  O
  O2       1.0000 0.95194  0.38190  0.43619  Biso   1.000  O
  O3       1.0000 0.54806  0.88190  0.06381  Biso   1.000  O
  O4       1.0000 0.45194  0.88190  0.43619  Biso   1.000  O
  O5       1.0000 0.95194  0.61810  0.93619  Biso   1.000  O
  O6       1.0000 0.04806  0.61810  0.56381  Biso   1.000  O
  O7       1.0000 0.45194  0.11810  0.93619  Biso   1.000  O
  O8       1.0000 0.54806  0.11810  0.56381  Biso   1.000  O
  O9       1.0000 0.13500  0.42470  0.11286  Biso   1.000  O
  O10      1.0000 0.86500  0.42470  0.38714  Biso   1.000  O
  O11      1.0000 0.63500  0.92470  0.11286  Biso   1.000  O
  O12      1.0000 0.36500  0.92470  0.38714  Biso   1.000  O
  O13      1.0000 0.86500  0.57530  0.88714  Biso   1.000  O
  O14      1.0000 0.13500  0.57530  0.61286  Biso   1.000  O
  O15      1.0000 0.36500  0.07530  0.88714  Biso   1.000  O
  O16      1.0000 0.63500  0.07530  0.61286  Biso   1.000  O
  O17      1.0000 0.28667  0.64120  0.32982  Biso   1.000  O
  O18      1.0000 0.71333  0.64120  0.17018  Biso   1.000  O
  O19      1.0000 0.78667  0.14120  0.32982  Biso   1.000  O
  O20      1.0000 0.21333  0.14120  0.17018  Biso   1.000  O
  O21      1.0000 0.71333  0.35880  0.67018  Biso   1.000  O
  O22      1.0000 0.28667  0.35880  0.82982  Biso   1.000  O
  O23      1.0000 0.21333  0.85880  0.67018  Biso   1.000  O
  O24      1.0000 0.78667  0.85880  0.82982  Biso   1.000  O
  O25      1.0000 0.28437  0.76210  0.39063  Biso   1.000  O
  O26      1.0000 0.71563  0.76210  0.10937  Biso   1.000  O
  O27      1.0000 0.78437  0.26210  0.39063  Biso   1.000  O
  O28      1.0000 0.21563  0.26210  0.10937  Biso   1.000  O
  O29      1.0000 0.71563  0.23790  0.60937  Biso   1.000  O
  O30      1.0000 0.28437  0.23790  0.89063  Biso   1.000  O
  O31      1.0000 0.21563  0.73790  0.60937  Biso   1.000  O
  O32      1.0000 0.78437  0.73790  0.89063  Biso   1.000  O
  O33      1.0000 0.99220  0.89350  0.30080  Biso   1.000  O
  O34      1.0000 0.00780  0.89350  0.19920  Biso   1.000  O
  O35      1.0000 0.49220  0.39350  0.30080  Biso   1.000  O
  O36      1.0000 0.50780  0.39350  0.19920  Biso   1.000  O
  O37      1.0000 0.00780  0.10650  0.69920  Biso   1.000  O
  O38      1.0000 0.99220  0.10650  0.80080  Biso   1.000  O
  O39      1.0000 0.50780  0.60650  0.69920  Biso   1.000  O
  O40      1.0000 0.49220  0.60650  0.80080  Biso   1.000  O
  O41      1.0000 0.50000  0.40450  0.25000  Biso   1.000  O
  O42      1.0000 0.00000  0.90450  0.25000  Biso   1.000  O
  O43      1.0000 0.50000  0.59550  0.75000  Biso   1.000  O
  O44      1.0000 0.00000  0.09550  0.75000  Biso   1.000  O
  O45      1.0000 0.15123  0.11440  0.02670  Biso   1.000  O
  O46      1.0000 0.84877  0.11440  0.47330  Biso   1.000  O
  O47      1.0000 0.65123  0.61440  0.02670  Biso   1.000  O
  O48      1.0000 0.34877  0.61440  0.47330  Biso   1.000  O
  O49      1.0000 0.84877  0.88560  0.97330  Biso   1.000  O
  O50      1.0000 0.15123  0.88560  0.52670  Biso   1.000  O
  O51      1.0000 0.34877  0.38560  0.97330  Biso   1.000  O
  O52      1.0000 0.65123  0.38560  0.52670  Biso   1.000  O
  O53      1.0000 0.09484  0.97050  0.01575  Biso   1.000  O
  O54      1.0000 0.90516  0.97050  0.48425  Biso   1.000  O
  O55      1.0000 0.59484  0.47050  0.01575  Biso   1.000  O
  O56      1.0000 0.40516  0.47050  0.48425  Biso   1.000  O
  O57      1.0000 0.90516  0.02950  0.98425  Biso   1.000  O
  O58      1.0000 0.09484  0.02950  0.51575  Biso   1.000  O
  O59      1.0000 0.40516  0.52950  0.98425  Biso   1.000  O
  O60      1.0000 0.59484  0.52950  0.51575  Biso   1.000  O
  O61      1.0000 0.12229  0.45830  0.99951  Biso   1.000  O
  O62      1.0000 0.87771  0.45830  0.50049  Biso   1.000  O
  O63      1.0000 0.62229  0.95830  0.99951  Biso   1.000  O
  O64      1.0000 0.37771  0.95830  0.50049  Biso   1.000  O
  O65      1.0000 0.87771  0.54170  0.00049  Biso   1.000  O
  O66      1.0000 0.12229  0.54170  0.49951  Biso   1.000  O
  O67      1.0000 0.37771  0.04170  0.00049  Biso   1.000  O
  O68      1.0000 0.62229  0.04170  0.49951  Biso   1.000  O
  O69      1.0000 0.17926  0.33480  0.98598  Biso   1.000  O
  O70      1.0000 0.82074  0.33480  0.51402  Biso   1.000  O
  O71      1.0000 0.67926  0.83480  0.98598  Biso   1.000  O
  O72      1.0000 0.32074  0.83480  0.51402  Biso   1.000  O
  O73      1.0000 0.82074  0.66520  0.01402  Biso   1.000  O
  O74      1.0000 0.17926  0.66520  0.48598  Biso   1.000  O
  O75      1.0000 0.32074  0.16520  0.01402  Biso   1.000  O
  O76      1.0000 0.67926  0.16520  0.48598  Biso   1.000  O
  O77      1.0000 0.10672  0.18720  0.11599  Biso   1.000  O
  O78      1.0000 0.89328  0.18720  0.38401  Biso   1.000  O
  O79      1.0000 0.60672  0.68720  0.11599  Biso   1.000  O
  O80      1.0000 0.39328  0.68720  0.38401  Biso   1.000  O
  O81      1.0000 0.89328  0.81280  0.88401  Biso   1.000  O
  O82      1.0000 0.10672  0.81280  0.61599  Biso   1.000  O
  O83      1.0000 0.39328  0.31280  0.88401  Biso   1.000  O
  O84      1.0000 0.60672  0.31280  0.61599  Biso   1.000  O
  O85      1.0000 0.05258  0.24840  0.97331  Biso   1.000  O
  O86      1.0000 0.94742  0.24840  0.52669  Biso   1.000  O
  O87      1.0000 0.55258  0.74840  0.97331  Biso   1.000  O
  O88      1.0000 0.44742  0.74840  0.52669  Biso   1.000  O
  O89      1.0000 0.94742  0.75160  0.02669  Biso   1.000  O
  O90      1.0000 0.05258  0.75160  0.47331  Biso   1.000  O
  O91      1.0000 0.44742  0.25160  0.02669  Biso   1.000  O
  O92      1.0000 0.55258  0.25160  0.47331  Biso   1.000  O
  O93      1.0000 0.03643  0.13530  0.90647  Biso   1.000  O
  O94      1.0000 0.96357  0.13530  0.59353  Biso   1.000  O
  O95      1.0000 0.53643  0.63530  0.90647  Biso   1.000  O
  O96      1.0000 0.46357  0.63530  0.59353  Biso   1.000  O
  O97      1.0000 0.96357  0.86470  0.09353  Biso   1.000  O
  O98      1.0000 0.03643  0.86470  0.40647  Biso   1.000  O
  O99      1.0000 0.46357  0.36470  0.09353  Biso   1.000  O
  O100     1.0000 0.53643  0.36470  0.40647  Biso   1.000  O
  O101     1.0000 0.83779  0.90850  0.71685  Biso   1.000  O
  O102     1.0000 0.16221  0.90850  0.78315  Biso   1.000  O
  O103     1.0000 0.33779  0.40850  0.71685  Biso   1.000  O
  O104     1.0000 0.66221  0.40850  0.78315  Biso   1.000  O
  O105     1.0000 0.16221  0.09150  0.28315  Biso   1.000  O
  O106     1.0000 0.83779  0.09150  0.21685  Biso   1.000  O
  O107     1.0000 0.66221  0.59150  0.28315  Biso   1.000  O
  O108     1.0000 0.33779  0.59150  0.21685  Biso   1.000  O
  O109     1.0000 0.74502  0.91800  0.67615  Biso   1.000  O
  O110     1.0000 0.25498  0.91800  0.82385  Biso   1.000  O
  O111     1.0000 0.24502  0.41800  0.67615  Biso   1.000  O
  O112     1.0000 0.75498  0.41800  0.82385  Biso   1.000  O
  O113     1.0000 0.25498  0.08200  0.32385  Biso   1.000  O
  O114     1.0000 0.74502  0.08200  0.17615  Biso   1.000  O
  O115     1.0000 0.75498  0.58200  0.32385  Biso   1.000  O
  O116     1.0000 0.24502  0.58200  0.17615  Biso   1.000  O
  O117     1.0000 0.02429  0.05480  0.06414  Biso   1.000  O
  O118     1.0000 0.97571  0.05480  0.43586  Biso   1.000  O
  O119     1.0000 0.52429  0.55480  0.06414  Biso   1.000  O
  O120     1.0000 0.47571  0.55480  0.43586  Biso   1.000  O
  O121     1.0000 0.97571  0.94520  0.93586  Biso   1.000  O
  O122     1.0000 0.02429  0.94520  0.56414  Biso   1.000  O
  O123     1.0000 0.47571  0.44520  0.93586  Biso   1.000  O
  O124     1.0000 0.52429  0.44520  0.56414  Biso   1.000  O
  O125     1.0000 0.08570  0.26020  0.20770  Biso   1.000  O
  O126     1.0000 0.91430  0.26020  0.29230  Biso   1.000  O
  O127     1.0000 0.58570  0.76020  0.20770  Biso   1.000  O
  O128     1.0000 0.41430  0.76020  0.29230  Biso   1.000  O
  O129     1.0000 0.91430  0.73980  0.79230  Biso   1.000  O
  O130     1.0000 0.08570  0.73980  0.70770  Biso   1.000  O
  O131     1.0000 0.41430  0.23980  0.79230  Biso   1.000  O
  O132     1.0000 0.58570  0.23980  0.70770  Biso   1.000  O
  O133     1.0000 0.02590  0.24200  0.32840  Biso   1.000  O
  O134     1.0000 0.97410  0.24200  0.17160  Biso   1.000  O
  O135     1.0000 0.52590  0.74200  0.32840  Biso   1.000  O
  O136     1.0000 0.47410  0.74200  0.17160  Biso   1.000  O
  O137     1.0000 0.97410  0.75800  0.67160  Biso   1.000  O
  O138     1.0000 0.02590  0.75800  0.82840  Biso   1.000  O
  O139     1.0000 0.47410  0.25800  0.67160  Biso   1.000  O
  O140     1.0000 0.52590  0.25800  0.82840  Biso   1.000  O
  O141     1.0000 0.03951  0.25210  0.43090  Biso   1.000  O
  O142     1.0000 0.96049  0.25210  0.06910  Biso   1.000  O
  O143     1.0000 0.53951  0.75210  0.43090  Biso   1.000  O
  O144     1.0000 0.46049  0.75210  0.06910  Biso   1.000  O
  O145     1.0000 0.96049  0.74790  0.56910  Biso   1.000  O
  O146     1.0000 0.03951  0.74790  0.93090  Biso   1.000  O
  O147     1.0000 0.46049  0.24790  0.56910  Biso   1.000  O
  O148     1.0000 0.53951  0.24790  0.93090  Biso   1.000  O
  O149     1.0000 0.93450  0.94650  0.69070  Biso   1.000  O
  O150     1.0000 0.06550  0.94650  0.80930  Biso   1.000  O
  O151     1.0000 0.43450  0.44650  0.69070  Biso   1.000  O
  O152     1.0000 0.56550  0.44650  0.80930  Biso   1.000  O
  O153     1.0000 0.06550  0.05350  0.30930  Biso   1.000  O
  O154     1.0000 0.93450  0.05350  0.19070  Biso   1.000  O
  O155     1.0000 0.56550  0.55350  0.30930  Biso   1.000  O
  O156     1.0000 0.43450  0.55350  0.19070  Biso   1.000  O
  O157     1.0000 0.54840  0.53450  0.20320  Biso   1.000  O
  O158     1.0000 0.45160  0.53450  0.29680  Biso   1.000  O
  O159     1.0000 0.04840  0.03450  0.20320  Biso   1.000  O
  O160     1.0000 0.95160  0.03450  0.29680  Biso   1.000  O
  O161     1.0000 0.45160  0.46550  0.79680  Biso   1.000  O
  O162     1.0000 0.54840  0.46550  0.70320  Biso   1.000  O
  O163     1.0000 0.95160  0.96550  0.79680  Biso   1.000  O
  O164     1.0000 0.04840  0.96550  0.70320  Biso   1.000  O
