data_image0
_cell_length_a       25.137
_cell_length_b       12.413
_cell_length_c       26.807
_cell_angle_alpha    90
_cell_angle_beta     109.12
_cell_angle_gamma    90

_symmetry_space_group_name_H-M    "P 1"
_symmetry_int_tables_number       1

loop_
  _symmetry_equiv_pos_as_xyz
  'x, y, z'

loop_
  _atom_site_label
  _atom_site_occupancy
  _atom_site_fract_x
  _atom_site_fract_y
  _atom_site_fract_z
  _atom_site_thermal_displace_type
  _atom_site_B_iso_or_equiv
  _atom_site_type_symbol
  Eu1      1.0000 0.62655  0.21516  0.54545  Biso   1.000  Eu
  Eu2      1.0000 0.37345  0.21516  0.95455  Biso   1.000  Eu
  Eu3      1.0000 0.12655  0.71515  0.54545  Biso   1.000  Eu
  Eu4      1.0000 0.87345  0.71515  0.95455  Biso   1.000  Eu
  Eu5      1.0000 0.37345  0.78485  0.45455  Biso   1.000  Eu
  Eu6      1.0000 0.62655  0.78485  0.04545  Biso   1.000  Eu
  Eu7      1.0000 0.87345  0.28485  0.45455  Biso   1.000  Eu
  Eu8      1.0000 0.12655  0.28485  0.04545  Biso   1.000  Eu
  Cu1      1.0000 0.25292  0.20949  0.36546  Biso   1.000  Cu
  Cu2      1.0000 0.74708  0.20949  0.13454  Biso   1.000  Cu
  Cu3      1.0000 0.75292  0.70949  0.36546  Biso   1.000  Cu
  Cu4      1.0000 0.24708  0.70949  0.13454  Biso   1.000  Cu
  Cu5      1.0000 0.74708  0.79051  0.63454  Biso   1.000  Cu
  Cu6      1.0000 0.25292  0.79051  0.86546  Biso   1.000  Cu
  Cu7      1.0000 0.24708  0.29051  0.63454  Biso   1.000  Cu
  Cu8      1.0000 0.75292  0.29051  0.86546  Biso   1.000  Cu
  Cu9      1.0000 0.00000  0.24862  0.75000  Biso   1.000  Cu
  Cu10     1.0000 0.50000  0.74862  0.75000  Biso   1.000  Cu
  Cu11     1.0000 0.00000  0.75138  0.25000  Biso   1.000  Cu
  Cu12     1.0000 0.50000  0.25138  0.25000  Biso   1.000  Cu
  C1       1.0000 0.38316  0.17780  0.43410  Biso   1.000  C
  C2       1.0000 0.61684  0.17780  0.06590  Biso   1.000  C
  C3       1.0000 0.88316  0.67780  0.43410  Biso   1.000  C
  C4       1.0000 0.11684  0.67780  0.06590  Biso   1.000  C
  C5       1.0000 0.61684  0.82220  0.56590  Biso   1.000  C
  C6       1.0000 0.38316  0.82220  0.93410  Biso   1.000  C
  C7       1.0000 0.11684  0.32220  0.56590  Biso   1.000  C
  C8       1.0000 0.88316  0.32220  0.93410  Biso   1.000  C
  H1       1.0000 0.37120  0.12500  0.45270  Biso   1.000  H
  H2       1.0000 0.62880  0.12500  0.04730  Biso   1.000  H
  H3       1.0000 0.87120  0.62500  0.45270  Biso   1.000  H
  H4       1.0000 0.12880  0.62500  0.04730  Biso   1.000  H
  H5       1.0000 0.62880  0.87500  0.54730  Biso   1.000  H
  H6       1.0000 0.37120  0.87500  0.95270  Biso   1.000  H
  H7       1.0000 0.12880  0.37500  0.54730  Biso   1.000  H
  H8       1.0000 0.87120  0.37500  0.95270  Biso   1.000  H
  C9       1.0000 0.43973  0.19860  0.44820  Biso   1.000  C
  C10      1.0000 0.56027  0.19860  0.05180  Biso   1.000  C
  C11      1.0000 0.93973  0.69860  0.44820  Biso   1.000  C
  C12      1.0000 0.06027  0.69860  0.05180  Biso   1.000  C
  C13      1.0000 0.56027  0.80140  0.55180  Biso   1.000  C
  C14      1.0000 0.43973  0.80140  0.94820  Biso   1.000  C
  C15      1.0000 0.06027  0.30140  0.55180  Biso   1.000  C
  C16      1.0000 0.93973  0.30140  0.94820  Biso   1.000  C
  H9       1.0000 0.46510  0.16210  0.47630  Biso   1.000  H
  H10      1.0000 0.53490  0.16210  0.02370  Biso   1.000  H
  H11      1.0000 0.96510  0.66210  0.47630  Biso   1.000  H
  H12      1.0000 0.03490  0.66210  0.02370  Biso   1.000  H
  H13      1.0000 0.53490  0.83790  0.52370  Biso   1.000  H
  H14      1.0000 0.46510  0.83790  0.97630  Biso   1.000  H
  H15      1.0000 0.03490  0.33790  0.52370  Biso   1.000  H
  H16      1.0000 0.96510  0.33790  0.97630  Biso   1.000  H
  C17      1.0000 0.45860  0.27500  0.41998  Biso   1.000  C
  C18      1.0000 0.54140  0.27500  0.08002  Biso   1.000  C
  C19      1.0000 0.95860  0.77500  0.41998  Biso   1.000  C
  C20      1.0000 0.04140  0.77500  0.08002  Biso   1.000  C
  C21      1.0000 0.54140  0.72500  0.58002  Biso   1.000  C
  C22      1.0000 0.45860  0.72500  0.91998  Biso   1.000  C
  C23      1.0000 0.04140  0.22500  0.58002  Biso   1.000  C
  C24      1.0000 0.95860  0.22500  0.91998  Biso   1.000  C
  C25      1.0000 0.41845  0.32880  0.37836  Biso   1.000  C
  C26      1.0000 0.58155  0.32880  0.12164  Biso   1.000  C
  C27      1.0000 0.91845  0.82880  0.37836  Biso   1.000  C
  C28      1.0000 0.08155  0.82880  0.12164  Biso   1.000  C
  C29      1.0000 0.58155  0.67120  0.62164  Biso   1.000  C
  C30      1.0000 0.41845  0.67120  0.87836  Biso   1.000  C
  C31      1.0000 0.08155  0.17120  0.62164  Biso   1.000  C
  C32      1.0000 0.91845  0.17120  0.87836  Biso   1.000  C
  H17      1.0000 0.42950  0.38140  0.35900  Biso   1.000  H
  H18      1.0000 0.57050  0.38140  0.14100  Biso   1.000  H
  H19      1.0000 0.92950  0.88140  0.35900  Biso   1.000  H
  H20      1.0000 0.07050  0.88140  0.14100  Biso   1.000  H
  H21      1.0000 0.57050  0.61860  0.64100  Biso   1.000  H
  H22      1.0000 0.42950  0.61860  0.85900  Biso   1.000  H
  H23      1.0000 0.07050  0.11860  0.64100  Biso   1.000  H
  H24      1.0000 0.92950  0.11860  0.85900  Biso   1.000  H
  C33      1.0000 0.36258  0.30240  0.36670  Biso   1.000  C
  C34      1.0000 0.63742  0.30240  0.13330  Biso   1.000  C
  C35      1.0000 0.86258  0.80240  0.36670  Biso   1.000  C
  C36      1.0000 0.13742  0.80240  0.13330  Biso   1.000  C
  C37      1.0000 0.63742  0.69760  0.63330  Biso   1.000  C
  C38      1.0000 0.36258  0.69760  0.86670  Biso   1.000  C
  C39      1.0000 0.13742  0.19760  0.63330  Biso   1.000  C
  C40      1.0000 0.86258  0.19760  0.86670  Biso   1.000  C
  C41      1.0000 0.31749  0.34660  0.32001  Biso   1.000  C
  C42      1.0000 0.68251  0.34660  0.17999  Biso   1.000  C
  C43      1.0000 0.81749  0.84660  0.32001  Biso   1.000  C
  C44      1.0000 0.18251  0.84660  0.17999  Biso   1.000  C
  C45      1.0000 0.68251  0.65340  0.67999  Biso   1.000  C
  C46      1.0000 0.31749  0.65340  0.82001  Biso   1.000  C
  C47      1.0000 0.18251  0.15340  0.67999  Biso   1.000  C
  C48      1.0000 0.81749  0.15340  0.82001  Biso   1.000  C
  C49      1.0000 0.32774  0.42680  0.28769  Biso   1.000  C
  C50      1.0000 0.67226  0.42680  0.21231  Biso   1.000  C
  C51      1.0000 0.82774  0.92680  0.28769  Biso   1.000  C
  C52      1.0000 0.17226  0.92680  0.21231  Biso   1.000  C
  C53      1.0000 0.67226  0.57320  0.71231  Biso   1.000  C
  C54      1.0000 0.32774  0.57320  0.78769  Biso   1.000  C
  C55      1.0000 0.17226  0.07320  0.71231  Biso   1.000  C
  C56      1.0000 0.82774  0.07320  0.78769  Biso   1.000  C
  H25      1.0000 0.36300  0.45890  0.29570  Biso   1.000  H
  H26      1.0000 0.63700  0.45890  0.20430  Biso   1.000  H
  H27      1.0000 0.86300  0.95890  0.29570  Biso   1.000  H
  H28      1.0000 0.13700  0.95890  0.20430  Biso   1.000  H
  H29      1.0000 0.63700  0.54110  0.70430  Biso   1.000  H
  H30      1.0000 0.36300  0.54110  0.79570  Biso   1.000  H
  H31      1.0000 0.13700  0.04110  0.70430  Biso   1.000  H
  H32      1.0000 0.86300  0.04110  0.79570  Biso   1.000  H
  C57      1.0000 0.28349  0.45710  0.24309  Biso   1.000  C
  C58      1.0000 0.71651  0.45710  0.25691  Biso   1.000  C
  C59      1.0000 0.78349  0.95710  0.24309  Biso   1.000  C
  C60      1.0000 0.21651  0.95710  0.25691  Biso   1.000  C
  C61      1.0000 0.71651  0.54290  0.75691  Biso   1.000  C
  C62      1.0000 0.28349  0.54290  0.74309  Biso   1.000  C
  C63      1.0000 0.21651  0.04290  0.75691  Biso   1.000  C
  C64      1.0000 0.78349  0.04290  0.74309  Biso   1.000  C
  C65      1.0000 0.23225  0.40590  0.23090  Biso   1.000  C
  C66      1.0000 0.76775  0.40590  0.26910  Biso   1.000  C
  C67      1.0000 0.73225  0.90590  0.23090  Biso   1.000  C
  C68      1.0000 0.26775  0.90590  0.26910  Biso   1.000  C
  C69      1.0000 0.76775  0.59410  0.76910  Biso   1.000  C
  C70      1.0000 0.23225  0.59410  0.73090  Biso   1.000  C
  C71      1.0000 0.26775  0.09410  0.76910  Biso   1.000  C
  C72      1.0000 0.73225  0.09410  0.73090  Biso   1.000  C
  H33      1.0000 0.20330  0.42200  0.19980  Biso   1.000  H
  H34      1.0000 0.79670  0.42200  0.30020  Biso   1.000  H
  H35      1.0000 0.70330  0.92200  0.19980  Biso   1.000  H
  H36      1.0000 0.29670  0.92200  0.30020  Biso   1.000  H
  H37      1.0000 0.79670  0.57800  0.80020  Biso   1.000  H
  H38      1.0000 0.20330  0.57800  0.69980  Biso   1.000  H
  H39      1.0000 0.29670  0.07800  0.80020  Biso   1.000  H
  H40      1.0000 0.70330  0.07800  0.69980  Biso   1.000  H
  C73      1.0000 0.22460  0.32980  0.26593  Biso   1.000  C
  C74      1.0000 0.77540  0.32980  0.23407  Biso   1.000  C
  C75      1.0000 0.72460  0.82980  0.26593  Biso   1.000  C
  C76      1.0000 0.27540  0.82980  0.23407  Biso   1.000  C
  C77      1.0000 0.77540  0.67020  0.73407  Biso   1.000  C
  C78      1.0000 0.22460  0.67020  0.76593  Biso   1.000  C
  C79      1.0000 0.27540  0.17020  0.73407  Biso   1.000  C
  C80      1.0000 0.72460  0.17020  0.76593  Biso   1.000  C
  H41      1.0000 0.18970  0.29670  0.25860  Biso   1.000  H
  H42      1.0000 0.81030  0.29670  0.24140  Biso   1.000  H
  H43      1.0000 0.68970  0.79670  0.25860  Biso   1.000  H
  H44      1.0000 0.31030  0.79670  0.24140  Biso   1.000  H
  H45      1.0000 0.81030  0.70330  0.74140  Biso   1.000  H
  H46      1.0000 0.18970  0.70330  0.75860  Biso   1.000  H
  H47      1.0000 0.31030  0.20330  0.74140  Biso   1.000  H
  H48      1.0000 0.68970  0.20330  0.75860  Biso   1.000  H
  C81      1.0000 0.52075  0.30090  0.43355  Biso   1.000  C
  C82      1.0000 0.47925  0.30090  0.06645  Biso   1.000  C
  C83      1.0000 0.02075  0.80090  0.43355  Biso   1.000  C
  C84      1.0000 0.97925  0.80090  0.06645  Biso   1.000  C
  C85      1.0000 0.47925  0.69910  0.56645  Biso   1.000  C
  C86      1.0000 0.52075  0.69910  0.93355  Biso   1.000  C
  C87      1.0000 0.97925  0.19910  0.56645  Biso   1.000  C
  C88      1.0000 0.02075  0.19910  0.93355  Biso   1.000  C
  C89      1.0000 0.29008  0.55050  0.20965  Biso   1.000  C
  C90      1.0000 0.70992  0.55050  0.29035  Biso   1.000  C
  C91      1.0000 0.79008  0.05050  0.20965  Biso   1.000  C
  C92      1.0000 0.20992  0.05050  0.29035  Biso   1.000  C
  C93      1.0000 0.70992  0.44950  0.79035  Biso   1.000  C
  C94      1.0000 0.29008  0.44950  0.70965  Biso   1.000  C
  C95      1.0000 0.20992  0.94950  0.79035  Biso   1.000  C
  C96      1.0000 0.79008  0.94950  0.70965  Biso   1.000  C
  C97      1.0000 0.72600  0.52130  0.42287  Biso   1.000  C
  C98      1.0000 0.27400  0.52130  0.07713  Biso   1.000  C
  C99      1.0000 0.22600  0.02130  0.42287  Biso   1.000  C
  C100     1.0000 0.77400  0.02130  0.07713  Biso   1.000  C
  C101     1.0000 0.27400  0.47870  0.57713  Biso   1.000  C
  C102     1.0000 0.72600  0.47870  0.92287  Biso   1.000  C
  C103     1.0000 0.77400  0.97870  0.57713  Biso   1.000  C
  C104     1.0000 0.22600  0.97870  0.92287  Biso   1.000  C
  H49      1.0000 0.74730  0.47990  0.40750  Biso   1.000  H
  H50      1.0000 0.25270  0.47990  0.09250  Biso   1.000  H
  H51      1.0000 0.24730  0.97990  0.40750  Biso   1.000  H
  H52      1.0000 0.75270  0.97990  0.09250  Biso   1.000  H
  H53      1.0000 0.25270  0.52010  0.59250  Biso   1.000  H
  H54      1.0000 0.74730  0.52010  0.90750  Biso   1.000  H
  H55      1.0000 0.75270  0.02010  0.59250  Biso   1.000  H
  H56      1.0000 0.24730  0.02010  0.90750  Biso   1.000  H
  C105     1.0000 0.69910  0.47100  0.45398  Biso   1.000  C
  C106     1.0000 0.30090  0.47100  0.04602  Biso   1.000  C
  C107     1.0000 0.19910  0.97100  0.45398  Biso   1.000  C
  C108     1.0000 0.80090  0.97100  0.04602  Biso   1.000  C
  C109     1.0000 0.30090  0.52900  0.54602  Biso   1.000  C
  C110     1.0000 0.69910  0.52900  0.95398  Biso   1.000  C
  C111     1.0000 0.80090  0.02900  0.54602  Biso   1.000  C
  C112     1.0000 0.19910  0.02900  0.95398  Biso   1.000  C
  H57      1.0000 0.70390  0.39750  0.46070  Biso   1.000  H
  H58      1.0000 0.29610  0.39750  0.03930  Biso   1.000  H
  H59      1.0000 0.20390  0.89750  0.46070  Biso   1.000  H
  H60      1.0000 0.79610  0.89750  0.03930  Biso   1.000  H
  H61      1.0000 0.29610  0.60250  0.53930  Biso   1.000  H
  H62      1.0000 0.70390  0.60250  0.96070  Biso   1.000  H
  H63      1.0000 0.79610  0.10250  0.53930  Biso   1.000  H
  H64      1.0000 0.20390  0.10250  0.96070  Biso   1.000  H
  C113     1.0000 0.66467  0.53090  0.47513  Biso   1.000  C
  C114     1.0000 0.33533  0.53090  0.02487  Biso   1.000  C
  C115     1.0000 0.16467  0.03090  0.47513  Biso   1.000  C
  C116     1.0000 0.83533  0.03090  0.02487  Biso   1.000  C
  C117     1.0000 0.33533  0.46910  0.52487  Biso   1.000  C
  C118     1.0000 0.66467  0.46910  0.97513  Biso   1.000  C
  C119     1.0000 0.83533  0.96910  0.52487  Biso   1.000  C
  C120     1.0000 0.16467  0.96910  0.97513  Biso   1.000  C
  C121     1.0000 0.66100  0.64200  0.46582  Biso   1.000  C
  C122     1.0000 0.33900  0.64200  0.03418  Biso   1.000  C
  C123     1.0000 0.16100  0.14200  0.46582  Biso   1.000  C
  C124     1.0000 0.83900  0.14200  0.03418  Biso   1.000  C
  C125     1.0000 0.33900  0.35800  0.53418  Biso   1.000  C
  C126     1.0000 0.66100  0.35800  0.96582  Biso   1.000  C
  C127     1.0000 0.83900  0.85800  0.53418  Biso   1.000  C
  C128     1.0000 0.16100  0.85800  0.96582  Biso   1.000  C
  H65      1.0000 0.63850  0.68440  0.47940  Biso   1.000  H
  H66      1.0000 0.36150  0.68440  0.02060  Biso   1.000  H
  H67      1.0000 0.13850  0.18440  0.47940  Biso   1.000  H
  H68      1.0000 0.86150  0.18440  0.02060  Biso   1.000  H
  H69      1.0000 0.36150  0.31560  0.52060  Biso   1.000  H
  H70      1.0000 0.63850  0.31560  0.97940  Biso   1.000  H
  H71      1.0000 0.86150  0.81560  0.52060  Biso   1.000  H
  H72      1.0000 0.13850  0.81560  0.97940  Biso   1.000  H
  C129     1.0000 0.69105  0.68850  0.43620  Biso   1.000  C
  C130     1.0000 0.30895  0.68850  0.06380  Biso   1.000  C
  C131     1.0000 0.19105  0.18850  0.43620  Biso   1.000  C
  C132     1.0000 0.80895  0.18850  0.06380  Biso   1.000  C
  C133     1.0000 0.30895  0.31150  0.56380  Biso   1.000  C
  C134     1.0000 0.69105  0.31150  0.93620  Biso   1.000  C
  C135     1.0000 0.80895  0.81150  0.56380  Biso   1.000  C
  C136     1.0000 0.19105  0.81150  0.93620  Biso   1.000  C
  C137     1.0000 0.69407  0.80560  0.42792  Biso   1.000  C
  C138     1.0000 0.30593  0.80560  0.07208  Biso   1.000  C
  C139     1.0000 0.19407  0.30560  0.42792  Biso   1.000  C
  C140     1.0000 0.80593  0.30560  0.07208  Biso   1.000  C
  C141     1.0000 0.30593  0.19440  0.57208  Biso   1.000  C
  C142     1.0000 0.69407  0.19440  0.92792  Biso   1.000  C
  C143     1.0000 0.80593  0.69440  0.57208  Biso   1.000  C
  C144     1.0000 0.19407  0.69440  0.92792  Biso   1.000  C
  C145     1.0000 0.66840  0.88100  0.45128  Biso   1.000  C
  C146     1.0000 0.33160  0.88100  0.04872  Biso   1.000  C
  C147     1.0000 0.16840  0.38100  0.45128  Biso   1.000  C
  C148     1.0000 0.83160  0.38100  0.04872  Biso   1.000  C
  C149     1.0000 0.33160  0.11900  0.54872  Biso   1.000  C
  C150     1.0000 0.66840  0.11900  0.95128  Biso   1.000  C
  C151     1.0000 0.83160  0.61900  0.54872  Biso   1.000  C
  C152     1.0000 0.16840  0.61900  0.95128  Biso   1.000  C
  H73      1.0000 0.64350  0.85900  0.46840  Biso   1.000  H
  H74      1.0000 0.35650  0.85900  0.03160  Biso   1.000  H
  H75      1.0000 0.14350  0.35900  0.46840  Biso   1.000  H
  H76      1.0000 0.85650  0.35900  0.03160  Biso   1.000  H
  H77      1.0000 0.35650  0.14100  0.53160  Biso   1.000  H
  H78      1.0000 0.64350  0.14100  0.96840  Biso   1.000  H
  H79      1.0000 0.85650  0.64100  0.53160  Biso   1.000  H
  H80      1.0000 0.14350  0.64100  0.96840  Biso   1.000  H
  C153     1.0000 0.68071  0.98880  0.44851  Biso   1.000  C
  C154     1.0000 0.31929  0.98880  0.05149  Biso   1.000  C
  C155     1.0000 0.18071  0.48880  0.44851  Biso   1.000  C
  C156     1.0000 0.81929  0.48880  0.05149  Biso   1.000  C
  C157     1.0000 0.31929  0.01120  0.55149  Biso   1.000  C
  C158     1.0000 0.68071  0.01120  0.94851  Biso   1.000  C
  C159     1.0000 0.81929  0.51120  0.55149  Biso   1.000  C
  C160     1.0000 0.18071  0.51120  0.94851  Biso   1.000  C
  C161     1.0000 0.71571  0.01970  0.42007  Biso   1.000  C
  C162     1.0000 0.28429  0.01970  0.07993  Biso   1.000  C
  C163     1.0000 0.21571  0.51970  0.42007  Biso   1.000  C
  C164     1.0000 0.78429  0.51970  0.07993  Biso   1.000  C
  C165     1.0000 0.28429  0.98030  0.57993  Biso   1.000  C
  C166     1.0000 0.71571  0.98030  0.92007  Biso   1.000  C
  C167     1.0000 0.78429  0.48030  0.57993  Biso   1.000  C
  C168     1.0000 0.21571  0.48030  0.92007  Biso   1.000  C
  H81      1.0000 0.72480  0.09180  0.41800  Biso   1.000  H
  H82      1.0000 0.27520  0.09180  0.08200  Biso   1.000  H
  H83      1.0000 0.22480  0.59180  0.41800  Biso   1.000  H
  H84      1.0000 0.77520  0.59180  0.08200  Biso   1.000  H
  H85      1.0000 0.27520  0.90820  0.58200  Biso   1.000  H
  H86      1.0000 0.72480  0.90820  0.91800  Biso   1.000  H
  H87      1.0000 0.77520  0.40820  0.58200  Biso   1.000  H
  H88      1.0000 0.22480  0.40820  0.91800  Biso   1.000  H
  C169     1.0000 0.73660  0.94110  0.39493  Biso   1.000  C
  C170     1.0000 0.26340  0.94110  0.10507  Biso   1.000  C
  C171     1.0000 0.23660  0.44110  0.39493  Biso   1.000  C
  C172     1.0000 0.76340  0.44110  0.10507  Biso   1.000  C
  C173     1.0000 0.26340  0.05890  0.60507  Biso   1.000  C
  C174     1.0000 0.73660  0.05890  0.89493  Biso   1.000  C
  C175     1.0000 0.76340  0.55890  0.60507  Biso   1.000  C
  C176     1.0000 0.23660  0.55890  0.89493  Biso   1.000  C
  H89      1.0000 0.75860  0.96180  0.37470  Biso   1.000  H
  H90      1.0000 0.24140  0.96180  0.12530  Biso   1.000  H
  H91      1.0000 0.25860  0.46180  0.37470  Biso   1.000  H
  H92      1.0000 0.74140  0.46180  0.12530  Biso   1.000  H
  H93      1.0000 0.24140  0.03820  0.62530  Biso   1.000  H
  H94      1.0000 0.75860  0.03820  0.87470  Biso   1.000  H
  H95      1.0000 0.74140  0.53820  0.62530  Biso   1.000  H
  H96      1.0000 0.25860  0.53820  0.87470  Biso   1.000  H
  C177     1.0000 0.63360  0.48010  0.50841  Biso   1.000  C
  C178     1.0000 0.36640  0.48010  0.99159  Biso   1.000  C
  C179     1.0000 0.13360  0.98010  0.50841  Biso   1.000  C
  C180     1.0000 0.86640  0.98010  0.99159  Biso   1.000  C
  C181     1.0000 0.36640  0.51990  0.49159  Biso   1.000  C
  C182     1.0000 0.63360  0.51990  0.00841  Biso   1.000  C
  C183     1.0000 0.86640  0.01990  0.49159  Biso   1.000  C
  C184     1.0000 0.13360  0.01990  0.00841  Biso   1.000  C
  C185     1.0000 0.65983  0.07180  0.47945  Biso   1.000  C
  C186     1.0000 0.34017  0.07180  0.02055  Biso   1.000  C
  C187     1.0000 0.15983  0.57180  0.47945  Biso   1.000  C
  C188     1.0000 0.84017  0.57180  0.02055  Biso   1.000  C
  C189     1.0000 0.34017  0.92820  0.52055  Biso   1.000  C
  C190     1.0000 0.65983  0.92820  0.97945  Biso   1.000  C
  C191     1.0000 0.84017  0.42820  0.52055  Biso   1.000  C
  C192     1.0000 0.15983  0.42820  0.97945  Biso   1.000  C
  C193     1.0000 0.88886  0.31780  0.74341  Biso   1.000  C
  C194     1.0000 0.11114  0.31780  0.75659  Biso   1.000  C
  C195     1.0000 0.38886  0.81780  0.74341  Biso   1.000  C
  C196     1.0000 0.61114  0.81780  0.75659  Biso   1.000  C
  C197     1.0000 0.11114  0.68220  0.25659  Biso   1.000  C
  C198     1.0000 0.88886  0.68220  0.24341  Biso   1.000  C
  C199     1.0000 0.61114  0.18220  0.25659  Biso   1.000  C
  C200     1.0000 0.38886  0.18220  0.24341  Biso   1.000  C
  C201     1.0000 0.83109  0.33090  0.72282  Biso   1.000  C
  C202     1.0000 0.16891  0.33090  0.77718  Biso   1.000  C
  C203     1.0000 0.33109  0.83090  0.72282  Biso   1.000  C
  C204     1.0000 0.66891  0.83090  0.77718  Biso   1.000  C
  C205     1.0000 0.16891  0.66910  0.27718  Biso   1.000  C
  C206     1.0000 0.83109  0.66910  0.22282  Biso   1.000  C
  C207     1.0000 0.66891  0.16910  0.27718  Biso   1.000  C
  C208     1.0000 0.33109  0.16910  0.22282  Biso   1.000  C
  H97      1.0000 0.81230  0.37320  0.74030  Biso   1.000  H
  H98      1.0000 0.18770  0.37320  0.75970  Biso   1.000  H
  H99      1.0000 0.31230  0.87320  0.74030  Biso   1.000  H
  H100     1.0000 0.68770  0.87320  0.75970  Biso   1.000  H
  H101     1.0000 0.18770  0.62680  0.25970  Biso   1.000  H
  H102     1.0000 0.81230  0.62680  0.24030  Biso   1.000  H
  H103     1.0000 0.68770  0.12680  0.25970  Biso   1.000  H
  H104     1.0000 0.31230  0.12680  0.24030  Biso   1.000  H
  C209     1.0000 0.80150  0.28030  0.67588  Biso   1.000  C
  C210     1.0000 0.19850  0.28030  0.82412  Biso   1.000  C
  C211     1.0000 0.30150  0.78030  0.67588  Biso   1.000  C
  C212     1.0000 0.69850  0.78030  0.82412  Biso   1.000  C
  C213     1.0000 0.19850  0.71970  0.32412  Biso   1.000  C
  C214     1.0000 0.80150  0.71970  0.17588  Biso   1.000  C
  C215     1.0000 0.69850  0.21970  0.32412  Biso   1.000  C
  C216     1.0000 0.30150  0.21970  0.17588  Biso   1.000  C
  C217     1.0000 0.83100  0.21850  0.65056  Biso   1.000  C
  C218     1.0000 0.16900  0.21850  0.84944  Biso   1.000  C
  C219     1.0000 0.33100  0.71850  0.65056  Biso   1.000  C
  C220     1.0000 0.66900  0.71850  0.84944  Biso   1.000  C
  C221     1.0000 0.16900  0.78150  0.34944  Biso   1.000  C
  C222     1.0000 0.83100  0.78150  0.15056  Biso   1.000  C
  C223     1.0000 0.66900  0.28150  0.34944  Biso   1.000  C
  C224     1.0000 0.33100  0.28150  0.15056  Biso   1.000  C
  H105     1.0000 0.81210  0.18460  0.61880  Biso   1.000  H
  H106     1.0000 0.18790  0.18460  0.88120  Biso   1.000  H
  H107     1.0000 0.31210  0.68460  0.61880  Biso   1.000  H
  H108     1.0000 0.68790  0.68460  0.88120  Biso   1.000  H
  H109     1.0000 0.18790  0.81540  0.38120  Biso   1.000  H
  H110     1.0000 0.81210  0.81540  0.11880  Biso   1.000  H
  H111     1.0000 0.68790  0.31540  0.38120  Biso   1.000  H
  H112     1.0000 0.31210  0.31540  0.11880  Biso   1.000  H
  C225     1.0000 0.88840  0.20780  0.67287  Biso   1.000  C
  C226     1.0000 0.11160  0.20780  0.82713  Biso   1.000  C
  C227     1.0000 0.38840  0.70780  0.67287  Biso   1.000  C
  C228     1.0000 0.61160  0.70780  0.82713  Biso   1.000  C
  C229     1.0000 0.11160  0.79220  0.32713  Biso   1.000  C
  C230     1.0000 0.88840  0.79220  0.17287  Biso   1.000  C
  C231     1.0000 0.61160  0.29220  0.32713  Biso   1.000  C
  C232     1.0000 0.38840  0.29220  0.17287  Biso   1.000  C
  H113     1.0000 0.90770  0.16570  0.65580  Biso   1.000  H
  H114     1.0000 0.09230  0.16570  0.84420  Biso   1.000  H
  H115     1.0000 0.40770  0.66570  0.65580  Biso   1.000  H
  H116     1.0000 0.59230  0.66570  0.84420  Biso   1.000  H
  H117     1.0000 0.09230  0.83430  0.34420  Biso   1.000  H
  H118     1.0000 0.90770  0.83430  0.15580  Biso   1.000  H
  H119     1.0000 0.59230  0.33430  0.34420  Biso   1.000  H
  H120     1.0000 0.40770  0.33430  0.15580  Biso   1.000  H
  C233     1.0000 0.73904  0.29340  0.65067  Biso   1.000  C
  C234     1.0000 0.26096  0.29340  0.84933  Biso   1.000  C
  C235     1.0000 0.23904  0.79340  0.65067  Biso   1.000  C
  C236     1.0000 0.76096  0.79340  0.84933  Biso   1.000  C
  C237     1.0000 0.26096  0.70660  0.34933  Biso   1.000  C
  C238     1.0000 0.73904  0.70660  0.15067  Biso   1.000  C
  C239     1.0000 0.76096  0.20660  0.34933  Biso   1.000  C
  C240     1.0000 0.23904  0.20660  0.15067  Biso   1.000  C
  C241     1.0000 0.92540  0.37200  0.79203  Biso   1.000  C
  C242     1.0000 0.07460  0.37200  0.70797  Biso   1.000  C
  C243     1.0000 0.42540  0.87200  0.79203  Biso   1.000  C
  C244     1.0000 0.57460  0.87200  0.70797  Biso   1.000  C
  C245     1.0000 0.07460  0.62800  0.20797  Biso   1.000  C
  C246     1.0000 0.92540  0.62800  0.29203  Biso   1.000  C
  C247     1.0000 0.57460  0.12800  0.20797  Biso   1.000  C
  C248     1.0000 0.42540  0.12800  0.29203  Biso   1.000  C
  C249     1.0000 0.90395  0.43900  0.82286  Biso   1.000  C
  C250     1.0000 0.09605  0.43900  0.67714  Biso   1.000  C
  C251     1.0000 0.40395  0.93900  0.82286  Biso   1.000  C
  C252     1.0000 0.59605  0.93900  0.67714  Biso   1.000  C
  C253     1.0000 0.09605  0.56100  0.17714  Biso   1.000  C
  C254     1.0000 0.90395  0.56100  0.32286  Biso   1.000  C
  C255     1.0000 0.59605  0.06100  0.17714  Biso   1.000  C
  C256     1.0000 0.40395  0.06100  0.32286  Biso   1.000  C
  H121     1.0000 0.86530  0.44790  0.81470  Biso   1.000  H
  H122     1.0000 0.13470  0.44790  0.68530  Biso   1.000  H
  H123     1.0000 0.36530  0.94790  0.81470  Biso   1.000  H
  H124     1.0000 0.63470  0.94790  0.68530  Biso   1.000  H
  H125     1.0000 0.13470  0.55210  0.18530  Biso   1.000  H
  H126     1.0000 0.86530  0.55210  0.31470  Biso   1.000  H
  H127     1.0000 0.63470  0.05210  0.18530  Biso   1.000  H
  H128     1.0000 0.36530  0.05210  0.31470  Biso   1.000  H
  C257     1.0000 0.94083  0.49170  0.86552  Biso   1.000  C
  C258     1.0000 0.05917  0.49170  0.63448  Biso   1.000  C
  C259     1.0000 0.44083  0.99170  0.86552  Biso   1.000  C
  C260     1.0000 0.55917  0.99170  0.63448  Biso   1.000  C
  C261     1.0000 0.05917  0.50830  0.13448  Biso   1.000  C
  C262     1.0000 0.94083  0.50830  0.36552  Biso   1.000  C
  C263     1.0000 0.55917  0.00830  0.13448  Biso   1.000  C
  C264     1.0000 0.44083  0.00830  0.36552  Biso   1.000  C
  C265     1.0000 0.99847  0.47440  0.87789  Biso   1.000  C
  C266     1.0000 0.00153  0.47440  0.62211  Biso   1.000  C
  C267     1.0000 0.49847  0.97440  0.87789  Biso   1.000  C
  C268     1.0000 0.50153  0.97440  0.62211  Biso   1.000  C
  C269     1.0000 0.00153  0.52560  0.12211  Biso   1.000  C
  C270     1.0000 0.99847  0.52560  0.37789  Biso   1.000  C
  C271     1.0000 0.50153  0.02560  0.12211  Biso   1.000  C
  C272     1.0000 0.49847  0.02560  0.37789  Biso   1.000  C
  H129     1.0000 0.02410  0.50810  0.90680  Biso   1.000  H
  H130     1.0000 0.97590  0.50810  0.59320  Biso   1.000  H
  H131     1.0000 0.52410  0.00810  0.90680  Biso   1.000  H
  H132     1.0000 0.47590  0.00810  0.59320  Biso   1.000  H
  H133     1.0000 0.97590  0.49190  0.09320  Biso   1.000  H
  H134     1.0000 0.02410  0.49190  0.40680  Biso   1.000  H
  H135     1.0000 0.47590  0.99190  0.09320  Biso   1.000  H
  H136     1.0000 0.52410  0.99190  0.40680  Biso   1.000  H
  C273     1.0000 0.01662  0.40570  0.84594  Biso   1.000  C
  C274     1.0000 0.98338  0.40570  0.65406  Biso   1.000  C
  C275     1.0000 0.51662  0.90570  0.84594  Biso   1.000  C
  C276     1.0000 0.48338  0.90570  0.65406  Biso   1.000  C
  C277     1.0000 0.98338  0.59430  0.15406  Biso   1.000  C
  C278     1.0000 0.01662  0.59430  0.34594  Biso   1.000  C
  C279     1.0000 0.48338  0.09430  0.15406  Biso   1.000  C
  C280     1.0000 0.51662  0.09430  0.34594  Biso   1.000  C
  H137     1.0000 0.05510  0.39410  0.85410  Biso   1.000  H
  H138     1.0000 0.94490  0.39410  0.64590  Biso   1.000  H
  H139     1.0000 0.55510  0.89410  0.85410  Biso   1.000  H
  H140     1.0000 0.44490  0.89410  0.64590  Biso   1.000  H
  H141     1.0000 0.94490  0.60590  0.14590  Biso   1.000  H
  H142     1.0000 0.05510  0.60590  0.35410  Biso   1.000  H
  H143     1.0000 0.44490  0.10590  0.14590  Biso   1.000  H
  H144     1.0000 0.55510  0.10590  0.35410  Biso   1.000  H
  C281     1.0000 0.91806  0.56520  0.89838  Biso   1.000  C
  C282     1.0000 0.08194  0.56520  0.60162  Biso   1.000  C
  C283     1.0000 0.41806  0.06520  0.89838  Biso   1.000  C
  C284     1.0000 0.58194  0.06520  0.60162  Biso   1.000  C
  C285     1.0000 0.08194  0.43480  0.10162  Biso   1.000  C
  C286     1.0000 0.91806  0.43480  0.39838  Biso   1.000  C
  C287     1.0000 0.58194  0.93480  0.10162  Biso   1.000  C
  C288     1.0000 0.41806  0.93480  0.39838  Biso   1.000  C
  N1       1.0000 0.34407  0.22940  0.39496  Biso   1.000  N
  N2       1.0000 0.65593  0.22940  0.10504  Biso   1.000  N
  N3       1.0000 0.84407  0.72940  0.39496  Biso   1.000  N
  N4       1.0000 0.15593  0.72940  0.10504  Biso   1.000  N
  N5       1.0000 0.65593  0.77060  0.60504  Biso   1.000  N
  N6       1.0000 0.34407  0.77060  0.89496  Biso   1.000  N
  N7       1.0000 0.15593  0.27060  0.60504  Biso   1.000  N
  N8       1.0000 0.84407  0.27060  0.89496  Biso   1.000  N
  N9       1.0000 0.26620  0.30290  0.30990  Biso   1.000  N
  N10      1.0000 0.73380  0.30290  0.19010  Biso   1.000  N
  N11      1.0000 0.76620  0.80290  0.30990  Biso   1.000  N
  N12      1.0000 0.23380  0.80290  0.19010  Biso   1.000  N
  N13      1.0000 0.73380  0.69710  0.69010  Biso   1.000  N
  N14      1.0000 0.26620  0.69710  0.80990  Biso   1.000  N
  N15      1.0000 0.23380  0.19710  0.69010  Biso   1.000  N
  N16      1.0000 0.76620  0.19710  0.80990  Biso   1.000  N
  N17      1.0000 0.72250  0.62840  0.41408  Biso   1.000  N
  N18      1.0000 0.27750  0.62840  0.08592  Biso   1.000  N
  N19      1.0000 0.22250  0.12840  0.41408  Biso   1.000  N
  N20      1.0000 0.77750  0.12840  0.08592  Biso   1.000  N
  N21      1.0000 0.27750  0.37160  0.58592  Biso   1.000  N
  N22      1.0000 0.72250  0.37160  0.91408  Biso   1.000  N
  N23      1.0000 0.77750  0.87160  0.58592  Biso   1.000  N
  N24      1.0000 0.22250  0.87160  0.91408  Biso   1.000  N
  N25      1.0000 0.72608  0.83580  0.39879  Biso   1.000  N
  N26      1.0000 0.27392  0.83580  0.10121  Biso   1.000  N
  N27      1.0000 0.22608  0.33580  0.39879  Biso   1.000  N
  N28      1.0000 0.77392  0.33580  0.10121  Biso   1.000  N
  N29      1.0000 0.27392  0.16420  0.60121  Biso   1.000  N
  N30      1.0000 0.72608  0.16420  0.89879  Biso   1.000  N
  N31      1.0000 0.77392  0.66420  0.60121  Biso   1.000  N
  N32      1.0000 0.22608  0.66420  0.89879  Biso   1.000  N
  N33      1.0000 0.91765  0.25660  0.71872  Biso   1.000  N
  N34      1.0000 0.08235  0.25660  0.78128  Biso   1.000  N
  N35      1.0000 0.41765  0.75660  0.71872  Biso   1.000  N
  N36      1.0000 0.58235  0.75660  0.78128  Biso   1.000  N
  N37      1.0000 0.08235  0.74340  0.28128  Biso   1.000  N
  N38      1.0000 0.91765  0.74340  0.21872  Biso   1.000  N
  N39      1.0000 0.58235  0.24340  0.28128  Biso   1.000  N
  N40      1.0000 0.41765  0.24340  0.21872  Biso   1.000  N
  N41      1.0000 0.98132  0.35530  0.80390  Biso   1.000  N
  N42      1.0000 0.01868  0.35530  0.69610  Biso   1.000  N
  N43      1.0000 0.48132  0.85530  0.80390  Biso   1.000  N
  N44      1.0000 0.51868  0.85530  0.69610  Biso   1.000  N
  N45      1.0000 0.01868  0.64470  0.19610  Biso   1.000  N
  N46      1.0000 0.98132  0.64470  0.30390  Biso   1.000  N
  N47      1.0000 0.51868  0.14470  0.19610  Biso   1.000  N
  N48      1.0000 0.48132  0.14470  0.30390  Biso   1.000  N
  O1       1.0000 0.24459  0.58180  0.17569  Biso   1.000  O
  O2       1.0000 0.75541  0.58180  0.32431  Biso   1.000  O
  O3       1.0000 0.74459  0.08180  0.17569  Biso   1.000  O
  O4       1.0000 0.25541  0.08180  0.32431  Biso   1.000  O
  O5       1.0000 0.75541  0.41820  0.82431  Biso   1.000  O
  O6       1.0000 0.24459  0.41820  0.67569  Biso   1.000  O
  O7       1.0000 0.25541  0.91820  0.82431  Biso   1.000  O
  O8       1.0000 0.74459  0.91820  0.67569  Biso   1.000  O
  O9       1.0000 0.33738  0.59200  0.21745  Biso   1.000  O
  O10      1.0000 0.66262  0.59200  0.28255  Biso   1.000  O
  O11      1.0000 0.83738  0.09200  0.21745  Biso   1.000  O
  O12      1.0000 0.16262  0.09200  0.28255  Biso   1.000  O
  O13      1.0000 0.66262  0.40800  0.78255  Biso   1.000  O
  O14      1.0000 0.33738  0.40800  0.71745  Biso   1.000  O
  O15      1.0000 0.16262  0.90800  0.78255  Biso   1.000  O
  O16      1.0000 0.83738  0.90800  0.71745  Biso   1.000  O
  O17      1.0000 0.53546  0.36680  0.40672  Biso   1.000  O
  O18      1.0000 0.46454  0.36680  0.09328  Biso   1.000  O
  O19      1.0000 0.03546  0.86680  0.40672  Biso   1.000  O
  O20      1.0000 0.96454  0.86680  0.09328  Biso   1.000  O
  O21      1.0000 0.46454  0.63320  0.59328  Biso   1.000  O
  O22      1.0000 0.53546  0.63320  0.90672  Biso   1.000  O
  O23      1.0000 0.96454  0.13320  0.59328  Biso   1.000  O
  O24      1.0000 0.03546  0.13320  0.90672  Biso   1.000  O
  O25      1.0000 0.55245  0.24950  0.47227  Biso   1.000  O
  O26      1.0000 0.44755  0.24950  0.02773  Biso   1.000  O
  O27      1.0000 0.05245  0.74950  0.47227  Biso   1.000  O
  O28      1.0000 0.94755  0.74950  0.02773  Biso   1.000  O
  O29      1.0000 0.44755  0.75050  0.52773  Biso   1.000  O
  O30      1.0000 0.55245  0.75050  0.97227  Biso   1.000  O
  O31      1.0000 0.94755  0.25050  0.52773  Biso   1.000  O
  O32      1.0000 0.05245  0.25050  0.97227  Biso   1.000  O
  O33      1.0000 0.67953  0.16500  0.48519  Biso   1.000  O
  O34      1.0000 0.32047  0.16500  0.01481  Biso   1.000  O
  O35      1.0000 0.17953  0.66500  0.48519  Biso   1.000  O
  O36      1.0000 0.82047  0.66500  0.01481  Biso   1.000  O
  O37      1.0000 0.32047  0.83500  0.51481  Biso   1.000  O
  O38      1.0000 0.67953  0.83500  0.98519  Biso   1.000  O
  O39      1.0000 0.82047  0.33500  0.51481  Biso   1.000  O
  O40      1.0000 0.17953  0.33500  0.98519  Biso   1.000  O
  O41      1.0000 0.62382  0.04050  0.49992  Biso   1.000  O
  O42      1.0000 0.37618  0.04050  0.00008  Biso   1.000  O
  O43      1.0000 0.12382  0.54050  0.49992  Biso   1.000  O
  O44      1.0000 0.87618  0.54050  0.00008  Biso   1.000  O
  O45      1.0000 0.37618  0.95950  0.50008  Biso   1.000  O
  O46      1.0000 0.62382  0.95950  0.99992  Biso   1.000  O
  O47      1.0000 0.87618  0.45950  0.50008  Biso   1.000  O
  O48      1.0000 0.12382  0.45950  0.99992  Biso   1.000  O
  O49      1.0000 0.59452  0.53300  0.51476  Biso   1.000  O
  O50      1.0000 0.40548  0.53300  0.98524  Biso   1.000  O
  O51      1.0000 0.09452  0.03300  0.51476  Biso   1.000  O
  O52      1.0000 0.90548  0.03300  0.98524  Biso   1.000  O
  O53      1.0000 0.40548  0.46700  0.48524  Biso   1.000  O
  O54      1.0000 0.59452  0.46700  0.01476  Biso   1.000  O
  O55      1.0000 0.90548  0.96700  0.48524  Biso   1.000  O
  O56      1.0000 0.09452  0.96700  0.01476  Biso   1.000  O
  O57      1.0000 0.64986  0.38770  0.52669  Biso   1.000  O
  O58      1.0000 0.35014  0.38770  0.97331  Biso   1.000  O
  O59      1.0000 0.14986  0.88770  0.52669  Biso   1.000  O
  O60      1.0000 0.85014  0.88770  0.97331  Biso   1.000  O
  O61      1.0000 0.35014  0.61230  0.47331  Biso   1.000  O
  O62      1.0000 0.64986  0.61230  0.02669  Biso   1.000  O
  O63      1.0000 0.85014  0.11230  0.47331  Biso   1.000  O
  O64      1.0000 0.14986  0.11230  0.02669  Biso   1.000  O
  O65      1.0000 0.60753  0.31440  0.61817  Biso   1.000  O
  O66      1.0000 0.39247  0.31440  0.88183  Biso   1.000  O
  O67      1.0000 0.10753  0.81440  0.61817  Biso   1.000  O
  O68      1.0000 0.89247  0.81440  0.88183  Biso   1.000  O
  O69      1.0000 0.39247  0.68560  0.38183  Biso   1.000  O
  O70      1.0000 0.60753  0.68560  0.11817  Biso   1.000  O
  O71      1.0000 0.89247  0.18560  0.38183  Biso   1.000  O
  O72      1.0000 0.10753  0.18560  0.11817  Biso   1.000  O
  O73      1.0000 0.71664  0.23830  0.60947  Biso   1.000  O
  O74      1.0000 0.28336  0.23830  0.89053  Biso   1.000  O
  O75      1.0000 0.21664  0.73830  0.60947  Biso   1.000  O
  O76      1.0000 0.78336  0.73830  0.89053  Biso   1.000  O
  O77      1.0000 0.28336  0.76170  0.39053  Biso   1.000  O
  O78      1.0000 0.71664  0.76170  0.10947  Biso   1.000  O
  O79      1.0000 0.78336  0.26170  0.39053  Biso   1.000  O
  O80      1.0000 0.21664  0.26170  0.10947  Biso   1.000  O
  O81      1.0000 0.71477  0.35990  0.67061  Biso   1.000  O
  O82      1.0000 0.28523  0.35990  0.82939  Biso   1.000  O
  O83      1.0000 0.21477  0.85990  0.67061  Biso   1.000  O
  O84      1.0000 0.78523  0.85990  0.82939  Biso   1.000  O
  O85      1.0000 0.28523  0.64010  0.32939  Biso   1.000  O
  O86      1.0000 0.71477  0.64010  0.17061  Biso   1.000  O
  O87      1.0000 0.78523  0.14010  0.32939  Biso   1.000  O
  O88      1.0000 0.21477  0.14010  0.17061  Biso   1.000  O
  O89      1.0000 0.95259  0.61820  0.93566  Biso   1.000  O
  O90      1.0000 0.04741  0.61820  0.56434  Biso   1.000  O
  O91      1.0000 0.45259  0.11820  0.93566  Biso   1.000  O
  O92      1.0000 0.54741  0.11820  0.56434  Biso   1.000  O
  O93      1.0000 0.04741  0.38180  0.06434  Biso   1.000  O
  O94      1.0000 0.95259  0.38180  0.43566  Biso   1.000  O
  O95      1.0000 0.54741  0.88180  0.06434  Biso   1.000  O
  O96      1.0000 0.45259  0.88180  0.43566  Biso   1.000  O
  O97      1.0000 0.86592  0.57500  0.88666  Biso   1.000  O
  O98      1.0000 0.13408  0.57500  0.61334  Biso   1.000  O
  O99      1.0000 0.36592  0.07500  0.88666  Biso   1.000  O
  O100     1.0000 0.63408  0.07500  0.61334  Biso   1.000  O
  O101     1.0000 0.13408  0.42500  0.11334  Biso   1.000  O
  O102     1.0000 0.86592  0.42500  0.38666  Biso   1.000  O
  O103     1.0000 0.63408  0.92500  0.11334  Biso   1.000  O
  O104     1.0000 0.36592  0.92500  0.38666  Biso   1.000  O
  O105     1.0000 0.00820  0.10440  0.70030  Biso   1.000  O
  O106     1.0000 0.99180  0.10440  0.79970  Biso   1.000  O
  O107     1.0000 0.50820  0.60440  0.70030  Biso   1.000  O
  O108     1.0000 0.49180  0.60440  0.79970  Biso   1.000  O
  O109     1.0000 0.99180  0.89560  0.29970  Biso   1.000  O
  O110     1.0000 0.00820  0.89560  0.20030  Biso   1.000  O
  O111     1.0000 0.49180  0.39560  0.29970  Biso   1.000  O
  O112     1.0000 0.50820  0.39560  0.20030  Biso   1.000  O
  O113     1.0000 0.00000  0.09070  0.75000  Biso   1.000  O
  O114     1.0000 0.50000  0.59070  0.75000  Biso   1.000  O
  O115     1.0000 0.00000  0.90930  0.25000  Biso   1.000  O
  O116     1.0000 0.50000  0.40930  0.25000  Biso   1.000  O
  O117     1.0000 0.08500  0.26390  0.20760  Biso   1.000  O
  O118     1.0000 0.91500  0.26390  0.29240  Biso   1.000  O
  O119     1.0000 0.58500  0.76390  0.20760  Biso   1.000  O
  O120     1.0000 0.41500  0.76390  0.29240  Biso   1.000  O
  O121     1.0000 0.91500  0.73610  0.79240  Biso   1.000  O
  O122     1.0000 0.08500  0.73610  0.70760  Biso   1.000  O
  O123     1.0000 0.41500  0.23610  0.79240  Biso   1.000  O
  O124     1.0000 0.58500  0.23610  0.70760  Biso   1.000  O
  O125     1.0000 0.96940  0.25120  0.17160  Biso   1.000  O
  O126     1.0000 0.03060  0.25120  0.32840  Biso   1.000  O
  O127     1.0000 0.46940  0.75120  0.17160  Biso   1.000  O
  O128     1.0000 0.53060  0.75120  0.32840  Biso   1.000  O
  O129     1.0000 0.03060  0.74880  0.82840  Biso   1.000  O
  O130     1.0000 0.96940  0.74880  0.67160  Biso   1.000  O
  O131     1.0000 0.53060  0.24880  0.82840  Biso   1.000  O
  O132     1.0000 0.46940  0.24880  0.67160  Biso   1.000  O
  O133     1.0000 0.96007  0.25060  0.06783  Biso   1.000  O
  O134     1.0000 0.03993  0.25060  0.43217  Biso   1.000  O
  O135     1.0000 0.46007  0.75060  0.06783  Biso   1.000  O
  O136     1.0000 0.53993  0.75060  0.43217  Biso   1.000  O
  O137     1.0000 0.03993  0.74940  0.93217  Biso   1.000  O
  O138     1.0000 0.96007  0.74940  0.56783  Biso   1.000  O
  O139     1.0000 0.53993  0.24940  0.93217  Biso   1.000  O
  O140     1.0000 0.46007  0.24940  0.56783  Biso   1.000  O
  O141     1.0000 0.43410  0.55360  0.19100  Biso   1.000  O
  O142     1.0000 0.56590  0.55360  0.30900  Biso   1.000  O
  O143     1.0000 0.93410  0.05360  0.19100  Biso   1.000  O
  O144     1.0000 0.06590  0.05360  0.30900  Biso   1.000  O
  O145     1.0000 0.56590  0.44640  0.80900  Biso   1.000  O
  O146     1.0000 0.43410  0.44640  0.69100  Biso   1.000  O
  O147     1.0000 0.06590  0.94640  0.80900  Biso   1.000  O
  O148     1.0000 0.93410  0.94640  0.69100  Biso   1.000  O
  O149     1.0000 0.02615  0.05470  0.06436  Biso   1.000  O
  O150     1.0000 0.97385  0.05470  0.43564  Biso   1.000  O
  O151     1.0000 0.52615  0.55470  0.06436  Biso   1.000  O
  O152     1.0000 0.47385  0.55470  0.43564  Biso   1.000  O
  O153     1.0000 0.97385  0.94530  0.93564  Biso   1.000  O
  O154     1.0000 0.02615  0.94530  0.56436  Biso   1.000  O
  O155     1.0000 0.47385  0.44530  0.93564  Biso   1.000  O
  O156     1.0000 0.52615  0.44530  0.56436  Biso   1.000  O
  O157     1.0000 0.09170  0.42480  0.29110  Biso   1.000  O
  O158     1.0000 0.90830  0.42480  0.20890  Biso   1.000  O
  O159     1.0000 0.59170  0.92480  0.29110  Biso   1.000  O
  O160     1.0000 0.40830  0.92480  0.20890  Biso   1.000  O
  O161     1.0000 0.90830  0.57520  0.70890  Biso   1.000  O
  O162     1.0000 0.09170  0.57520  0.79110  Biso   1.000  O
  O163     1.0000 0.40830  0.07520  0.70890  Biso   1.000  O
  O164     1.0000 0.59170  0.07520  0.79110  Biso   1.000  O
  O165     1.0000 0.11320  0.25960  0.31360  Biso   1.000  O
  O166     1.0000 0.88680  0.25960  0.18640  Biso   1.000  O
  O167     1.0000 0.61320  0.75960  0.31360  Biso   1.000  O
  O168     1.0000 0.38680  0.75960  0.18640  Biso   1.000  O
  O169     1.0000 0.88680  0.74040  0.68640  Biso   1.000  O
  O170     1.0000 0.11320  0.74040  0.81360  Biso   1.000  O
  O171     1.0000 0.38680  0.24040  0.68640  Biso   1.000  O
  O172     1.0000 0.61320  0.24040  0.81360  Biso   1.000  O
  O173     1.0000 0.05230  0.96440  0.70680  Biso   1.000  O
  O174     1.0000 0.94770  0.96440  0.79320  Biso   1.000  O
  O175     1.0000 0.55230  0.46440  0.70680  Biso   1.000  O
  O176     1.0000 0.44770  0.46440  0.79320  Biso   1.000  O
  O177     1.0000 0.94770  0.03560  0.29320  Biso   1.000  O
  O178     1.0000 0.05230  0.03560  0.20680  Biso   1.000  O
  O179     1.0000 0.44770  0.53560  0.29320  Biso   1.000  O
  O180     1.0000 0.55230  0.53560  0.20680  Biso   1.000  O
