data_image0
_cell_length_a       24.814
_cell_length_b       12.254
_cell_length_c       26.883
_cell_angle_alpha    90
_cell_angle_beta     109.3
_cell_angle_gamma    90

_symmetry_space_group_name_H-M    "P 1"
_symmetry_int_tables_number       1

loop_
  _symmetry_equiv_pos_as_xyz
  'x, y, z'

loop_
  _atom_site_label
  _atom_site_occupancy
  _atom_site_fract_x
  _atom_site_fract_y
  _atom_site_fract_z
  _atom_site_thermal_displace_type
  _atom_site_B_iso_or_equiv
  _atom_site_type_symbol
  Yb1      1.0000 0.83092  0.46668  0.45391  Biso   1.000  Yb
  Yb2      1.0000 0.16908  0.46668  0.04609  Biso   1.000  Yb
  Yb3      1.0000 0.33092  0.96668  0.45391  Biso   1.000  Yb
  Yb4      1.0000 0.66908  0.96668  0.04609  Biso   1.000  Yb
  Yb5      1.0000 0.16908  0.53332  0.54609  Biso   1.000  Yb
  Yb6      1.0000 0.83092  0.53332  0.95391  Biso   1.000  Yb
  Yb7      1.0000 0.66908  0.03332  0.54609  Biso   1.000  Yb
  Yb8      1.0000 0.33092  0.03332  0.95391  Biso   1.000  Yb
  Cu1      1.0000 0.00000  0.50757  0.25000  Biso   1.000  Cu
  Cu2      1.0000 0.50000  0.00757  0.25000  Biso   1.000  Cu
  Cu3      1.0000 0.00000  0.49243  0.75000  Biso   1.000  Cu
  Cu4      1.0000 0.50000  0.99243  0.75000  Biso   1.000  Cu
  Cu5      1.0000 0.63665  0.46266  0.63416  Biso   1.000  Cu
  Cu6      1.0000 0.36335  0.46266  0.86584  Biso   1.000  Cu
  Cu7      1.0000 0.13665  0.96266  0.63416  Biso   1.000  Cu
  Cu8      1.0000 0.86335  0.96266  0.86584  Biso   1.000  Cu
  Cu9      1.0000 0.36335  0.53734  0.36584  Biso   1.000  Cu
  Cu10     1.0000 0.63665  0.53734  0.13416  Biso   1.000  Cu
  Cu11     1.0000 0.86335  0.03734  0.36584  Biso   1.000  Cu
  Cu12     1.0000 0.13665  0.03734  0.13416  Biso   1.000  Cu
  C1       1.0000 0.91870  0.65950  0.15314  Biso   1.000  C
  C2       1.0000 0.08130  0.65950  0.34686  Biso   1.000  C
  C3       1.0000 0.41870  0.15950  0.15314  Biso   1.000  C
  C4       1.0000 0.58130  0.15950  0.34686  Biso   1.000  C
  C5       1.0000 0.08130  0.34050  0.84686  Biso   1.000  C
  C6       1.0000 0.91870  0.34050  0.65314  Biso   1.000  C
  C7       1.0000 0.58130  0.84050  0.84686  Biso   1.000  C
  C8       1.0000 0.41870  0.84050  0.65314  Biso   1.000  C
  H1       1.0000 0.94800  0.65220  0.13900  Biso   1.000  H
  H2       1.0000 0.05200  0.65220  0.36100  Biso   1.000  H
  H3       1.0000 0.44800  0.15220  0.13900  Biso   1.000  H
  H4       1.0000 0.55200  0.15220  0.36100  Biso   1.000  H
  H5       1.0000 0.05200  0.34780  0.86100  Biso   1.000  H
  H6       1.0000 0.94800  0.34780  0.63900  Biso   1.000  H
  H7       1.0000 0.55200  0.84780  0.86100  Biso   1.000  H
  H8       1.0000 0.44800  0.84780  0.63900  Biso   1.000  H
  C9       1.0000 0.86940  0.72770  0.12164  Biso   1.000  C
  C10      1.0000 0.13060  0.72770  0.37836  Biso   1.000  C
  C11      1.0000 0.36940  0.22770  0.12164  Biso   1.000  C
  C12      1.0000 0.63060  0.22770  0.37836  Biso   1.000  C
  C13      1.0000 0.13060  0.27230  0.87836  Biso   1.000  C
  C14      1.0000 0.86940  0.27230  0.62164  Biso   1.000  C
  C15      1.0000 0.63060  0.77230  0.87836  Biso   1.000  C
  C16      1.0000 0.36940  0.77230  0.62164  Biso   1.000  C
  H9       1.0000 0.87230  0.76090  0.09150  Biso   1.000  H
  H10      1.0000 0.12770  0.76090  0.40850  Biso   1.000  H
  H11      1.0000 0.37230  0.26090  0.09150  Biso   1.000  H
  H12      1.0000 0.62770  0.26090  0.40850  Biso   1.000  H
  H13      1.0000 0.12770  0.23910  0.90850  Biso   1.000  H
  H14      1.0000 0.87230  0.23910  0.59150  Biso   1.000  H
  H15      1.0000 0.62770  0.73910  0.90850  Biso   1.000  H
  H16      1.0000 0.37230  0.73910  0.59150  Biso   1.000  H
  C17      1.0000 0.82261  0.74490  0.13266  Biso   1.000  C
  C18      1.0000 0.17739  0.74490  0.36734  Biso   1.000  C
  C19      1.0000 0.32261  0.24490  0.13266  Biso   1.000  C
  C20      1.0000 0.67739  0.24490  0.36734  Biso   1.000  C
  C21      1.0000 0.17739  0.25510  0.86734  Biso   1.000  C
  C22      1.0000 0.82261  0.25510  0.63266  Biso   1.000  C
  C23      1.0000 0.67739  0.75510  0.86734  Biso   1.000  C
  C24      1.0000 0.32261  0.75510  0.63266  Biso   1.000  C
  C25      1.0000 0.82880  0.69050  0.17640  Biso   1.000  C
  C26      1.0000 0.17120  0.69050  0.32360  Biso   1.000  C
  C27      1.0000 0.32880  0.19050  0.17640  Biso   1.000  C
  C28      1.0000 0.67120  0.19050  0.32360  Biso   1.000  C
  C29      1.0000 0.17120  0.30950  0.82360  Biso   1.000  C
  C30      1.0000 0.82880  0.30950  0.67640  Biso   1.000  C
  C31      1.0000 0.67120  0.80950  0.82360  Biso   1.000  C
  C32      1.0000 0.32880  0.80950  0.67640  Biso   1.000  C
  H17      1.0000 0.79840  0.69130  0.18930  Biso   1.000  H
  H18      1.0000 0.20160  0.69130  0.31070  Biso   1.000  H
  H19      1.0000 0.29840  0.19130  0.18930  Biso   1.000  H
  H20      1.0000 0.70160  0.19130  0.31070  Biso   1.000  H
  H21      1.0000 0.20160  0.30870  0.81070  Biso   1.000  H
  H22      1.0000 0.79840  0.30870  0.68930  Biso   1.000  H
  H23      1.0000 0.70160  0.80870  0.81070  Biso   1.000  H
  H24      1.0000 0.29840  0.80870  0.68930  Biso   1.000  H
  C33      1.0000 0.88103  0.62710  0.20736  Biso   1.000  C
  C34      1.0000 0.11897  0.62710  0.29264  Biso   1.000  C
  C35      1.0000 0.38103  0.12710  0.20736  Biso   1.000  C
  C36      1.0000 0.61897  0.12710  0.29264  Biso   1.000  C
  C37      1.0000 0.11897  0.37290  0.79264  Biso   1.000  C
  C38      1.0000 0.88103  0.37290  0.70736  Biso   1.000  C
  C39      1.0000 0.61897  0.87290  0.79264  Biso   1.000  C
  C40      1.0000 0.38103  0.87290  0.70736  Biso   1.000  C
  C41      1.0000 0.89395  0.57090  0.25597  Biso   1.000  C
  C42      1.0000 0.10605  0.57090  0.24403  Biso   1.000  C
  C43      1.0000 0.39395  0.07090  0.25597  Biso   1.000  C
  C44      1.0000 0.60605  0.07090  0.24403  Biso   1.000  C
  C45      1.0000 0.10605  0.42910  0.74403  Biso   1.000  C
  C46      1.0000 0.89395  0.42910  0.75597  Biso   1.000  C
  C47      1.0000 0.60605  0.92910  0.74403  Biso   1.000  C
  C48      1.0000 0.39395  0.92910  0.75597  Biso   1.000  C
  C49      1.0000 0.85540  0.58170  0.27690  Biso   1.000  C
  C50      1.0000 0.14460  0.58170  0.22310  Biso   1.000  C
  C51      1.0000 0.35540  0.08170  0.27690  Biso   1.000  C
  C52      1.0000 0.64460  0.08170  0.22310  Biso   1.000  C
  C53      1.0000 0.14460  0.41830  0.72310  Biso   1.000  C
  C54      1.0000 0.85540  0.41830  0.77690  Biso   1.000  C
  C55      1.0000 0.64460  0.91830  0.72310  Biso   1.000  C
  C56      1.0000 0.35540  0.91830  0.77690  Biso   1.000  C
  H25      1.0000 0.82090  0.61820  0.26240  Biso   1.000  H
  H26      1.0000 0.17910  0.61820  0.23760  Biso   1.000  H
  H27      1.0000 0.32090  0.11820  0.26240  Biso   1.000  H
  H28      1.0000 0.67910  0.11820  0.23760  Biso   1.000  H
  H29      1.0000 0.17910  0.38180  0.73760  Biso   1.000  H
  H30      1.0000 0.82090  0.38180  0.76240  Biso   1.000  H
  H31      1.0000 0.67910  0.88180  0.73760  Biso   1.000  H
  H32      1.0000 0.32090  0.88180  0.76240  Biso   1.000  H
  C57      1.0000 0.87350  0.53070  0.32432  Biso   1.000  C
  C58      1.0000 0.12650  0.53070  0.17568  Biso   1.000  C
  C59      1.0000 0.37350  0.03070  0.32432  Biso   1.000  C
  C60      1.0000 0.62650  0.03070  0.17568  Biso   1.000  C
  C61      1.0000 0.12650  0.46930  0.67568  Biso   1.000  C
  C62      1.0000 0.87350  0.46930  0.82432  Biso   1.000  C
  C63      1.0000 0.62650  0.96930  0.67568  Biso   1.000  C
  C64      1.0000 0.37350  0.96930  0.82432  Biso   1.000  C
  C65      1.0000 0.92880  0.47140  0.34925  Biso   1.000  C
  C66      1.0000 0.07120  0.47140  0.15075  Biso   1.000  C
  C67      1.0000 0.42880  0.97140  0.34925  Biso   1.000  C
  C68      1.0000 0.57120  0.97140  0.15075  Biso   1.000  C
  C69      1.0000 0.07120  0.52860  0.65075  Biso   1.000  C
  C70      1.0000 0.92880  0.52860  0.84925  Biso   1.000  C
  C71      1.0000 0.57120  0.02860  0.65075  Biso   1.000  C
  C72      1.0000 0.42880  0.02860  0.84925  Biso   1.000  C
  H33      1.0000 0.93610  0.44040  0.38240  Biso   1.000  H
  H34      1.0000 0.06390  0.44040  0.11760  Biso   1.000  H
  H35      1.0000 0.43610  0.94040  0.38240  Biso   1.000  H
  H36      1.0000 0.56390  0.94040  0.11760  Biso   1.000  H
  H37      1.0000 0.06390  0.55960  0.61760  Biso   1.000  H
  H38      1.0000 0.93610  0.55960  0.88240  Biso   1.000  H
  H39      1.0000 0.56390  0.05960  0.61760  Biso   1.000  H
  H40      1.0000 0.43610  0.05960  0.88240  Biso   1.000  H
  C73      1.0000 0.96490  0.46270  0.32680  Biso   1.000  C
  C74      1.0000 0.03510  0.46270  0.17320  Biso   1.000  C
  C75      1.0000 0.46490  0.96270  0.32680  Biso   1.000  C
  C76      1.0000 0.53510  0.96270  0.17320  Biso   1.000  C
  C77      1.0000 0.03510  0.53730  0.67320  Biso   1.000  C
  C78      1.0000 0.96490  0.53730  0.82680  Biso   1.000  C
  C79      1.0000 0.53510  0.03730  0.67320  Biso   1.000  C
  C80      1.0000 0.46490  0.03730  0.82680  Biso   1.000  C
  H41      1.0000 0.99970  0.42650  0.34000  Biso   1.000  H
  H42      1.0000 0.00030  0.42650  0.16000  Biso   1.000  H
  H43      1.0000 0.49970  0.92650  0.34000  Biso   1.000  H
  H44      1.0000 0.50030  0.92650  0.16000  Biso   1.000  H
  H45      1.0000 0.00030  0.57350  0.66000  Biso   1.000  H
  H46      1.0000 0.99970  0.57350  0.84000  Biso   1.000  H
  H47      1.0000 0.50030  0.07350  0.66000  Biso   1.000  H
  H48      1.0000 0.49970  0.07350  0.84000  Biso   1.000  H
  C81      1.0000 0.76830  0.81990  0.10112  Biso   1.000  C
  C82      1.0000 0.23170  0.81990  0.39888  Biso   1.000  C
  C83      1.0000 0.26830  0.31990  0.10112  Biso   1.000  C
  C84      1.0000 0.73170  0.31990  0.39888  Biso   1.000  C
  C85      1.0000 0.23170  0.18010  0.89888  Biso   1.000  C
  C86      1.0000 0.76830  0.18010  0.60112  Biso   1.000  C
  C87      1.0000 0.73170  0.68010  0.89888  Biso   1.000  C
  C88      1.0000 0.26830  0.68010  0.60112  Biso   1.000  C
  C89      1.0000 0.83520  0.54350  0.34987  Biso   1.000  C
  C90      1.0000 0.16480  0.54350  0.15013  Biso   1.000  C
  C91      1.0000 0.33520  0.04350  0.34987  Biso   1.000  C
  C92      1.0000 0.66480  0.04350  0.15013  Biso   1.000  C
  C93      1.0000 0.16480  0.45650  0.65013  Biso   1.000  C
  C94      1.0000 0.83520  0.45650  0.84987  Biso   1.000  C
  C95      1.0000 0.66480  0.95650  0.65013  Biso   1.000  C
  C96      1.0000 0.33520  0.95650  0.84987  Biso   1.000  C
  C97      1.0000 0.69960  0.43060  0.56466  Biso   1.000  C
  C98      1.0000 0.30040  0.43060  0.93534  Biso   1.000  C
  C99      1.0000 0.19960  0.93060  0.56466  Biso   1.000  C
  C100     1.0000 0.80040  0.93060  0.93534  Biso   1.000  C
  C101     1.0000 0.30040  0.56940  0.43534  Biso   1.000  C
  C102     1.0000 0.69960  0.56940  0.06466  Biso   1.000  C
  C103     1.0000 0.80040  0.06940  0.43534  Biso   1.000  C
  C104     1.0000 0.19960  0.06940  0.06466  Biso   1.000  C
  H49      1.0000 0.67090  0.38180  0.54720  Biso   1.000  H
  H50      1.0000 0.32910  0.38180  0.95280  Biso   1.000  H
  H51      1.0000 0.17090  0.88180  0.54720  Biso   1.000  H
  H52      1.0000 0.82910  0.88180  0.95280  Biso   1.000  H
  H53      1.0000 0.32910  0.61820  0.45280  Biso   1.000  H
  H54      1.0000 0.67090  0.61820  0.04720  Biso   1.000  H
  H55      1.0000 0.82910  0.11820  0.45280  Biso   1.000  H
  H56      1.0000 0.17090  0.11820  0.04720  Biso   1.000  H
  C105     1.0000 0.74180  0.45060  0.55001  Biso   1.000  C
  C106     1.0000 0.25820  0.45060  0.94999  Biso   1.000  C
  C107     1.0000 0.24180  0.95060  0.55001  Biso   1.000  C
  C108     1.0000 0.75820  0.95060  0.94999  Biso   1.000  C
  C109     1.0000 0.25820  0.54940  0.44999  Biso   1.000  C
  C110     1.0000 0.74180  0.54940  0.05001  Biso   1.000  C
  C111     1.0000 0.75820  0.04940  0.44999  Biso   1.000  C
  C112     1.0000 0.24180  0.04940  0.05001  Biso   1.000  C
  H57      1.0000 0.74380  0.41540  0.52010  Biso   1.000  H
  H58      1.0000 0.25620  0.41540  0.97990  Biso   1.000  H
  H59      1.0000 0.24380  0.91540  0.52010  Biso   1.000  H
  H60      1.0000 0.75620  0.91540  0.97990  Biso   1.000  H
  H61      1.0000 0.25620  0.58460  0.47990  Biso   1.000  H
  H62      1.0000 0.74380  0.58460  0.02010  Biso   1.000  H
  H63      1.0000 0.75620  0.08460  0.47990  Biso   1.000  H
  H64      1.0000 0.24380  0.08460  0.02010  Biso   1.000  H
  C113     1.0000 0.78910  0.52830  0.57812  Biso   1.000  C
  C114     1.0000 0.21090  0.52830  0.92188  Biso   1.000  C
  C115     1.0000 0.28910  0.02830  0.57812  Biso   1.000  C
  C116     1.0000 0.71090  0.02830  0.92188  Biso   1.000  C
  C117     1.0000 0.21090  0.47170  0.42188  Biso   1.000  C
  C118     1.0000 0.78910  0.47170  0.07812  Biso   1.000  C
  C119     1.0000 0.71090  0.97170  0.42188  Biso   1.000  C
  C120     1.0000 0.28910  0.97170  0.07812  Biso   1.000  C
  C121     1.0000 0.79090  0.58160  0.62004  Biso   1.000  C
  C122     1.0000 0.20910  0.58160  0.87996  Biso   1.000  C
  C123     1.0000 0.29090  0.08160  0.62004  Biso   1.000  C
  C124     1.0000 0.70910  0.08160  0.87996  Biso   1.000  C
  C125     1.0000 0.20910  0.41840  0.37996  Biso   1.000  C
  C126     1.0000 0.79090  0.41840  0.12004  Biso   1.000  C
  C127     1.0000 0.70910  0.91840  0.37996  Biso   1.000  C
  C128     1.0000 0.29090  0.91840  0.12004  Biso   1.000  C
  H65      1.0000 0.81940  0.63000  0.63850  Biso   1.000  H
  H66      1.0000 0.18060  0.63000  0.86150  Biso   1.000  H
  H67      1.0000 0.31940  0.13000  0.63850  Biso   1.000  H
  H68      1.0000 0.68060  0.13000  0.86150  Biso   1.000  H
  H69      1.0000 0.18060  0.37000  0.36150  Biso   1.000  H
  H70      1.0000 0.81940  0.37000  0.13850  Biso   1.000  H
  H71      1.0000 0.68060  0.87000  0.36150  Biso   1.000  H
  H72      1.0000 0.31940  0.87000  0.13850  Biso   1.000  H
  C129     1.0000 0.74530  0.55530  0.63187  Biso   1.000  C
  C130     1.0000 0.25470  0.55530  0.86813  Biso   1.000  C
  C131     1.0000 0.24530  0.05530  0.63187  Biso   1.000  C
  C132     1.0000 0.75470  0.05530  0.86813  Biso   1.000  C
  C133     1.0000 0.25470  0.44470  0.36813  Biso   1.000  C
  C134     1.0000 0.74530  0.44470  0.13187  Biso   1.000  C
  C135     1.0000 0.75470  0.94470  0.36813  Biso   1.000  C
  C136     1.0000 0.24530  0.94470  0.13187  Biso   1.000  C
  C137     1.0000 0.74825  0.60090  0.67875  Biso   1.000  C
  C138     1.0000 0.25175  0.60090  0.82125  Biso   1.000  C
  C139     1.0000 0.24825  0.10090  0.67875  Biso   1.000  C
  C140     1.0000 0.75175  0.10090  0.82125  Biso   1.000  C
  C141     1.0000 0.25175  0.39910  0.32125  Biso   1.000  C
  C142     1.0000 0.74825  0.39910  0.17875  Biso   1.000  C
  C143     1.0000 0.75175  0.89910  0.32125  Biso   1.000  C
  C144     1.0000 0.24825  0.89910  0.17875  Biso   1.000  C
  C145     1.0000 0.79090  0.67850  0.71156  Biso   1.000  C
  C146     1.0000 0.20910  0.67850  0.78844  Biso   1.000  C
  C147     1.0000 0.29090  0.17850  0.71156  Biso   1.000  C
  C148     1.0000 0.70910  0.17850  0.78844  Biso   1.000  C
  C149     1.0000 0.20910  0.32150  0.28844  Biso   1.000  C
  C150     1.0000 0.79090  0.32150  0.21156  Biso   1.000  C
  C151     1.0000 0.70910  0.82150  0.28844  Biso   1.000  C
  C152     1.0000 0.29090  0.82150  0.21156  Biso   1.000  C
  H73      1.0000 0.81840  0.70570  0.69830  Biso   1.000  H
  H74      1.0000 0.18160  0.70570  0.80170  Biso   1.000  H
  H75      1.0000 0.31840  0.20570  0.69830  Biso   1.000  H
  H76      1.0000 0.68160  0.20570  0.80170  Biso   1.000  H
  H77      1.0000 0.18160  0.29430  0.30170  Biso   1.000  H
  H78      1.0000 0.81840  0.29430  0.19830  Biso   1.000  H
  H79      1.0000 0.68160  0.79430  0.30170  Biso   1.000  H
  H80      1.0000 0.31840  0.79430  0.19830  Biso   1.000  H
  C153     1.0000 0.79204  0.70960  0.75638  Biso   1.000  C
  C154     1.0000 0.20796  0.70960  0.74362  Biso   1.000  C
  C155     1.0000 0.29204  0.20960  0.75638  Biso   1.000  C
  C156     1.0000 0.70796  0.20960  0.74362  Biso   1.000  C
  C157     1.0000 0.20796  0.29040  0.24362  Biso   1.000  C
  C158     1.0000 0.79204  0.29040  0.25638  Biso   1.000  C
  C159     1.0000 0.70796  0.79040  0.24362  Biso   1.000  C
  C160     1.0000 0.29204  0.79040  0.25638  Biso   1.000  C
  C161     1.0000 0.75199  0.65710  0.76884  Biso   1.000  C
  C162     1.0000 0.24801  0.65710  0.73116  Biso   1.000  C
  C163     1.0000 0.25199  0.15710  0.76884  Biso   1.000  C
  C164     1.0000 0.74801  0.15710  0.73116  Biso   1.000  C
  C165     1.0000 0.24801  0.34290  0.23116  Biso   1.000  C
  C166     1.0000 0.75199  0.34290  0.26884  Biso   1.000  C
  C167     1.0000 0.74801  0.84290  0.23116  Biso   1.000  C
  C168     1.0000 0.25199  0.84290  0.26884  Biso   1.000  C
  H81      1.0000 0.75080  0.66730  0.80270  Biso   1.000  H
  H82      1.0000 0.24920  0.66730  0.69730  Biso   1.000  H
  H83      1.0000 0.25080  0.16730  0.80270  Biso   1.000  H
  H84      1.0000 0.74920  0.16730  0.69730  Biso   1.000  H
  H85      1.0000 0.24920  0.33270  0.19730  Biso   1.000  H
  H86      1.0000 0.75080  0.33270  0.30270  Biso   1.000  H
  H87      1.0000 0.74920  0.83270  0.19730  Biso   1.000  H
  H88      1.0000 0.25080  0.83270  0.30270  Biso   1.000  H
  C169     1.0000 0.70860  0.58300  0.73368  Biso   1.000  C
  C170     1.0000 0.29140  0.58300  0.76632  Biso   1.000  C
  C171     1.0000 0.20860  0.08300  0.73368  Biso   1.000  C
  C172     1.0000 0.79140  0.08300  0.76632  Biso   1.000  C
  C173     1.0000 0.29140  0.41700  0.26632  Biso   1.000  C
  C174     1.0000 0.70860  0.41700  0.23368  Biso   1.000  C
  C175     1.0000 0.79140  0.91700  0.26632  Biso   1.000  C
  C176     1.0000 0.20860  0.91700  0.23368  Biso   1.000  C
  H89      1.0000 0.68150  0.55370  0.74690  Biso   1.000  H
  H90      1.0000 0.31850  0.55370  0.75310  Biso   1.000  H
  H91      1.0000 0.18150  0.05370  0.74690  Biso   1.000  H
  H92      1.0000 0.81850  0.05370  0.75310  Biso   1.000  H
  H93      1.0000 0.31850  0.44630  0.25310  Biso   1.000  H
  H94      1.0000 0.68150  0.44630  0.24690  Biso   1.000  H
  H95      1.0000 0.81850  0.94630  0.25310  Biso   1.000  H
  H96      1.0000 0.18150  0.94630  0.24690  Biso   1.000  H
  C177     1.0000 0.83870  0.55100  0.56417  Biso   1.000  C
  C178     1.0000 0.16130  0.55100  0.93583  Biso   1.000  C
  C179     1.0000 0.33870  0.05100  0.56417  Biso   1.000  C
  C180     1.0000 0.66130  0.05100  0.93583  Biso   1.000  C
  C181     1.0000 0.16130  0.44900  0.43583  Biso   1.000  C
  C182     1.0000 0.83870  0.44900  0.06417  Biso   1.000  C
  C183     1.0000 0.66130  0.94900  0.43583  Biso   1.000  C
  C184     1.0000 0.33870  0.94900  0.06417  Biso   1.000  C
  C185     1.0000 0.83270  0.80160  0.79003  Biso   1.000  C
  C186     1.0000 0.16730  0.80160  0.70997  Biso   1.000  C
  C187     1.0000 0.33270  0.30160  0.79003  Biso   1.000  C
  C188     1.0000 0.66730  0.30160  0.70997  Biso   1.000  C
  C189     1.0000 0.16730  0.19840  0.20997  Biso   1.000  C
  C190     1.0000 0.83270  0.19840  0.29003  Biso   1.000  C
  C191     1.0000 0.66730  0.69840  0.20997  Biso   1.000  C
  C192     1.0000 0.33270  0.69840  0.29003  Biso   1.000  C
  C193     1.0000 0.08910  0.19680  0.60450  Biso   1.000  C
  C194     1.0000 0.91090  0.19680  0.89550  Biso   1.000  C
  C195     1.0000 0.58910  0.69680  0.60450  Biso   1.000  C
  C196     1.0000 0.41090  0.69680  0.89550  Biso   1.000  C
  C197     1.0000 0.91090  0.80320  0.39550  Biso   1.000  C
  C198     1.0000 0.08910  0.80320  0.10450  Biso   1.000  C
  C199     1.0000 0.41090  0.30320  0.39550  Biso   1.000  C
  C200     1.0000 0.58910  0.30320  0.10450  Biso   1.000  C
  H97      1.0000 0.12590  0.22090  0.62280  Biso   1.000  H
  H98      1.0000 0.87410  0.22090  0.87720  Biso   1.000  H
  H99      1.0000 0.62590  0.72090  0.62280  Biso   1.000  H
  H100     1.0000 0.37410  0.72090  0.87720  Biso   1.000  H
  H101     1.0000 0.87410  0.77910  0.37720  Biso   1.000  H
  H102     1.0000 0.12590  0.77910  0.12280  Biso   1.000  H
  H103     1.0000 0.37410  0.27910  0.37720  Biso   1.000  H
  H104     1.0000 0.62590  0.27910  0.12280  Biso   1.000  H
  C201     1.0000 0.04210  0.27420  0.57833  Biso   1.000  C
  C202     1.0000 0.95790  0.27420  0.92167  Biso   1.000  C
  C203     1.0000 0.54210  0.77420  0.57833  Biso   1.000  C
  C204     1.0000 0.45790  0.77420  0.92167  Biso   1.000  C
  C205     1.0000 0.95790  0.72580  0.42167  Biso   1.000  C
  C206     1.0000 0.04210  0.72580  0.07833  Biso   1.000  C
  C207     1.0000 0.45790  0.22580  0.42167  Biso   1.000  C
  C208     1.0000 0.54210  0.22580  0.07833  Biso   1.000  C
  H105     1.0000 0.05150  0.34780  0.57940  Biso   1.000  H
  H106     1.0000 0.94850  0.34780  0.92060  Biso   1.000  H
  H107     1.0000 0.55150  0.84780  0.57940  Biso   1.000  H
  H108     1.0000 0.44850  0.84780  0.92060  Biso   1.000  H
  H109     1.0000 0.94850  0.65220  0.42060  Biso   1.000  H
  H110     1.0000 0.05150  0.65220  0.07940  Biso   1.000  H
  H111     1.0000 0.44850  0.15220  0.42060  Biso   1.000  H
  H112     1.0000 0.55150  0.15220  0.07940  Biso   1.000  H
  C209     1.0000 0.97922  0.24310  0.54964  Biso   1.000  C
  C210     1.0000 0.02078  0.24310  0.95036  Biso   1.000  C
  C211     1.0000 0.47922  0.74310  0.54964  Biso   1.000  C
  C212     1.0000 0.52078  0.74310  0.95036  Biso   1.000  C
  C213     1.0000 0.02078  0.75690  0.45036  Biso   1.000  C
  C214     1.0000 0.97922  0.75690  0.04964  Biso   1.000  C
  C215     1.0000 0.52078  0.25690  0.45036  Biso   1.000  C
  C216     1.0000 0.47922  0.25690  0.04964  Biso   1.000  C
  C217     1.0000 0.96520  0.13310  0.54718  Biso   1.000  C
  C218     1.0000 0.03480  0.13310  0.95282  Biso   1.000  C
  C219     1.0000 0.46520  0.63310  0.54718  Biso   1.000  C
  C220     1.0000 0.53480  0.63310  0.95282  Biso   1.000  C
  C221     1.0000 0.03480  0.86690  0.45282  Biso   1.000  C
  C222     1.0000 0.96520  0.86690  0.04718  Biso   1.000  C
  C223     1.0000 0.53480  0.36690  0.45282  Biso   1.000  C
  C224     1.0000 0.46520  0.36690  0.04718  Biso   1.000  C
  H113     1.0000 0.92780  0.10850  0.53200  Biso   1.000  H
  H114     1.0000 0.07220  0.10850  0.96800  Biso   1.000  H
  H115     1.0000 0.42780  0.60850  0.53200  Biso   1.000  H
  H116     1.0000 0.57220  0.60850  0.96800  Biso   1.000  H
  H117     1.0000 0.07220  0.89150  0.46800  Biso   1.000  H
  H118     1.0000 0.92780  0.89150  0.03200  Biso   1.000  H
  H119     1.0000 0.57220  0.39150  0.46800  Biso   1.000  H
  H120     1.0000 0.42780  0.39150  0.03200  Biso   1.000  H
  C225     1.0000 0.01368  0.05740  0.57037  Biso   1.000  C
  C226     1.0000 0.98632  0.05740  0.92963  Biso   1.000  C
  C227     1.0000 0.51368  0.55740  0.57037  Biso   1.000  C
  C228     1.0000 0.48632  0.55740  0.92963  Biso   1.000  C
  C229     1.0000 0.98632  0.94260  0.42963  Biso   1.000  C
  C230     1.0000 0.01368  0.94260  0.07037  Biso   1.000  C
  C231     1.0000 0.48632  0.44260  0.42963  Biso   1.000  C
  C232     1.0000 0.51368  0.44260  0.07037  Biso   1.000  C
  C233     1.0000 0.00350  0.93860  0.56234  Biso   1.000  C
  C234     1.0000 0.99650  0.93860  0.93766  Biso   1.000  C
  C235     1.0000 0.50350  0.43860  0.56234  Biso   1.000  C
  C236     1.0000 0.49650  0.43860  0.93766  Biso   1.000  C
  C237     1.0000 0.99650  0.06140  0.43766  Biso   1.000  C
  C238     1.0000 0.00350  0.06140  0.06234  Biso   1.000  C
  C239     1.0000 0.49650  0.56140  0.43766  Biso   1.000  C
  C240     1.0000 0.50350  0.56140  0.06234  Biso   1.000  C
  C241     1.0000 0.94520  0.89020  0.53227  Biso   1.000  C
  C242     1.0000 0.05480  0.89020  0.96773  Biso   1.000  C
  C243     1.0000 0.44520  0.39020  0.53227  Biso   1.000  C
  C244     1.0000 0.55480  0.39020  0.96773  Biso   1.000  C
  C245     1.0000 0.05480  0.10980  0.46773  Biso   1.000  C
  C246     1.0000 0.94520  0.10980  0.03227  Biso   1.000  C
  C247     1.0000 0.55480  0.60980  0.46773  Biso   1.000  C
  C248     1.0000 0.44520  0.60980  0.03227  Biso   1.000  C
  H121     1.0000 0.91340  0.93520  0.52010  Biso   1.000  H
  H122     1.0000 0.08660  0.93520  0.97990  Biso   1.000  H
  H123     1.0000 0.41340  0.43520  0.52010  Biso   1.000  H
  H124     1.0000 0.58660  0.43520  0.97990  Biso   1.000  H
  H125     1.0000 0.08660  0.06480  0.47990  Biso   1.000  H
  H126     1.0000 0.91340  0.06480  0.02010  Biso   1.000  H
  H127     1.0000 0.58660  0.56480  0.47990  Biso   1.000  H
  H128     1.0000 0.41340  0.56480  0.02010  Biso   1.000  H
  C249     1.0000 0.93990  0.77750  0.52303  Biso   1.000  C
  C250     1.0000 0.06010  0.77750  0.97697  Biso   1.000  C
  C251     1.0000 0.43990  0.27750  0.52303  Biso   1.000  C
  C252     1.0000 0.56010  0.27750  0.97697  Biso   1.000  C
  C253     1.0000 0.06010  0.22250  0.47697  Biso   1.000  C
  C254     1.0000 0.93990  0.22250  0.02303  Biso   1.000  C
  C255     1.0000 0.56010  0.72250  0.47697  Biso   1.000  C
  C256     1.0000 0.43990  0.72250  0.02303  Biso   1.000  C
  C257     1.0000 0.99710  0.71930  0.54652  Biso   1.000  C
  C258     1.0000 0.00290  0.71930  0.95348  Biso   1.000  C
  C259     1.0000 0.49710  0.21930  0.54652  Biso   1.000  C
  C260     1.0000 0.50290  0.21930  0.95348  Biso   1.000  C
  C261     1.0000 0.00290  0.28070  0.45348  Biso   1.000  C
  C262     1.0000 0.99710  0.28070  0.04652  Biso   1.000  C
  C263     1.0000 0.50290  0.78070  0.45348  Biso   1.000  C
  C264     1.0000 0.49710  0.78070  0.04652  Biso   1.000  C
  H129     1.0000 0.99720  0.64430  0.54130  Biso   1.000  H
  H130     1.0000 0.00280  0.64430  0.95870  Biso   1.000  H
  H131     1.0000 0.49720  0.14430  0.54130  Biso   1.000  H
  H132     1.0000 0.50280  0.14430  0.95870  Biso   1.000  H
  H133     1.0000 0.00280  0.35570  0.45870  Biso   1.000  H
  H134     1.0000 0.99720  0.35570  0.04130  Biso   1.000  H
  H135     1.0000 0.50280  0.85570  0.45870  Biso   1.000  H
  H136     1.0000 0.49720  0.85570  0.04130  Biso   1.000  H
  C265     1.0000 0.05440  0.77140  0.57771  Biso   1.000  C
  C266     1.0000 0.94560  0.77140  0.92229  Biso   1.000  C
  C267     1.0000 0.55440  0.27140  0.57771  Biso   1.000  C
  C268     1.0000 0.44560  0.27140  0.92229  Biso   1.000  C
  C269     1.0000 0.94560  0.22860  0.42229  Biso   1.000  C
  C270     1.0000 0.05440  0.22860  0.07771  Biso   1.000  C
  C271     1.0000 0.44560  0.72860  0.42229  Biso   1.000  C
  C272     1.0000 0.55440  0.72860  0.07771  Biso   1.000  C
  H137     1.0000 0.08670  0.72810  0.59110  Biso   1.000  H
  H138     1.0000 0.91330  0.72810  0.90890  Biso   1.000  H
  H139     1.0000 0.58670  0.22810  0.59110  Biso   1.000  H
  H140     1.0000 0.41330  0.22810  0.90890  Biso   1.000  H
  H141     1.0000 0.91330  0.27190  0.40890  Biso   1.000  H
  H142     1.0000 0.08670  0.27190  0.09110  Biso   1.000  H
  H143     1.0000 0.41330  0.77190  0.40890  Biso   1.000  H
  H144     1.0000 0.58670  0.77190  0.09110  Biso   1.000  H
  C273     1.0000 0.92711  0.32350  0.51829  Biso   1.000  C
  C274     1.0000 0.07289  0.32350  0.98171  Biso   1.000  C
  C275     1.0000 0.42711  0.82350  0.51829  Biso   1.000  C
  C276     1.0000 0.57289  0.82350  0.98171  Biso   1.000  C
  C277     1.0000 0.07289  0.67650  0.48171  Biso   1.000  C
  C278     1.0000 0.92711  0.67650  0.01829  Biso   1.000  C
  C279     1.0000 0.57289  0.17650  0.48171  Biso   1.000  C
  C280     1.0000 0.42711  0.17650  0.01829  Biso   1.000  C
  C281     1.0000 0.87880  0.72280  0.49051  Biso   1.000  C
  C282     1.0000 0.12120  0.72280  0.00949  Biso   1.000  C
  C283     1.0000 0.37880  0.22280  0.49051  Biso   1.000  C
  C284     1.0000 0.62120  0.22280  0.00949  Biso   1.000  C
  C285     1.0000 0.12120  0.27720  0.50949  Biso   1.000  C
  C286     1.0000 0.87880  0.27720  0.99051  Biso   1.000  C
  C287     1.0000 0.62120  0.77720  0.50949  Biso   1.000  C
  C288     1.0000 0.37880  0.77720  0.99051  Biso   1.000  C
  N1       1.0000 0.07551  0.08900  0.60023  Biso   1.000  N
  N2       1.0000 0.92449  0.08900  0.89977  Biso   1.000  N
  N3       1.0000 0.57551  0.58900  0.60023  Biso   1.000  N
  N4       1.0000 0.42449  0.58900  0.89977  Biso   1.000  N
  N5       1.0000 0.92449  0.91100  0.39977  Biso   1.000  N
  N6       1.0000 0.07551  0.91100  0.10023  Biso   1.000  N
  N7       1.0000 0.42449  0.41100  0.39977  Biso   1.000  N
  N8       1.0000 0.57551  0.41100  0.10023  Biso   1.000  N
  N9       1.0000 0.05799  0.87970  0.58577  Biso   1.000  N
  N10      1.0000 0.94201  0.87970  0.91423  Biso   1.000  N
  N11      1.0000 0.55799  0.37970  0.58577  Biso   1.000  N
  N12      1.0000 0.44201  0.37970  0.91423  Biso   1.000  N
  N13      1.0000 0.94201  0.12030  0.41423  Biso   1.000  N
  N14      1.0000 0.05799  0.12030  0.08577  Biso   1.000  N
  N15      1.0000 0.44201  0.62030  0.41423  Biso   1.000  N
  N16      1.0000 0.55799  0.62030  0.08577  Biso   1.000  N
  N17      1.0000 0.69989  0.48170  0.60445  Biso   1.000  N
  N18      1.0000 0.30011  0.48170  0.89555  Biso   1.000  N
  N19      1.0000 0.19989  0.98170  0.60445  Biso   1.000  N
  N20      1.0000 0.80011  0.98170  0.89555  Biso   1.000  N
  N21      1.0000 0.30011  0.51830  0.39555  Biso   1.000  N
  N22      1.0000 0.69989  0.51830  0.10445  Biso   1.000  N
  N23      1.0000 0.80011  0.01830  0.39555  Biso   1.000  N
  N24      1.0000 0.19989  0.01830  0.10445  Biso   1.000  N
  N25      1.0000 0.70536  0.55740  0.68924  Biso   1.000  N
  N26      1.0000 0.29464  0.55740  0.81076  Biso   1.000  N
  N27      1.0000 0.20536  0.05740  0.68924  Biso   1.000  N
  N28      1.0000 0.79464  0.05740  0.81076  Biso   1.000  N
  N29      1.0000 0.29464  0.44260  0.31076  Biso   1.000  N
  N30      1.0000 0.70536  0.44260  0.18924  Biso   1.000  N
  N31      1.0000 0.79464  0.94260  0.31076  Biso   1.000  N
  N32      1.0000 0.20536  0.94260  0.18924  Biso   1.000  N
  N33      1.0000 0.94601  0.51240  0.28184  Biso   1.000  N
  N34      1.0000 0.05399  0.51240  0.21816  Biso   1.000  N
  N35      1.0000 0.44601  0.01240  0.28184  Biso   1.000  N
  N36      1.0000 0.55399  0.01240  0.21816  Biso   1.000  N
  N37      1.0000 0.05399  0.48760  0.71816  Biso   1.000  N
  N38      1.0000 0.94601  0.48760  0.78184  Biso   1.000  N
  N39      1.0000 0.55399  0.98760  0.71816  Biso   1.000  N
  N40      1.0000 0.44601  0.98760  0.78184  Biso   1.000  N
  N41      1.0000 0.92643  0.61070  0.19575  Biso   1.000  N
  N42      1.0000 0.07357  0.61070  0.30425  Biso   1.000  N
  N43      1.0000 0.42643  0.11070  0.19575  Biso   1.000  N
  N44      1.0000 0.57357  0.11070  0.30425  Biso   1.000  N
  N45      1.0000 0.07357  0.38930  0.80425  Biso   1.000  N
  N46      1.0000 0.92643  0.38930  0.69575  Biso   1.000  N
  N47      1.0000 0.57357  0.88930  0.80425  Biso   1.000  N
  N48      1.0000 0.42643  0.88930  0.69575  Biso   1.000  N
  O1       1.0000 0.87860  0.63130  0.47424  Biso   1.000  O
  O2       1.0000 0.12140  0.63130  0.02576  Biso   1.000  O
  O3       1.0000 0.37860  0.13130  0.47424  Biso   1.000  O
  O4       1.0000 0.62140  0.13130  0.02576  Biso   1.000  O
  O5       1.0000 0.12140  0.36870  0.52576  Biso   1.000  O
  O6       1.0000 0.87860  0.36870  0.97424  Biso   1.000  O
  O7       1.0000 0.62140  0.86870  0.52576  Biso   1.000  O
  O8       1.0000 0.37860  0.86870  0.97424  Biso   1.000  O
  O9       1.0000 0.83000  0.77370  0.47940  Biso   1.000  O
  O10      1.0000 0.17000  0.77370  0.02060  Biso   1.000  O
  O11      1.0000 0.33000  0.27370  0.47940  Biso   1.000  O
  O12      1.0000 0.67000  0.27370  0.02060  Biso   1.000  O
  O13      1.0000 0.17000  0.22630  0.52060  Biso   1.000  O
  O14      1.0000 0.83000  0.22630  0.97940  Biso   1.000  O
  O15      1.0000 0.67000  0.72630  0.52060  Biso   1.000  O
  O16      1.0000 0.33000  0.72630  0.97940  Biso   1.000  O
  O17      1.0000 0.87050  0.29500  0.49887  Biso   1.000  O
  O18      1.0000 0.12950  0.29500  0.00113  Biso   1.000  O
  O19      1.0000 0.37050  0.79500  0.49887  Biso   1.000  O
  O20      1.0000 0.62950  0.79500  0.00113  Biso   1.000  O
  O21      1.0000 0.12950  0.70500  0.50113  Biso   1.000  O
  O22      1.0000 0.87050  0.70500  0.99887  Biso   1.000  O
  O23      1.0000 0.62950  0.20500  0.50113  Biso   1.000  O
  O24      1.0000 0.37050  0.20500  0.99887  Biso   1.000  O
  O25      1.0000 0.94068  0.41750  0.51072  Biso   1.000  O
  O26      1.0000 0.05932  0.41750  0.98928  Biso   1.000  O
  O27      1.0000 0.44068  0.91750  0.51072  Biso   1.000  O
  O28      1.0000 0.55932  0.91750  0.98928  Biso   1.000  O
  O29      1.0000 0.05932  0.58250  0.48928  Biso   1.000  O
  O30      1.0000 0.94068  0.58250  0.01072  Biso   1.000  O
  O31      1.0000 0.55932  0.08250  0.48928  Biso   1.000  O
  O32      1.0000 0.44068  0.08250  0.01072  Biso   1.000  O
  O33      1.0000 0.81962  0.83520  0.82375  Biso   1.000  O
  O34      1.0000 0.18038  0.83520  0.67625  Biso   1.000  O
  O35      1.0000 0.31962  0.33520  0.82375  Biso   1.000  O
  O36      1.0000 0.68038  0.33520  0.67625  Biso   1.000  O
  O37      1.0000 0.18038  0.16480  0.17625  Biso   1.000  O
  O38      1.0000 0.81962  0.16480  0.32375  Biso   1.000  O
  O39      1.0000 0.68038  0.66480  0.17625  Biso   1.000  O
  O40      1.0000 0.31962  0.66480  0.32375  Biso   1.000  O
  O41      1.0000 0.87392  0.84220  0.78382  Biso   1.000  O
  O42      1.0000 0.12608  0.84220  0.71618  Biso   1.000  O
  O43      1.0000 0.37392  0.34220  0.78382  Biso   1.000  O
  O44      1.0000 0.62608  0.34220  0.71618  Biso   1.000  O
  O45      1.0000 0.12608  0.15780  0.21618  Biso   1.000  O
  O46      1.0000 0.87392  0.15780  0.28382  Biso   1.000  O
  O47      1.0000 0.62608  0.65780  0.21618  Biso   1.000  O
  O48      1.0000 0.37392  0.65780  0.28382  Biso   1.000  O
  O49      1.0000 0.88476  0.60840  0.59419  Biso   1.000  O
  O50      1.0000 0.11524  0.60840  0.90581  Biso   1.000  O
  O51      1.0000 0.38476  0.10840  0.59419  Biso   1.000  O
  O52      1.0000 0.61524  0.10840  0.90581  Biso   1.000  O
  O53      1.0000 0.11524  0.39160  0.40581  Biso   1.000  O
  O54      1.0000 0.88476  0.39160  0.09419  Biso   1.000  O
  O55      1.0000 0.61524  0.89160  0.40581  Biso   1.000  O
  O56      1.0000 0.38476  0.89160  0.09419  Biso   1.000  O
  O57      1.0000 0.82830  0.50540  0.52321  Biso   1.000  O
  O58      1.0000 0.17170  0.50540  0.97679  Biso   1.000  O
  O59      1.0000 0.32830  0.00540  0.52321  Biso   1.000  O
  O60      1.0000 0.67170  0.00540  0.97679  Biso   1.000  O
  O61      1.0000 0.17170  0.49460  0.47679  Biso   1.000  O
  O62      1.0000 0.82830  0.49460  0.02321  Biso   1.000  O
  O63      1.0000 0.67170  0.99460  0.47679  Biso   1.000  O
  O64      1.0000 0.32830  0.99460  0.02321  Biso   1.000  O
  O65      1.0000 0.74504  0.57350  0.39245  Biso   1.000  O
  O66      1.0000 0.25496  0.57350  0.10755  Biso   1.000  O
  O67      1.0000 0.24504  0.07350  0.39245  Biso   1.000  O
  O68      1.0000 0.75496  0.07350  0.10755  Biso   1.000  O
  O69      1.0000 0.25496  0.42650  0.60755  Biso   1.000  O
  O70      1.0000 0.74504  0.42650  0.89245  Biso   1.000  O
  O71      1.0000 0.75496  0.92650  0.60755  Biso   1.000  O
  O72      1.0000 0.24504  0.92650  0.89245  Biso   1.000  O
  O73      1.0000 0.85597  0.48900  0.39178  Biso   1.000  O
  O74      1.0000 0.14403  0.48900  0.10822  Biso   1.000  O
  O75      1.0000 0.35597  0.98900  0.39178  Biso   1.000  O
  O76      1.0000 0.64403  0.98900  0.10822  Biso   1.000  O
  O77      1.0000 0.14403  0.51100  0.60822  Biso   1.000  O
  O78      1.0000 0.85597  0.51100  0.89178  Biso   1.000  O
  O79      1.0000 0.64403  0.01100  0.60822  Biso   1.000  O
  O80      1.0000 0.35597  0.01100  0.89178  Biso   1.000  O
  O81      1.0000 0.78960  0.60530  0.32917  Biso   1.000  O
  O82      1.0000 0.21040  0.60530  0.17083  Biso   1.000  O
  O83      1.0000 0.28960  0.10530  0.32917  Biso   1.000  O
  O84      1.0000 0.71040  0.10530  0.17083  Biso   1.000  O
  O85      1.0000 0.21040  0.39470  0.67083  Biso   1.000  O
  O86      1.0000 0.78960  0.39470  0.82917  Biso   1.000  O
  O87      1.0000 0.71040  0.89470  0.67083  Biso   1.000  O
  O88      1.0000 0.28960  0.89470  0.82917  Biso   1.000  O
  O89      1.0000 0.72601  0.83030  0.11187  Biso   1.000  O
  O90      1.0000 0.27399  0.83030  0.38813  Biso   1.000  O
  O91      1.0000 0.22601  0.33030  0.11187  Biso   1.000  O
  O92      1.0000 0.77399  0.33030  0.38813  Biso   1.000  O
  O93      1.0000 0.27399  0.16970  0.88813  Biso   1.000  O
  O94      1.0000 0.72601  0.16970  0.61187  Biso   1.000  O
  O95      1.0000 0.77399  0.66970  0.88813  Biso   1.000  O
  O96      1.0000 0.22601  0.66970  0.61187  Biso   1.000  O
  O97      1.0000 0.76453  0.87140  0.06327  Biso   1.000  O
  O98      1.0000 0.23547  0.87140  0.43673  Biso   1.000  O
  O99      1.0000 0.26453  0.37140  0.06327  Biso   1.000  O
  O100     1.0000 0.73547  0.37140  0.43673  Biso   1.000  O
  O101     1.0000 0.23547  0.12860  0.93673  Biso   1.000  O
  O102     1.0000 0.76453  0.12860  0.56327  Biso   1.000  O
  O103     1.0000 0.73547  0.62860  0.93673  Biso   1.000  O
  O104     1.0000 0.26453  0.62860  0.56327  Biso   1.000  O
  O105     1.0000 0.00000  0.34630  0.25000  Biso   1.000  O
  O106     1.0000 0.50000  0.84630  0.25000  Biso   1.000  O
  O107     1.0000 0.00000  0.65370  0.75000  Biso   1.000  O
  O108     1.0000 0.50000  0.15370  0.75000  Biso   1.000  O
  O109     1.0000 0.94240  0.36410  0.20040  Biso   1.000  O
  O110     1.0000 0.05760  0.36410  0.29960  Biso   1.000  O
  O111     1.0000 0.44240  0.86410  0.20040  Biso   1.000  O
  O112     1.0000 0.55760  0.86410  0.29960  Biso   1.000  O
  O113     1.0000 0.05760  0.63590  0.79960  Biso   1.000  O
  O114     1.0000 0.94240  0.63590  0.70040  Biso   1.000  O
  O115     1.0000 0.55760  0.13590  0.79960  Biso   1.000  O
  O116     1.0000 0.44240  0.13590  0.70040  Biso   1.000  O
  O117     1.0000 0.13340  0.01680  0.29900  Biso   1.000  O
  O118     1.0000 0.86660  0.01680  0.20100  Biso   1.000  O
  O119     1.0000 0.63340  0.51680  0.29900  Biso   1.000  O
  O120     1.0000 0.36660  0.51680  0.20100  Biso   1.000  O
  O121     1.0000 0.86660  0.98320  0.70100  Biso   1.000  O
  O122     1.0000 0.13340  0.98320  0.79900  Biso   1.000  O
  O123     1.0000 0.36660  0.48320  0.70100  Biso   1.000  O
  O124     1.0000 0.63340  0.48320  0.79900  Biso   1.000  O
  O125     1.0000 0.04550  0.85360  0.23630  Biso   1.000  O
  O126     1.0000 0.95450  0.85360  0.26370  Biso   1.000  O
  O127     1.0000 0.54550  0.35360  0.23630  Biso   1.000  O
  O128     1.0000 0.45450  0.35360  0.26370  Biso   1.000  O
  O129     1.0000 0.95450  0.14640  0.76370  Biso   1.000  O
  O130     1.0000 0.04550  0.14640  0.73630  Biso   1.000  O
  O131     1.0000 0.45450  0.64640  0.76370  Biso   1.000  O
  O132     1.0000 0.54550  0.64640  0.73630  Biso   1.000  O
  O133     1.0000 0.01090  0.01330  0.16430  Biso   1.000  O
  O134     1.0000 0.98910  0.01330  0.33570  Biso   1.000  O
  O135     1.0000 0.51090  0.51330  0.16430  Biso   1.000  O
  O136     1.0000 0.48910  0.51330  0.33570  Biso   1.000  O
  O137     1.0000 0.98910  0.98670  0.83570  Biso   1.000  O
  O138     1.0000 0.01090  0.98670  0.66430  Biso   1.000  O
  O139     1.0000 0.48910  0.48670  0.83570  Biso   1.000  O
  O140     1.0000 0.51090  0.48670  0.66430  Biso   1.000  O
  O141     1.0000 0.94150  0.01470  0.17100  Biso   1.000  O
  O142     1.0000 0.05850  0.01470  0.32900  Biso   1.000  O
  O143     1.0000 0.44150  0.51470  0.17100  Biso   1.000  O
  O144     1.0000 0.55850  0.51470  0.32900  Biso   1.000  O
  O145     1.0000 0.05850  0.98530  0.82900  Biso   1.000  O
  O146     1.0000 0.94150  0.98530  0.67100  Biso   1.000  O
  O147     1.0000 0.55850  0.48530  0.82900  Biso   1.000  O
  O148     1.0000 0.44150  0.48530  0.67100  Biso   1.000  O
  O149     1.0000 0.29560  0.69250  0.05510  Biso   1.000  O
  O150     1.0000 0.70440  0.69250  0.44490  Biso   1.000  O
  O151     1.0000 0.79560  0.19250  0.05510  Biso   1.000  O
  O152     1.0000 0.20440  0.19250  0.44490  Biso   1.000  O
  O153     1.0000 0.70440  0.30750  0.94490  Biso   1.000  O
  O154     1.0000 0.29560  0.30750  0.55510  Biso   1.000  O
  O155     1.0000 0.20440  0.80750  0.94490  Biso   1.000  O
  O156     1.0000 0.79560  0.80750  0.55510  Biso   1.000  O
  O157     1.0000 0.13920  0.00110  0.42920  Biso   1.000  O
  O158     1.0000 0.86080  0.00110  0.07080  Biso   1.000  O
  O159     1.0000 0.63920  0.50110  0.42920  Biso   1.000  O
  O160     1.0000 0.36080  0.50110  0.07080  Biso   1.000  O
  O161     1.0000 0.86080  0.99890  0.57080  Biso   1.000  O
  O162     1.0000 0.13920  0.99890  0.92920  Biso   1.000  O
  O163     1.0000 0.36080  0.49890  0.57080  Biso   1.000  O
  O164     1.0000 0.63920  0.49890  0.92920  Biso   1.000  O
  O165     1.0000 0.06730  0.98300  0.22820  Biso   1.000  O
  O166     1.0000 0.93270  0.98300  0.27180  Biso   1.000  O
  O167     1.0000 0.56730  0.48300  0.22820  Biso   1.000  O
  O168     1.0000 0.43270  0.48300  0.27180  Biso   1.000  O
  O169     1.0000 0.93270  0.01700  0.77180  Biso   1.000  O
  O170     1.0000 0.06730  0.01700  0.72820  Biso   1.000  O
  O171     1.0000 0.43270  0.51700  0.77180  Biso   1.000  O
  O172     1.0000 0.56730  0.51700  0.72820  Biso   1.000  O
