data_image0
_cell_length_a       24.922
_cell_length_b       12.285
_cell_length_c       26.811
_cell_angle_alpha    90
_cell_angle_beta     109.21
_cell_angle_gamma    90

_symmetry_space_group_name_H-M    "P 1"
_symmetry_int_tables_number       1

loop_
  _symmetry_equiv_pos_as_xyz
  'x, y, z'

loop_
  _atom_site_label
  _atom_site_occupancy
  _atom_site_fract_x
  _atom_site_fract_y
  _atom_site_fract_z
  _atom_site_thermal_displace_type
  _atom_site_B_iso_or_equiv
  _atom_site_type_symbol
  Ho1      1.0000 0.12686  0.21580  0.04577  Biso   1.000  Ho
  Ho2      1.0000 0.87314  0.21580  0.45423  Biso   1.000  Ho
  Ho3      1.0000 0.62686  0.71580  0.04577  Biso   1.000  Ho
  Ho4      1.0000 0.37314  0.71580  0.45423  Biso   1.000  Ho
  Ho5      1.0000 0.87314  0.78420  0.95423  Biso   1.000  Ho
  Ho6      1.0000 0.12686  0.78420  0.54577  Biso   1.000  Ho
  Ho7      1.0000 0.37314  0.28420  0.95423  Biso   1.000  Ho
  Ho8      1.0000 0.62686  0.28420  0.54577  Biso   1.000  Ho
  Cu1      1.0000 0.75280  0.21195  0.86547  Biso   1.000  Cu
  Cu2      1.0000 0.24720  0.21195  0.63453  Biso   1.000  Cu
  Cu3      1.0000 0.25280  0.71195  0.86547  Biso   1.000  Cu
  Cu4      1.0000 0.74720  0.71195  0.63453  Biso   1.000  Cu
  Cu5      1.0000 0.24720  0.78805  0.13453  Biso   1.000  Cu
  Cu6      1.0000 0.75280  0.78805  0.36547  Biso   1.000  Cu
  Cu7      1.0000 0.74720  0.28805  0.13453  Biso   1.000  Cu
  Cu8      1.0000 0.25280  0.28805  0.36547  Biso   1.000  Cu
  Cu9      1.0000 0.50000  0.25475  0.25000  Biso   1.000  Cu
  Cu10     1.0000 0.00000  0.75475  0.25000  Biso   1.000  Cu
  Cu11     1.0000 0.50000  0.74525  0.75000  Biso   1.000  Cu
  Cu12     1.0000 0.00000  0.24525  0.75000  Biso   1.000  Cu
  C1       1.0000 0.02300  0.30000  0.93410  Biso   1.000  C
  C2       1.0000 0.97700  0.30000  0.56590  Biso   1.000  C
  C3       1.0000 0.52300  0.80000  0.93410  Biso   1.000  C
  C4       1.0000 0.47700  0.80000  0.56590  Biso   1.000  C
  C5       1.0000 0.97700  0.70000  0.06590  Biso   1.000  C
  C6       1.0000 0.02300  0.70000  0.43410  Biso   1.000  C
  C7       1.0000 0.47700  0.20000  0.06590  Biso   1.000  C
  C8       1.0000 0.52300  0.20000  0.43410  Biso   1.000  C
  C9       1.0000 0.88450  0.17980  0.93460  Biso   1.000  C
  C10      1.0000 0.11550  0.17980  0.56540  Biso   1.000  C
  C11      1.0000 0.38450  0.67980  0.93460  Biso   1.000  C
  C12      1.0000 0.61550  0.67980  0.56540  Biso   1.000  C
  C13      1.0000 0.11550  0.82020  0.06540  Biso   1.000  C
  C14      1.0000 0.88450  0.82020  0.43460  Biso   1.000  C
  C15      1.0000 0.61550  0.32020  0.06540  Biso   1.000  C
  C16      1.0000 0.38450  0.32020  0.43460  Biso   1.000  C
  H1       1.0000 0.87220  0.12630  0.95280  Biso   1.000  H
  H2       1.0000 0.12780  0.12630  0.54720  Biso   1.000  H
  H3       1.0000 0.37220  0.62630  0.95280  Biso   1.000  H
  H4       1.0000 0.62780  0.62630  0.54720  Biso   1.000  H
  H5       1.0000 0.12780  0.87370  0.04720  Biso   1.000  H
  H6       1.0000 0.87220  0.87370  0.45280  Biso   1.000  H
  H7       1.0000 0.62780  0.37370  0.04720  Biso   1.000  H
  H8       1.0000 0.37220  0.37370  0.45280  Biso   1.000  H
  C17      1.0000 0.94290  0.20140  0.94930  Biso   1.000  C
  C18      1.0000 0.05710  0.20140  0.55070  Biso   1.000  C
  C19      1.0000 0.44290  0.70140  0.94930  Biso   1.000  C
  C20      1.0000 0.55710  0.70140  0.55070  Biso   1.000  C
  C21      1.0000 0.05710  0.79860  0.05070  Biso   1.000  C
  C22      1.0000 0.94290  0.79860  0.44930  Biso   1.000  C
  C23      1.0000 0.55710  0.29860  0.05070  Biso   1.000  C
  C24      1.0000 0.44290  0.29860  0.44930  Biso   1.000  C
  H9       1.0000 0.96890  0.16480  0.97720  Biso   1.000  H
  H10      1.0000 0.03110  0.16480  0.52280  Biso   1.000  H
  H11      1.0000 0.46890  0.66480  0.97720  Biso   1.000  H
  H12      1.0000 0.53110  0.66480  0.52280  Biso   1.000  H
  H13      1.0000 0.03110  0.83520  0.02280  Biso   1.000  H
  H14      1.0000 0.96890  0.83520  0.47720  Biso   1.000  H
  H15      1.0000 0.53110  0.33520  0.02280  Biso   1.000  H
  H16      1.0000 0.46890  0.33520  0.47720  Biso   1.000  H
  C25      1.0000 0.95990  0.27830  0.92100  Biso   1.000  C
  C26      1.0000 0.04010  0.27830  0.57900  Biso   1.000  C
  C27      1.0000 0.45990  0.77830  0.92100  Biso   1.000  C
  C28      1.0000 0.54010  0.77830  0.57900  Biso   1.000  C
  C29      1.0000 0.04010  0.72170  0.07900  Biso   1.000  C
  C30      1.0000 0.95990  0.72170  0.42100  Biso   1.000  C
  C31      1.0000 0.54010  0.22170  0.07900  Biso   1.000  C
  C32      1.0000 0.45990  0.22170  0.42100  Biso   1.000  C
  C33      1.0000 0.92090  0.33110  0.87940  Biso   1.000  C
  C34      1.0000 0.07910  0.33110  0.62060  Biso   1.000  C
  C35      1.0000 0.42090  0.83110  0.87940  Biso   1.000  C
  C36      1.0000 0.57910  0.83110  0.62060  Biso   1.000  C
  C37      1.0000 0.07910  0.66890  0.12060  Biso   1.000  C
  C38      1.0000 0.92090  0.66890  0.37940  Biso   1.000  C
  C39      1.0000 0.57910  0.16890  0.12060  Biso   1.000  C
  C40      1.0000 0.42090  0.16890  0.37940  Biso   1.000  C
  H17      1.0000 0.93260  0.38290  0.85980  Biso   1.000  H
  H18      1.0000 0.06740  0.38290  0.64020  Biso   1.000  H
  H19      1.0000 0.43260  0.88290  0.85980  Biso   1.000  H
  H20      1.0000 0.56740  0.88290  0.64020  Biso   1.000  H
  H21      1.0000 0.06740  0.61710  0.14020  Biso   1.000  H
  H22      1.0000 0.93260  0.61710  0.35980  Biso   1.000  H
  H23      1.0000 0.56740  0.11710  0.14020  Biso   1.000  H
  H24      1.0000 0.43260  0.11710  0.35980  Biso   1.000  H
  C41      1.0000 0.86250  0.30500  0.86690  Biso   1.000  C
  C42      1.0000 0.13750  0.30500  0.63310  Biso   1.000  C
  C43      1.0000 0.36250  0.80500  0.86690  Biso   1.000  C
  C44      1.0000 0.63750  0.80500  0.63310  Biso   1.000  C
  C45      1.0000 0.13750  0.69500  0.13310  Biso   1.000  C
  C46      1.0000 0.86250  0.69500  0.36690  Biso   1.000  C
  C47      1.0000 0.63750  0.19500  0.13310  Biso   1.000  C
  C48      1.0000 0.36250  0.19500  0.36690  Biso   1.000  C
  C49      1.0000 0.81900  0.34910  0.82070  Biso   1.000  C
  C50      1.0000 0.18100  0.34910  0.67930  Biso   1.000  C
  C51      1.0000 0.31900  0.84910  0.82070  Biso   1.000  C
  C52      1.0000 0.68100  0.84910  0.67930  Biso   1.000  C
  C53      1.0000 0.18100  0.65090  0.17930  Biso   1.000  C
  C54      1.0000 0.81900  0.65090  0.32070  Biso   1.000  C
  C55      1.0000 0.68100  0.15090  0.17930  Biso   1.000  C
  C56      1.0000 0.31900  0.15090  0.32070  Biso   1.000  C
  C57      1.0000 0.82890  0.42690  0.78740  Biso   1.000  C
  C58      1.0000 0.17110  0.42690  0.71260  Biso   1.000  C
  C59      1.0000 0.32890  0.92690  0.78740  Biso   1.000  C
  C60      1.0000 0.67110  0.92690  0.71260  Biso   1.000  C
  C61      1.0000 0.17110  0.57310  0.21260  Biso   1.000  C
  C62      1.0000 0.82890  0.57310  0.28740  Biso   1.000  C
  C63      1.0000 0.67110  0.07310  0.21260  Biso   1.000  C
  C64      1.0000 0.32890  0.07310  0.28740  Biso   1.000  C
  H25      1.0000 0.86490  0.45750  0.79480  Biso   1.000  H
  H26      1.0000 0.13510  0.45750  0.70520  Biso   1.000  H
  H27      1.0000 0.36490  0.95750  0.79480  Biso   1.000  H
  H28      1.0000 0.63510  0.95750  0.70520  Biso   1.000  H
  H29      1.0000 0.13510  0.54250  0.20520  Biso   1.000  H
  H30      1.0000 0.86490  0.54250  0.29480  Biso   1.000  H
  H31      1.0000 0.63510  0.04250  0.20520  Biso   1.000  H
  H32      1.0000 0.36490  0.04250  0.29480  Biso   1.000  H
  C65      1.0000 0.78620  0.45800  0.74420  Biso   1.000  C
  C66      1.0000 0.21380  0.45800  0.75580  Biso   1.000  C
  C67      1.0000 0.28620  0.95800  0.74420  Biso   1.000  C
  C68      1.0000 0.71380  0.95800  0.75580  Biso   1.000  C
  C69      1.0000 0.21380  0.54200  0.25580  Biso   1.000  C
  C70      1.0000 0.78620  0.54200  0.24420  Biso   1.000  C
  C71      1.0000 0.71380  0.04200  0.25580  Biso   1.000  C
  C72      1.0000 0.28620  0.04200  0.24420  Biso   1.000  C
  C73      1.0000 0.73340  0.40780  0.73180  Biso   1.000  C
  C74      1.0000 0.26660  0.40780  0.76820  Biso   1.000  C
  C75      1.0000 0.23340  0.90780  0.73180  Biso   1.000  C
  C76      1.0000 0.76660  0.90780  0.76820  Biso   1.000  C
  C77      1.0000 0.26660  0.59220  0.26820  Biso   1.000  C
  C78      1.0000 0.73340  0.59220  0.23180  Biso   1.000  C
  C79      1.0000 0.76660  0.09220  0.26820  Biso   1.000  C
  C80      1.0000 0.23340  0.09220  0.23180  Biso   1.000  C
  H33      1.0000 0.70440  0.42480  0.70060  Biso   1.000  H
  H34      1.0000 0.29560  0.42480  0.79940  Biso   1.000  H
  H35      1.0000 0.20440  0.92480  0.70060  Biso   1.000  H
  H36      1.0000 0.79560  0.92480  0.79940  Biso   1.000  H
  H37      1.0000 0.29560  0.57520  0.29940  Biso   1.000  H
  H38      1.0000 0.70440  0.57520  0.20060  Biso   1.000  H
  H39      1.0000 0.79560  0.07520  0.29940  Biso   1.000  H
  H40      1.0000 0.20440  0.07520  0.20060  Biso   1.000  H
  C81      1.0000 0.72450  0.33220  0.76640  Biso   1.000  C
  C82      1.0000 0.27550  0.33220  0.73360  Biso   1.000  C
  C83      1.0000 0.22450  0.83220  0.76640  Biso   1.000  C
  C84      1.0000 0.77550  0.83220  0.73360  Biso   1.000  C
  C85      1.0000 0.27550  0.66780  0.23360  Biso   1.000  C
  C86      1.0000 0.72450  0.66780  0.26640  Biso   1.000  C
  C87      1.0000 0.77550  0.16780  0.23360  Biso   1.000  C
  C88      1.0000 0.22450  0.16780  0.26640  Biso   1.000  C
  H41      1.0000 0.68880  0.30060  0.75930  Biso   1.000  H
  H42      1.0000 0.31120  0.30060  0.74070  Biso   1.000  H
  H43      1.0000 0.18880  0.80060  0.75930  Biso   1.000  H
  H44      1.0000 0.81120  0.80060  0.74070  Biso   1.000  H
  H45      1.0000 0.31120  0.69940  0.24070  Biso   1.000  H
  H46      1.0000 0.68880  0.69940  0.25930  Biso   1.000  H
  H47      1.0000 0.81120  0.19940  0.24070  Biso   1.000  H
  H48      1.0000 0.18880  0.19940  0.25930  Biso   1.000  H
  C89      1.0000 0.79190  0.55200  0.70870  Biso   1.000  C
  C90      1.0000 0.20810  0.55200  0.79130  Biso   1.000  C
  C91      1.0000 0.29190  0.05200  0.70870  Biso   1.000  C
  C92      1.0000 0.70810  0.05200  0.79130  Biso   1.000  C
  C93      1.0000 0.20810  0.44800  0.29130  Biso   1.000  C
  C94      1.0000 0.79190  0.44800  0.20870  Biso   1.000  C
  C95      1.0000 0.70810  0.94800  0.29130  Biso   1.000  C
  C96      1.0000 0.29190  0.94800  0.20870  Biso   1.000  C
  C97      1.0000 0.15950  0.07170  0.98180  Biso   1.000  C
  C98      1.0000 0.84050  0.07170  0.51820  Biso   1.000  C
  C99      1.0000 0.65950  0.57170  0.98180  Biso   1.000  C
  C100     1.0000 0.34050  0.57170  0.51820  Biso   1.000  C
  C101     1.0000 0.84050  0.92830  0.01820  Biso   1.000  C
  C102     1.0000 0.15950  0.92830  0.48180  Biso   1.000  C
  C103     1.0000 0.34050  0.42830  0.01820  Biso   1.000  C
  C104     1.0000 0.65950  0.42830  0.48180  Biso   1.000  C
  C105     1.0000 0.23510  0.94170  0.89540  Biso   1.000  C
  C106     1.0000 0.76490  0.94170  0.60460  Biso   1.000  C
  C107     1.0000 0.73510  0.44170  0.89540  Biso   1.000  C
  C108     1.0000 0.26490  0.44170  0.60460  Biso   1.000  C
  C109     1.0000 0.76490  0.05830  0.10460  Biso   1.000  C
  C110     1.0000 0.23510  0.05830  0.39540  Biso   1.000  C
  C111     1.0000 0.26490  0.55830  0.10460  Biso   1.000  C
  C112     1.0000 0.73510  0.55830  0.39540  Biso   1.000  C
  H49      1.0000 0.25650  0.96180  0.87430  Biso   1.000  H
  H50      1.0000 0.74350  0.96180  0.62570  Biso   1.000  H
  H51      1.0000 0.75650  0.46180  0.87430  Biso   1.000  H
  H52      1.0000 0.24350  0.46180  0.62570  Biso   1.000  H
  H53      1.0000 0.74350  0.03820  0.12570  Biso   1.000  H
  H54      1.0000 0.25650  0.03820  0.37430  Biso   1.000  H
  H55      1.0000 0.24350  0.53820  0.12570  Biso   1.000  H
  H56      1.0000 0.75650  0.53820  0.37430  Biso   1.000  H
  C113     1.0000 0.21540  0.02320  0.92040  Biso   1.000  C
  C114     1.0000 0.78460  0.02320  0.57960  Biso   1.000  C
  C115     1.0000 0.71540  0.52320  0.92040  Biso   1.000  C
  C116     1.0000 0.28460  0.52320  0.57960  Biso   1.000  C
  C117     1.0000 0.78460  0.97680  0.07960  Biso   1.000  C
  C118     1.0000 0.21540  0.97680  0.42040  Biso   1.000  C
  C119     1.0000 0.28460  0.47680  0.07960  Biso   1.000  C
  C120     1.0000 0.71540  0.47680  0.42040  Biso   1.000  C
  H57      1.0000 0.22520  0.09570  0.91840  Biso   1.000  H
  H58      1.0000 0.77480  0.09570  0.58160  Biso   1.000  H
  H59      1.0000 0.72520  0.59570  0.91840  Biso   1.000  H
  H60      1.0000 0.27480  0.59570  0.58160  Biso   1.000  H
  H61      1.0000 0.77480  0.90430  0.08160  Biso   1.000  H
  H62      1.0000 0.22520  0.90430  0.41840  Biso   1.000  H
  H63      1.0000 0.27480  0.40430  0.08160  Biso   1.000  H
  H64      1.0000 0.72520  0.40430  0.41840  Biso   1.000  H
  C121     1.0000 0.17910  0.99060  0.94940  Biso   1.000  C
  C122     1.0000 0.82090  0.99060  0.55060  Biso   1.000  C
  C123     1.0000 0.67910  0.49060  0.94940  Biso   1.000  C
  C124     1.0000 0.32090  0.49060  0.55060  Biso   1.000  C
  C125     1.0000 0.82090  0.00940  0.05060  Biso   1.000  C
  C126     1.0000 0.17910  0.00940  0.44940  Biso   1.000  C
  C127     1.0000 0.32090  0.50940  0.05060  Biso   1.000  C
  C128     1.0000 0.67910  0.50940  0.44940  Biso   1.000  C
  C129     1.0000 0.16750  0.88110  0.95320  Biso   1.000  C
  C130     1.0000 0.83250  0.88110  0.54680  Biso   1.000  C
  C131     1.0000 0.66750  0.38110  0.95320  Biso   1.000  C
  C132     1.0000 0.33250  0.38110  0.54680  Biso   1.000  C
  C133     1.0000 0.83250  0.11890  0.04680  Biso   1.000  C
  C134     1.0000 0.16750  0.11890  0.45320  Biso   1.000  C
  C135     1.0000 0.33250  0.61890  0.04680  Biso   1.000  C
  C136     1.0000 0.66750  0.61890  0.45320  Biso   1.000  C
  H65      1.0000 0.14330  0.85850  0.97120  Biso   1.000  H
  H66      1.0000 0.85670  0.85850  0.52880  Biso   1.000  H
  H67      1.0000 0.64330  0.35850  0.97120  Biso   1.000  H
  H68      1.0000 0.35670  0.35850  0.52880  Biso   1.000  H
  H69      1.0000 0.85670  0.14150  0.02880  Biso   1.000  H
  H70      1.0000 0.14330  0.14150  0.47120  Biso   1.000  H
  H71      1.0000 0.35670  0.64150  0.02880  Biso   1.000  H
  H72      1.0000 0.64330  0.64150  0.47120  Biso   1.000  H
  C137     1.0000 0.19320  0.80460  0.92880  Biso   1.000  C
  C138     1.0000 0.80680  0.80460  0.57120  Biso   1.000  C
  C139     1.0000 0.69320  0.30460  0.92880  Biso   1.000  C
  C140     1.0000 0.30680  0.30460  0.57120  Biso   1.000  C
  C141     1.0000 0.80680  0.19540  0.07120  Biso   1.000  C
  C142     1.0000 0.19320  0.19540  0.42880  Biso   1.000  C
  C143     1.0000 0.30680  0.69540  0.07120  Biso   1.000  C
  C144     1.0000 0.69320  0.69540  0.42880  Biso   1.000  C
  C145     1.0000 0.19030  0.68730  0.93660  Biso   1.000  C
  C146     1.0000 0.80970  0.68730  0.56340  Biso   1.000  C
  C147     1.0000 0.69030  0.18730  0.93660  Biso   1.000  C
  C148     1.0000 0.30970  0.18730  0.56340  Biso   1.000  C
  C149     1.0000 0.80970  0.31270  0.06340  Biso   1.000  C
  C150     1.0000 0.19030  0.31270  0.43660  Biso   1.000  C
  C151     1.0000 0.30970  0.81270  0.06340  Biso   1.000  C
  C152     1.0000 0.69030  0.81270  0.43660  Biso   1.000  C
  C153     1.0000 0.16200  0.64250  0.96690  Biso   1.000  C
  C154     1.0000 0.83800  0.64250  0.53310  Biso   1.000  C
  C155     1.0000 0.66200  0.14250  0.96690  Biso   1.000  C
  C156     1.0000 0.33800  0.14250  0.53310  Biso   1.000  C
  C157     1.0000 0.83800  0.35750  0.03310  Biso   1.000  C
  C158     1.0000 0.16200  0.35750  0.46690  Biso   1.000  C
  C159     1.0000 0.33800  0.85750  0.03310  Biso   1.000  C
  C160     1.0000 0.66200  0.85750  0.46690  Biso   1.000  C
  H73      1.0000 0.14030  0.68560  0.98160  Biso   1.000  H
  H74      1.0000 0.85970  0.68560  0.51840  Biso   1.000  H
  H75      1.0000 0.64030  0.18560  0.98160  Biso   1.000  H
  H76      1.0000 0.35970  0.18560  0.51840  Biso   1.000  H
  H77      1.0000 0.85970  0.31440  0.01840  Biso   1.000  H
  H78      1.0000 0.14030  0.31440  0.48160  Biso   1.000  H
  H79      1.0000 0.35970  0.81440  0.01840  Biso   1.000  H
  H80      1.0000 0.64030  0.81440  0.48160  Biso   1.000  H
  C161     1.0000 0.16640  0.52650  0.97600  Biso   1.000  C
  C162     1.0000 0.83360  0.52650  0.52400  Biso   1.000  C
  C163     1.0000 0.66640  0.02650  0.97600  Biso   1.000  C
  C164     1.0000 0.33360  0.02650  0.52400  Biso   1.000  C
  C165     1.0000 0.83360  0.47350  0.02400  Biso   1.000  C
  C166     1.0000 0.16640  0.47350  0.47600  Biso   1.000  C
  C167     1.0000 0.33360  0.97350  0.02400  Biso   1.000  C
  C168     1.0000 0.66640  0.97350  0.47600  Biso   1.000  C
  C169     1.0000 0.19920  0.46960  0.95380  Biso   1.000  C
  C170     1.0000 0.80080  0.46960  0.54620  Biso   1.000  C
  C171     1.0000 0.69920  0.96960  0.95380  Biso   1.000  C
  C172     1.0000 0.30080  0.96960  0.54620  Biso   1.000  C
  C173     1.0000 0.80080  0.53040  0.04620  Biso   1.000  C
  C174     1.0000 0.19920  0.53040  0.45380  Biso   1.000  C
  C175     1.0000 0.30080  0.03040  0.04620  Biso   1.000  C
  C176     1.0000 0.69920  0.03040  0.45380  Biso   1.000  C
  H81      1.0000 0.20370  0.39500  0.95950  Biso   1.000  H
  H82      1.0000 0.79630  0.39500  0.54050  Biso   1.000  H
  H83      1.0000 0.70370  0.89500  0.95950  Biso   1.000  H
  H84      1.0000 0.29630  0.89500  0.54050  Biso   1.000  H
  H85      1.0000 0.79630  0.60500  0.04050  Biso   1.000  H
  H86      1.0000 0.20370  0.60500  0.45950  Biso   1.000  H
  H87      1.0000 0.29630  0.10500  0.04050  Biso   1.000  H
  H88      1.0000 0.70370  0.10500  0.45950  Biso   1.000  H
  C177     1.0000 0.22650  0.52160  0.92220  Biso   1.000  C
  C178     1.0000 0.77350  0.52160  0.57780  Biso   1.000  C
  C179     1.0000 0.72650  0.02160  0.92220  Biso   1.000  C
  C180     1.0000 0.27350  0.02160  0.57780  Biso   1.000  C
  C181     1.0000 0.77350  0.47840  0.07780  Biso   1.000  C
  C182     1.0000 0.22650  0.47840  0.42220  Biso   1.000  C
  C183     1.0000 0.27350  0.97840  0.07780  Biso   1.000  C
  C184     1.0000 0.72650  0.97840  0.42220  Biso   1.000  C
  H89      1.0000 0.24770  0.48030  0.90640  Biso   1.000  H
  H90      1.0000 0.75230  0.48030  0.59360  Biso   1.000  H
  H91      1.0000 0.74770  0.98030  0.90640  Biso   1.000  H
  H92      1.0000 0.25230  0.98030  0.59360  Biso   1.000  H
  H93      1.0000 0.75230  0.51970  0.09360  Biso   1.000  H
  H94      1.0000 0.24770  0.51970  0.40640  Biso   1.000  H
  H95      1.0000 0.25230  0.01970  0.09360  Biso   1.000  H
  H96      1.0000 0.74770  0.01970  0.40640  Biso   1.000  H
  C185     1.0000 0.13630  0.47490  0.00990  Biso   1.000  C
  C186     1.0000 0.86370  0.47490  0.49010  Biso   1.000  C
  C187     1.0000 0.63630  0.97490  0.00990  Biso   1.000  C
  C188     1.0000 0.36370  0.97490  0.49010  Biso   1.000  C
  C189     1.0000 0.86370  0.52510  0.99010  Biso   1.000  C
  C190     1.0000 0.13630  0.52510  0.50990  Biso   1.000  C
  C191     1.0000 0.36370  0.02510  0.99010  Biso   1.000  C
  C192     1.0000 0.63630  0.02510  0.50990  Biso   1.000  C
  C193     1.0000 0.23680  0.28960  0.14910  Biso   1.000  C
  C194     1.0000 0.76320  0.28960  0.35090  Biso   1.000  C
  C195     1.0000 0.73680  0.78960  0.14910  Biso   1.000  C
  C196     1.0000 0.26320  0.78960  0.35090  Biso   1.000  C
  C197     1.0000 0.76320  0.71040  0.85090  Biso   1.000  C
  C198     1.0000 0.23680  0.71040  0.64910  Biso   1.000  C
  C199     1.0000 0.26320  0.21040  0.85090  Biso   1.000  C
  C200     1.0000 0.73680  0.21040  0.64910  Biso   1.000  C
  C201     1.0000 0.38870  0.31960  0.24390  Biso   1.000  C
  C202     1.0000 0.61130  0.31960  0.25610  Biso   1.000  C
  C203     1.0000 0.88870  0.81960  0.24390  Biso   1.000  C
  C204     1.0000 0.11130  0.81960  0.25610  Biso   1.000  C
  C205     1.0000 0.61130  0.68040  0.75610  Biso   1.000  C
  C206     1.0000 0.38870  0.68040  0.74390  Biso   1.000  C
  C207     1.0000 0.11130  0.18040  0.75610  Biso   1.000  C
  C208     1.0000 0.88870  0.18040  0.74390  Biso   1.000  C
  C209     1.0000 0.32860  0.33160  0.22330  Biso   1.000  C
  C210     1.0000 0.67140  0.33160  0.27670  Biso   1.000  C
  C211     1.0000 0.82860  0.83160  0.22330  Biso   1.000  C
  C212     1.0000 0.17140  0.83160  0.27670  Biso   1.000  C
  C213     1.0000 0.67140  0.66840  0.77670  Biso   1.000  C
  C214     1.0000 0.32860  0.66840  0.72330  Biso   1.000  C
  C215     1.0000 0.17140  0.16840  0.77670  Biso   1.000  C
  C216     1.0000 0.82860  0.16840  0.72330  Biso   1.000  C
  H97      1.0000 0.30920  0.37300  0.24090  Biso   1.000  H
  H98      1.0000 0.69080  0.37300  0.25910  Biso   1.000  H
  H99      1.0000 0.80920  0.87300  0.24090  Biso   1.000  H
  H100     1.0000 0.19080  0.87300  0.25910  Biso   1.000  H
  H101     1.0000 0.69080  0.62700  0.75910  Biso   1.000  H
  H102     1.0000 0.30920  0.62700  0.74090  Biso   1.000  H
  H103     1.0000 0.19080  0.12700  0.75910  Biso   1.000  H
  H104     1.0000 0.80920  0.12700  0.74090  Biso   1.000  H
  C217     1.0000 0.30010  0.27970  0.17620  Biso   1.000  C
  C218     1.0000 0.69990  0.27970  0.32380  Biso   1.000  C
  C219     1.0000 0.80010  0.77970  0.17620  Biso   1.000  C
  C220     1.0000 0.19990  0.77970  0.32380  Biso   1.000  C
  C221     1.0000 0.69990  0.72030  0.82380  Biso   1.000  C
  C222     1.0000 0.30010  0.72030  0.67620  Biso   1.000  C
  C223     1.0000 0.19990  0.22030  0.82380  Biso   1.000  C
  C224     1.0000 0.80010  0.22030  0.67620  Biso   1.000  C
  C225     1.0000 0.33010  0.22260  0.15130  Biso   1.000  C
  C226     1.0000 0.66990  0.22260  0.34870  Biso   1.000  C
  C227     1.0000 0.83010  0.72260  0.15130  Biso   1.000  C
  C228     1.0000 0.16990  0.72260  0.34870  Biso   1.000  C
  C229     1.0000 0.66990  0.77740  0.84870  Biso   1.000  C
  C230     1.0000 0.33010  0.77740  0.65130  Biso   1.000  C
  C231     1.0000 0.16990  0.27740  0.84870  Biso   1.000  C
  C232     1.0000 0.83010  0.27740  0.65130  Biso   1.000  C
  H105     1.0000 0.31130  0.18850  0.11930  Biso   1.000  H
  H106     1.0000 0.68870  0.18850  0.38070  Biso   1.000  H
  H107     1.0000 0.81130  0.68850  0.11930  Biso   1.000  H
  H108     1.0000 0.18870  0.68850  0.38070  Biso   1.000  H
  H109     1.0000 0.68870  0.81150  0.88070  Biso   1.000  H
  H110     1.0000 0.31130  0.81150  0.61930  Biso   1.000  H
  H111     1.0000 0.18870  0.31150  0.88070  Biso   1.000  H
  H112     1.0000 0.81130  0.31150  0.61930  Biso   1.000  H
  C233     1.0000 0.38760  0.21470  0.17260  Biso   1.000  C
  C234     1.0000 0.61240  0.21470  0.32740  Biso   1.000  C
  C235     1.0000 0.88760  0.71470  0.17260  Biso   1.000  C
  C236     1.0000 0.11240  0.71470  0.32740  Biso   1.000  C
  C237     1.0000 0.61240  0.78530  0.82740  Biso   1.000  C
  C238     1.0000 0.38760  0.78530  0.67260  Biso   1.000  C
  C239     1.0000 0.11240  0.28530  0.82740  Biso   1.000  C
  C240     1.0000 0.88760  0.28530  0.67260  Biso   1.000  C
  H113     1.0000 0.40710  0.17590  0.15430  Biso   1.000  H
  H114     1.0000 0.59290  0.17590  0.34570  Biso   1.000  H
  H115     1.0000 0.90710  0.67590  0.15430  Biso   1.000  H
  H116     1.0000 0.09290  0.67590  0.34570  Biso   1.000  H
  H117     1.0000 0.59290  0.82410  0.84570  Biso   1.000  H
  H118     1.0000 0.40710  0.82410  0.65430  Biso   1.000  H
  H119     1.0000 0.09290  0.32410  0.84570  Biso   1.000  H
  H120     1.0000 0.90710  0.32410  0.65430  Biso   1.000  H
  C241     1.0000 0.41830  0.56820  0.39910  Biso   1.000  C
  C242     1.0000 0.58170  0.56820  0.10090  Biso   1.000  C
  C243     1.0000 0.91830  0.06820  0.39910  Biso   1.000  C
  C244     1.0000 0.08170  0.06820  0.10090  Biso   1.000  C
  C245     1.0000 0.58170  0.43180  0.60090  Biso   1.000  C
  C246     1.0000 0.41830  0.43180  0.89910  Biso   1.000  C
  C247     1.0000 0.08170  0.93180  0.60090  Biso   1.000  C
  C248     1.0000 0.91830  0.93180  0.89910  Biso   1.000  C
  C249     1.0000 0.42410  0.37450  0.29180  Biso   1.000  C
  C250     1.0000 0.57590  0.37450  0.20820  Biso   1.000  C
  C251     1.0000 0.92410  0.87450  0.29180  Biso   1.000  C
  C252     1.0000 0.07590  0.87450  0.20820  Biso   1.000  C
  C253     1.0000 0.57590  0.62550  0.70820  Biso   1.000  C
  C254     1.0000 0.42410  0.62550  0.79180  Biso   1.000  C
  C255     1.0000 0.07590  0.12550  0.70820  Biso   1.000  C
  C256     1.0000 0.92410  0.12550  0.79180  Biso   1.000  C
  C257     1.0000 0.40270  0.43890  0.32410  Biso   1.000  C
  C258     1.0000 0.59730  0.43890  0.17590  Biso   1.000  C
  C259     1.0000 0.90270  0.93890  0.32410  Biso   1.000  C
  C260     1.0000 0.09730  0.93890  0.17590  Biso   1.000  C
  C261     1.0000 0.59730  0.56110  0.67590  Biso   1.000  C
  C262     1.0000 0.40270  0.56110  0.82410  Biso   1.000  C
  C263     1.0000 0.09730  0.06110  0.67590  Biso   1.000  C
  C264     1.0000 0.90270  0.06110  0.82410  Biso   1.000  C
  H121     1.0000 0.36370  0.44520  0.31680  Biso   1.000  H
  H122     1.0000 0.63630  0.44520  0.18320  Biso   1.000  H
  H123     1.0000 0.86370  0.94520  0.31680  Biso   1.000  H
  H124     1.0000 0.13630  0.94520  0.18320  Biso   1.000  H
  H125     1.0000 0.63630  0.55480  0.68320  Biso   1.000  H
  H126     1.0000 0.36370  0.55480  0.81680  Biso   1.000  H
  H127     1.0000 0.13630  0.05480  0.68320  Biso   1.000  H
  H128     1.0000 0.86370  0.05480  0.81680  Biso   1.000  H
  C265     1.0000 0.43980  0.49290  0.36660  Biso   1.000  C
  C266     1.0000 0.56020  0.49290  0.13340  Biso   1.000  C
  C267     1.0000 0.93980  0.99290  0.36660  Biso   1.000  C
  C268     1.0000 0.06020  0.99290  0.13340  Biso   1.000  C
  C269     1.0000 0.56020  0.50710  0.63340  Biso   1.000  C
  C270     1.0000 0.43980  0.50710  0.86660  Biso   1.000  C
  C271     1.0000 0.06020  0.00710  0.63340  Biso   1.000  C
  C272     1.0000 0.93980  0.00710  0.86660  Biso   1.000  C
  C273     1.0000 0.49820  0.47600  0.37890  Biso   1.000  C
  C274     1.0000 0.50180  0.47600  0.12110  Biso   1.000  C
  C275     1.0000 0.99820  0.97600  0.37890  Biso   1.000  C
  C276     1.0000 0.00180  0.97600  0.12110  Biso   1.000  C
  C277     1.0000 0.50180  0.52400  0.62110  Biso   1.000  C
  C278     1.0000 0.49820  0.52400  0.87890  Biso   1.000  C
  C279     1.0000 0.00180  0.02400  0.62110  Biso   1.000  C
  C280     1.0000 0.99820  0.02400  0.87890  Biso   1.000  C
  H129     1.0000 0.52410  0.50880  0.40830  Biso   1.000  H
  H130     1.0000 0.47590  0.50880  0.09170  Biso   1.000  H
  H131     1.0000 0.02410  0.00880  0.40830  Biso   1.000  H
  H132     1.0000 0.97590  0.00880  0.09170  Biso   1.000  H
  H133     1.0000 0.47590  0.49120  0.59170  Biso   1.000  H
  H134     1.0000 0.52410  0.49120  0.90830  Biso   1.000  H
  H135     1.0000 0.97590  0.99120  0.59170  Biso   1.000  H
  H136     1.0000 0.02410  0.99120  0.90830  Biso   1.000  H
  C281     1.0000 0.51620  0.41100  0.34700  Biso   1.000  C
  C282     1.0000 0.48380  0.41100  0.15300  Biso   1.000  C
  C283     1.0000 0.01620  0.91100  0.34700  Biso   1.000  C
  C284     1.0000 0.98380  0.91100  0.15300  Biso   1.000  C
  C285     1.0000 0.48380  0.58900  0.65300  Biso   1.000  C
  C286     1.0000 0.51620  0.58900  0.84700  Biso   1.000  C
  C287     1.0000 0.98380  0.08900  0.65300  Biso   1.000  C
  C288     1.0000 0.01620  0.08900  0.84700  Biso   1.000  C
  H137     1.0000 0.55520  0.40180  0.35470  Biso   1.000  H
  H138     1.0000 0.44480  0.40180  0.14530  Biso   1.000  H
  H139     1.0000 0.05520  0.90180  0.35470  Biso   1.000  H
  H140     1.0000 0.94480  0.90180  0.14530  Biso   1.000  H
  H141     1.0000 0.44480  0.59820  0.64530  Biso   1.000  H
  H142     1.0000 0.55520  0.59820  0.85470  Biso   1.000  H
  H143     1.0000 0.94480  0.09820  0.64530  Biso   1.000  H
  H144     1.0000 0.05520  0.09820  0.85470  Biso   1.000  H
  N1       1.0000 0.22570  0.83920  0.89960  Biso   1.000  N
  N2       1.0000 0.77430  0.83920  0.60040  Biso   1.000  N
  N3       1.0000 0.72570  0.33920  0.89960  Biso   1.000  N
  N4       1.0000 0.27430  0.33920  0.60040  Biso   1.000  N
  N5       1.0000 0.77430  0.16080  0.10040  Biso   1.000  N
  N6       1.0000 0.22570  0.16080  0.39960  Biso   1.000  N
  N7       1.0000 0.27430  0.66080  0.10040  Biso   1.000  N
  N8       1.0000 0.72570  0.66080  0.39960  Biso   1.000  N
  N9       1.0000 0.22280  0.62800  0.91440  Biso   1.000  N
  N10      1.0000 0.77720  0.62800  0.58560  Biso   1.000  N
  N11      1.0000 0.72280  0.12800  0.91440  Biso   1.000  N
  N12      1.0000 0.27720  0.12800  0.58560  Biso   1.000  N
  N13      1.0000 0.77720  0.37200  0.08560  Biso   1.000  N
  N14      1.0000 0.22280  0.37200  0.41440  Biso   1.000  N
  N15      1.0000 0.27720  0.87200  0.08560  Biso   1.000  N
  N16      1.0000 0.72280  0.87200  0.41440  Biso   1.000  N
  N17      1.0000 0.84540  0.23330  0.89510  Biso   1.000  N
  N18      1.0000 0.15460  0.23330  0.60490  Biso   1.000  N
  N19      1.0000 0.34540  0.73330  0.89510  Biso   1.000  N
  N20      1.0000 0.65460  0.73330  0.60490  Biso   1.000  N
  N21      1.0000 0.15460  0.76670  0.10490  Biso   1.000  N
  N22      1.0000 0.84540  0.76670  0.39510  Biso   1.000  N
  N23      1.0000 0.65460  0.26670  0.10490  Biso   1.000  N
  N24      1.0000 0.34540  0.26670  0.39510  Biso   1.000  N
  N25      1.0000 0.76750  0.30360  0.81070  Biso   1.000  N
  N26      1.0000 0.23250  0.30360  0.68930  Biso   1.000  N
  N27      1.0000 0.26750  0.80360  0.81070  Biso   1.000  N
  N28      1.0000 0.73250  0.80360  0.68930  Biso   1.000  N
  N29      1.0000 0.23250  0.69640  0.18930  Biso   1.000  N
  N30      1.0000 0.76750  0.69640  0.31070  Biso   1.000  N
  N31      1.0000 0.73250  0.19640  0.18930  Biso   1.000  N
  N32      1.0000 0.26750  0.19640  0.31070  Biso   1.000  N
  N33      1.0000 0.48020  0.35730  0.30350  Biso   1.000  N
  N34      1.0000 0.51980  0.35730  0.19650  Biso   1.000  N
  N35      1.0000 0.98020  0.85730  0.30350  Biso   1.000  N
  N36      1.0000 0.01980  0.85730  0.19650  Biso   1.000  N
  N37      1.0000 0.51980  0.64270  0.69650  Biso   1.000  N
  N38      1.0000 0.48020  0.64270  0.80350  Biso   1.000  N
  N39      1.0000 0.01980  0.14270  0.69650  Biso   1.000  N
  N40      1.0000 0.98020  0.14270  0.80350  Biso   1.000  N
  N41      1.0000 0.41700  0.25960  0.21830  Biso   1.000  N
  N42      1.0000 0.58300  0.25960  0.28170  Biso   1.000  N
  N43      1.0000 0.91700  0.75960  0.21830  Biso   1.000  N
  N44      1.0000 0.08300  0.75960  0.28170  Biso   1.000  N
  N45      1.0000 0.58300  0.74040  0.78170  Biso   1.000  N
  N46      1.0000 0.41700  0.74040  0.71830  Biso   1.000  N
  N47      1.0000 0.08300  0.24040  0.78170  Biso   1.000  N
  N48      1.0000 0.91700  0.24040  0.71830  Biso   1.000  N
  O1       1.0000 0.74500  0.58340  0.67570  Biso   1.000  O
  O2       1.0000 0.25500  0.58340  0.82430  Biso   1.000  O
  O3       1.0000 0.24500  0.08340  0.67570  Biso   1.000  O
  O4       1.0000 0.75500  0.08340  0.82430  Biso   1.000  O
  O5       1.0000 0.25500  0.41660  0.32430  Biso   1.000  O
  O6       1.0000 0.74500  0.41660  0.17570  Biso   1.000  O
  O7       1.0000 0.75500  0.91660  0.32430  Biso   1.000  O
  O8       1.0000 0.24500  0.91660  0.17570  Biso   1.000  O
  O9       1.0000 0.83890  0.59220  0.71650  Biso   1.000  O
  O10      1.0000 0.16110  0.59220  0.78350  Biso   1.000  O
  O11      1.0000 0.33890  0.09220  0.71650  Biso   1.000  O
  O12      1.0000 0.66110  0.09220  0.78350  Biso   1.000  O
  O13      1.0000 0.16110  0.40780  0.28350  Biso   1.000  O
  O14      1.0000 0.83890  0.40780  0.21650  Biso   1.000  O
  O15      1.0000 0.66110  0.90780  0.28350  Biso   1.000  O
  O16      1.0000 0.33890  0.90780  0.21650  Biso   1.000  O
  O17      1.0000 0.03800  0.36070  0.90520  Biso   1.000  O
  O18      1.0000 0.96200  0.36070  0.59480  Biso   1.000  O
  O19      1.0000 0.53800  0.86070  0.90520  Biso   1.000  O
  O20      1.0000 0.46200  0.86070  0.59480  Biso   1.000  O
  O21      1.0000 0.96200  0.63930  0.09480  Biso   1.000  O
  O22      1.0000 0.03800  0.63930  0.40520  Biso   1.000  O
  O23      1.0000 0.46200  0.13930  0.09480  Biso   1.000  O
  O24      1.0000 0.53800  0.13930  0.40520  Biso   1.000  O
  O25      1.0000 0.05490  0.25320  0.97490  Biso   1.000  O
  O26      1.0000 0.94510  0.25320  0.52510  Biso   1.000  O
  O27      1.0000 0.55490  0.75320  0.97490  Biso   1.000  O
  O28      1.0000 0.44510  0.75320  0.52510  Biso   1.000  O
  O29      1.0000 0.94510  0.74680  0.02510  Biso   1.000  O
  O30      1.0000 0.05490  0.74680  0.47490  Biso   1.000  O
  O31      1.0000 0.44510  0.24680  0.02510  Biso   1.000  O
  O32      1.0000 0.55490  0.24680  0.47490  Biso   1.000  O
  O33      1.0000 0.15400  0.38310  0.02620  Biso   1.000  O
  O34      1.0000 0.84600  0.38310  0.47380  Biso   1.000  O
  O35      1.0000 0.65400  0.88310  0.02620  Biso   1.000  O
  O36      1.0000 0.34600  0.88310  0.47380  Biso   1.000  O
  O37      1.0000 0.84600  0.61690  0.97380  Biso   1.000  O
  O38      1.0000 0.15400  0.61690  0.52620  Biso   1.000  O
  O39      1.0000 0.34600  0.11690  0.97380  Biso   1.000  O
  O40      1.0000 0.65400  0.11690  0.52620  Biso   1.000  O
  O41      1.0000 0.09680  0.52780  0.01890  Biso   1.000  O
  O42      1.0000 0.90320  0.52780  0.48110  Biso   1.000  O
  O43      1.0000 0.59680  0.02780  0.01890  Biso   1.000  O
  O44      1.0000 0.40320  0.02780  0.48110  Biso   1.000  O
  O45      1.0000 0.90320  0.47220  0.98110  Biso   1.000  O
  O46      1.0000 0.09680  0.47220  0.51890  Biso   1.000  O
  O47      1.0000 0.40320  0.97220  0.98110  Biso   1.000  O
  O48      1.0000 0.59680  0.97220  0.51890  Biso   1.000  O
  O49      1.0000 0.12250  0.04350  0.00090  Biso   1.000  O
  O50      1.0000 0.87750  0.04350  0.49910  Biso   1.000  O
  O51      1.0000 0.62250  0.54350  0.00090  Biso   1.000  O
  O52      1.0000 0.37750  0.54350  0.49910  Biso   1.000  O
  O53      1.0000 0.87750  0.95650  0.99910  Biso   1.000  O
  O54      1.0000 0.12250  0.95650  0.50090  Biso   1.000  O
  O55      1.0000 0.37750  0.45650  0.99910  Biso   1.000  O
  O56      1.0000 0.62250  0.45650  0.50090  Biso   1.000  O
  O57      1.0000 0.17960  0.16630  0.98850  Biso   1.000  O
  O58      1.0000 0.82040  0.16630  0.51150  Biso   1.000  O
  O59      1.0000 0.67960  0.66630  0.98850  Biso   1.000  O
  O60      1.0000 0.32040  0.66630  0.51150  Biso   1.000  O
  O61      1.0000 0.82040  0.83370  0.01150  Biso   1.000  O
  O62      1.0000 0.17960  0.83370  0.48850  Biso   1.000  O
  O63      1.0000 0.32040  0.33370  0.01150  Biso   1.000  O
  O64      1.0000 0.67960  0.33370  0.48850  Biso   1.000  O
  O65      1.0000 0.21490  0.23960  0.10860  Biso   1.000  O
  O66      1.0000 0.78510  0.23960  0.39140  Biso   1.000  O
  O67      1.0000 0.71490  0.73960  0.10860  Biso   1.000  O
  O68      1.0000 0.28510  0.73960  0.39140  Biso   1.000  O
  O69      1.0000 0.78510  0.76040  0.89140  Biso   1.000  O
  O70      1.0000 0.21490  0.76040  0.60860  Biso   1.000  O
  O71      1.0000 0.28510  0.26040  0.89140  Biso   1.000  O
  O72      1.0000 0.71490  0.26040  0.60860  Biso   1.000  O
  O73      1.0000 0.21220  0.35860  0.17130  Biso   1.000  O
  O74      1.0000 0.78780  0.35860  0.32870  Biso   1.000  O
  O75      1.0000 0.71220  0.85860  0.17130  Biso   1.000  O
  O76      1.0000 0.28780  0.85860  0.32870  Biso   1.000  O
  O77      1.0000 0.78780  0.64140  0.82870  Biso   1.000  O
  O78      1.0000 0.21220  0.64140  0.67130  Biso   1.000  O
  O79      1.0000 0.28780  0.14140  0.82870  Biso   1.000  O
  O80      1.0000 0.71220  0.14140  0.67130  Biso   1.000  O
  O81      1.0000 0.45070  0.61830  0.43540  Biso   1.000  O
  O82      1.0000 0.54930  0.61830  0.06460  Biso   1.000  O
  O83      1.0000 0.95070  0.11830  0.43540  Biso   1.000  O
  O84      1.0000 0.04930  0.11830  0.06460  Biso   1.000  O
  O85      1.0000 0.54930  0.38170  0.56460  Biso   1.000  O
  O86      1.0000 0.45070  0.38170  0.93540  Biso   1.000  O
  O87      1.0000 0.04930  0.88170  0.56460  Biso   1.000  O
  O88      1.0000 0.95070  0.88170  0.93540  Biso   1.000  O
  O89      1.0000 0.36470  0.57810  0.38780  Biso   1.000  O
  O90      1.0000 0.63530  0.57810  0.11220  Biso   1.000  O
  O91      1.0000 0.86470  0.07810  0.38780  Biso   1.000  O
  O92      1.0000 0.13530  0.07810  0.11220  Biso   1.000  O
  O93      1.0000 0.63530  0.42190  0.61220  Biso   1.000  O
  O94      1.0000 0.36470  0.42190  0.88780  Biso   1.000  O
  O95      1.0000 0.13530  0.92190  0.61220  Biso   1.000  O
  O96      1.0000 0.86470  0.92190  0.88780  Biso   1.000  O
  O97      1.0000 0.10430  0.31860  0.11020  Biso   1.000  O
  O98      1.0000 0.89570  0.31860  0.38980  Biso   1.000  O
  O99      1.0000 0.60430  0.81860  0.11020  Biso   1.000  O
  O100     1.0000 0.39570  0.81860  0.38980  Biso   1.000  O
  O101     1.0000 0.89570  0.68140  0.88980  Biso   1.000  O
  O102     1.0000 0.10430  0.68140  0.61020  Biso   1.000  O
  O103     1.0000 0.39570  0.18140  0.88980  Biso   1.000  O
  O104     1.0000 0.60430  0.18140  0.61020  Biso   1.000  O
  O105     1.0000 0.08120  0.26130  0.20110  Biso   1.000  O
  O106     1.0000 0.91880  0.26130  0.29890  Biso   1.000  O
  O107     1.0000 0.58120  0.76130  0.20110  Biso   1.000  O
  O108     1.0000 0.41880  0.76130  0.29890  Biso   1.000  O
  O109     1.0000 0.91880  0.73870  0.79890  Biso   1.000  O
  O110     1.0000 0.08120  0.73870  0.70110  Biso   1.000  O
  O111     1.0000 0.41880  0.23870  0.79890  Biso   1.000  O
  O112     1.0000 0.58120  0.23870  0.70110  Biso   1.000  O
  O113     1.0000 0.01860  0.44480  0.06060  Biso   1.000  O
  O114     1.0000 0.98140  0.44480  0.43940  Biso   1.000  O
  O115     1.0000 0.51860  0.94480  0.06060  Biso   1.000  O
  O116     1.0000 0.48140  0.94480  0.43940  Biso   1.000  O
  O117     1.0000 0.98140  0.55520  0.93940  Biso   1.000  O
  O118     1.0000 0.01860  0.55520  0.56060  Biso   1.000  O
  O119     1.0000 0.48140  0.05520  0.93940  Biso   1.000  O
  O120     1.0000 0.51860  0.05520  0.56060  Biso   1.000  O
  O121     1.0000 0.50960  0.10780  0.19870  Biso   1.000  O
  O122     1.0000 0.49040  0.10780  0.30130  Biso   1.000  O
  O123     1.0000 0.00960  0.60780  0.19870  Biso   1.000  O
  O124     1.0000 0.99040  0.60780  0.30130  Biso   1.000  O
  O125     1.0000 0.49040  0.89220  0.80130  Biso   1.000  O
  O126     1.0000 0.50960  0.89220  0.69870  Biso   1.000  O
  O127     1.0000 0.99040  0.39220  0.80130  Biso   1.000  O
  O128     1.0000 0.00960  0.39220  0.69870  Biso   1.000  O
  O129     1.0000 0.96140  0.24850  0.07010  Biso   1.000  O
  O130     1.0000 0.03860  0.24850  0.42990  Biso   1.000  O
  O131     1.0000 0.46140  0.74850  0.07010  Biso   1.000  O
  O132     1.0000 0.53860  0.74850  0.42990  Biso   1.000  O
  O133     1.0000 0.03860  0.75150  0.92990  Biso   1.000  O
  O134     1.0000 0.96140  0.75150  0.57010  Biso   1.000  O
  O135     1.0000 0.53860  0.25150  0.92990  Biso   1.000  O
  O136     1.0000 0.46140  0.25150  0.57010  Biso   1.000  O
  O137     1.0000 0.50000  0.09400  0.25000  Biso   1.000  O
  O138     1.0000 0.00000  0.59400  0.25000  Biso   1.000  O
  O139     1.0000 0.50000  0.90600  0.75000  Biso   1.000  O
  O140     1.0000 0.00000  0.40600  0.75000  Biso   1.000  O
  O141     1.0000 0.98210  0.26400  0.17250  Biso   1.000  O
  O142     1.0000 0.01790  0.26400  0.32750  Biso   1.000  O
  O143     1.0000 0.48210  0.76400  0.17250  Biso   1.000  O
  O144     1.0000 0.51790  0.76400  0.32750  Biso   1.000  O
  O145     1.0000 0.01790  0.73600  0.82750  Biso   1.000  O
  O146     1.0000 0.98210  0.73600  0.67250  Biso   1.000  O
  O147     1.0000 0.51790  0.23600  0.82750  Biso   1.000  O
  O148     1.0000 0.48210  0.23600  0.67250  Biso   1.000  O
