data_image0
_cell_length_a       25.136
_cell_length_b       12.41
_cell_length_c       26.8552
_cell_angle_alpha    90
_cell_angle_beta     109.11
_cell_angle_gamma    90

_symmetry_space_group_name_H-M    "P 1"
_symmetry_int_tables_number       1

loop_
  _symmetry_equiv_pos_as_xyz
  'x, y, z'

loop_
  _atom_site_label
  _atom_site_occupancy
  _atom_site_fract_x
  _atom_site_fract_y
  _atom_site_fract_z
  _atom_site_thermal_displace_type
  _atom_site_B_iso_or_equiv
  _atom_site_type_symbol
  Gd1      1.0000 0.37332  0.21508  0.45462  Biso   1.000  Gd
  Gd2      1.0000 0.62668  0.21508  0.04538  Biso   1.000  Gd
  Gd3      1.0000 0.87332  0.71508  0.45462  Biso   1.000  Gd
  Gd4      1.0000 0.12669  0.71508  0.04538  Biso   1.000  Gd
  Gd5      1.0000 0.62668  0.78492  0.54538  Biso   1.000  Gd
  Gd6      1.0000 0.37332  0.78492  0.95462  Biso   1.000  Gd
  Gd7      1.0000 0.12668  0.28492  0.54538  Biso   1.000  Gd
  Gd8      1.0000 0.87332  0.28492  0.95462  Biso   1.000  Gd
  Cu1      1.0000 0.74717  0.20973  0.63459  Biso   1.000  Cu
  Cu2      1.0000 0.25283  0.20973  0.86541  Biso   1.000  Cu
  Cu3      1.0000 0.24717  0.70973  0.63459  Biso   1.000  Cu
  Cu4      1.0000 0.75283  0.70973  0.86541  Biso   1.000  Cu
  Cu5      1.0000 0.25283  0.79027  0.36541  Biso   1.000  Cu
  Cu6      1.0000 0.74717  0.79027  0.13459  Biso   1.000  Cu
  Cu7      1.0000 0.75283  0.29027  0.36541  Biso   1.000  Cu
  Cu8      1.0000 0.24717  0.29027  0.13459  Biso   1.000  Cu
  Cu9      1.0000 0.00000  0.25069  0.25000  Biso   1.000  Cu
  Cu10     1.0000 0.50000  0.75069  0.25000  Biso   1.000  Cu
  Cu11     1.0000 0.00000  0.74931  0.75000  Biso   1.000  Cu
  Cu12     1.0000 0.50000  0.24931  0.75000  Biso   1.000  Cu
  C1       1.0000 0.68209  0.34720  0.67989  Biso   1.000  C
  C2       1.0000 0.31791  0.34720  0.82011  Biso   1.000  C
  C3       1.0000 0.18209  0.84720  0.67989  Biso   1.000  C
  C4       1.0000 0.81791  0.84720  0.82011  Biso   1.000  C
  C5       1.0000 0.31791  0.65280  0.32011  Biso   1.000  C
  C6       1.0000 0.68209  0.65280  0.17989  Biso   1.000  C
  C7       1.0000 0.81791  0.15280  0.32011  Biso   1.000  C
  C8       1.0000 0.18209  0.15280  0.17989  Biso   1.000  C
  C9       1.0000 0.67234  0.42650  0.71227  Biso   1.000  C
  C10      1.0000 0.32766  0.42650  0.78773  Biso   1.000  C
  C11      1.0000 0.17234  0.92650  0.71227  Biso   1.000  C
  C12      1.0000 0.82766  0.92650  0.78773  Biso   1.000  C
  C13      1.0000 0.32766  0.57350  0.28773  Biso   1.000  C
  C14      1.0000 0.67234  0.57350  0.21227  Biso   1.000  C
  C15      1.0000 0.82766  0.07350  0.28773  Biso   1.000  C
  C16      1.0000 0.17234  0.07350  0.21227  Biso   1.000  C
  H1       1.0000 0.63700  0.45810  0.70440  Biso   1.000  H
  H2       1.0000 0.36300  0.45810  0.79560  Biso   1.000  H
  H3       1.0000 0.13700  0.95810  0.70440  Biso   1.000  H
  H4       1.0000 0.86300  0.95810  0.79560  Biso   1.000  H
  H5       1.0000 0.36300  0.54190  0.29560  Biso   1.000  H
  H6       1.0000 0.63700  0.54190  0.20440  Biso   1.000  H
  H7       1.0000 0.86300  0.04190  0.29560  Biso   1.000  H
  H8       1.0000 0.13700  0.04190  0.20440  Biso   1.000  H
  C17      1.0000 0.71620  0.45770  0.75676  Biso   1.000  C
  C18      1.0000 0.28380  0.45770  0.74324  Biso   1.000  C
  C19      1.0000 0.21620  0.95770  0.75676  Biso   1.000  C
  C20      1.0000 0.78380  0.95770  0.74324  Biso   1.000  C
  C21      1.0000 0.28380  0.54230  0.24324  Biso   1.000  C
  C22      1.0000 0.71620  0.54230  0.25676  Biso   1.000  C
  C23      1.0000 0.78380  0.04230  0.24324  Biso   1.000  C
  C24      1.0000 0.21620  0.04230  0.25676  Biso   1.000  C
  C25      1.0000 0.76766  0.40550  0.76892  Biso   1.000  C
  C26      1.0000 0.23234  0.40550  0.73108  Biso   1.000  C
  C27      1.0000 0.26766  0.90550  0.76892  Biso   1.000  C
  C28      1.0000 0.73234  0.90550  0.73108  Biso   1.000  C
  C29      1.0000 0.23234  0.59450  0.23108  Biso   1.000  C
  C30      1.0000 0.76766  0.59450  0.26892  Biso   1.000  C
  C31      1.0000 0.73234  0.09450  0.23108  Biso   1.000  C
  C32      1.0000 0.26766  0.09450  0.26892  Biso   1.000  C
  H9       1.0000 0.79650  0.42100  0.80000  Biso   1.000  H
  H10      1.0000 0.20350  0.42100  0.70000  Biso   1.000  H
  H11      1.0000 0.29650  0.92100  0.80000  Biso   1.000  H
  H12      1.0000 0.70350  0.92100  0.70000  Biso   1.000  H
  H13      1.0000 0.20350  0.57900  0.20000  Biso   1.000  H
  H14      1.0000 0.79650  0.57900  0.30000  Biso   1.000  H
  H15      1.0000 0.70350  0.07900  0.20000  Biso   1.000  H
  H16      1.0000 0.29650  0.07900  0.30000  Biso   1.000  H
  C33      1.0000 0.77512  0.33020  0.73414  Biso   1.000  C
  C34      1.0000 0.22488  0.33020  0.76586  Biso   1.000  C
  C35      1.0000 0.27512  0.83020  0.73414  Biso   1.000  C
  C36      1.0000 0.72488  0.83020  0.76586  Biso   1.000  C
  C37      1.0000 0.22488  0.66980  0.26586  Biso   1.000  C
  C38      1.0000 0.77512  0.66980  0.23414  Biso   1.000  C
  C39      1.0000 0.72488  0.16980  0.26586  Biso   1.000  C
  C40      1.0000 0.27512  0.16980  0.23414  Biso   1.000  C
  H17      1.0000 0.81000  0.29690  0.74170  Biso   1.000  H
  H18      1.0000 0.19000  0.29690  0.75830  Biso   1.000  H
  H19      1.0000 0.31000  0.79690  0.74170  Biso   1.000  H
  H20      1.0000 0.69000  0.79690  0.75830  Biso   1.000  H
  H21      1.0000 0.19000  0.70310  0.25830  Biso   1.000  H
  H22      1.0000 0.81000  0.70310  0.24170  Biso   1.000  H
  H23      1.0000 0.69000  0.20310  0.25830  Biso   1.000  H
  H24      1.0000 0.31000  0.20310  0.24170  Biso   1.000  H
  C41      1.0000 0.63770  0.30290  0.63308  Biso   1.000  C
  C42      1.0000 0.36230  0.30290  0.86692  Biso   1.000  C
  C43      1.0000 0.13770  0.80290  0.63308  Biso   1.000  C
  C44      1.0000 0.86230  0.80290  0.86692  Biso   1.000  C
  C45      1.0000 0.36230  0.69710  0.36692  Biso   1.000  C
  C46      1.0000 0.63770  0.69710  0.13308  Biso   1.000  C
  C47      1.0000 0.86230  0.19710  0.36692  Biso   1.000  C
  C48      1.0000 0.13770  0.19710  0.13308  Biso   1.000  C
  C49      1.0000 0.58129  0.32860  0.62118  Biso   1.000  C
  C50      1.0000 0.41871  0.32860  0.87882  Biso   1.000  C
  C51      1.0000 0.08129  0.82860  0.62118  Biso   1.000  C
  C52      1.0000 0.91871  0.82860  0.87882  Biso   1.000  C
  C53      1.0000 0.41871  0.67140  0.37882  Biso   1.000  C
  C54      1.0000 0.58129  0.67140  0.12118  Biso   1.000  C
  C55      1.0000 0.91871  0.17140  0.37882  Biso   1.000  C
  C56      1.0000 0.08129  0.17140  0.12118  Biso   1.000  C
  H25      1.0000 0.57010  0.38020  0.64090  Biso   1.000  H
  H26      1.0000 0.42990  0.38020  0.85910  Biso   1.000  H
  H27      1.0000 0.07010  0.88020  0.64090  Biso   1.000  H
  H28      1.0000 0.92990  0.88020  0.85910  Biso   1.000  H
  H29      1.0000 0.42990  0.61980  0.35910  Biso   1.000  H
  H30      1.0000 0.57010  0.61980  0.14090  Biso   1.000  H
  H31      1.0000 0.92990  0.11980  0.35910  Biso   1.000  H
  H32      1.0000 0.07010  0.11980  0.14090  Biso   1.000  H
  C57      1.0000 0.54152  0.27680  0.57975  Biso   1.000  C
  C58      1.0000 0.45848  0.27680  0.92025  Biso   1.000  C
  C59      1.0000 0.04152  0.77680  0.57975  Biso   1.000  C
  C60      1.0000 0.95848  0.77680  0.92025  Biso   1.000  C
  C61      1.0000 0.45848  0.72320  0.42025  Biso   1.000  C
  C62      1.0000 0.54152  0.72320  0.07975  Biso   1.000  C
  C63      1.0000 0.95848  0.22320  0.42025  Biso   1.000  C
  C64      1.0000 0.04152  0.22320  0.07975  Biso   1.000  C
  C65      1.0000 0.56005  0.19900  0.55164  Biso   1.000  C
  C66      1.0000 0.43995  0.19900  0.94836  Biso   1.000  C
  C67      1.0000 0.06005  0.69900  0.55164  Biso   1.000  C
  C68      1.0000 0.93995  0.69900  0.94836  Biso   1.000  C
  C69      1.0000 0.43995  0.80100  0.44836  Biso   1.000  C
  C70      1.0000 0.56005  0.80100  0.05164  Biso   1.000  C
  C71      1.0000 0.93995  0.30100  0.44836  Biso   1.000  C
  C72      1.0000 0.06005  0.30100  0.05164  Biso   1.000  C
  H33      1.0000 0.53440  0.16150  0.52410  Biso   1.000  H
  H34      1.0000 0.46560  0.16150  0.97590  Biso   1.000  H
  H35      1.0000 0.03440  0.66150  0.52410  Biso   1.000  H
  H36      1.0000 0.96560  0.66150  0.97590  Biso   1.000  H
  H37      1.0000 0.46560  0.83850  0.47590  Biso   1.000  H
  H38      1.0000 0.53440  0.83850  0.02410  Biso   1.000  H
  H39      1.0000 0.96560  0.33850  0.47590  Biso   1.000  H
  H40      1.0000 0.03440  0.33850  0.02410  Biso   1.000  H
  C73      1.0000 0.61714  0.17870  0.56535  Biso   1.000  C
  C74      1.0000 0.38286  0.17870  0.93465  Biso   1.000  C
  C75      1.0000 0.11714  0.67870  0.56535  Biso   1.000  C
  C76      1.0000 0.88286  0.67870  0.93465  Biso   1.000  C
  C77      1.0000 0.38286  0.82130  0.43465  Biso   1.000  C
  C78      1.0000 0.61714  0.82130  0.06535  Biso   1.000  C
  C79      1.0000 0.88286  0.32130  0.43465  Biso   1.000  C
  C80      1.0000 0.11714  0.32130  0.06535  Biso   1.000  C
  H41      1.0000 0.62930  0.12700  0.54640  Biso   1.000  H
  H42      1.0000 0.37070  0.12700  0.95360  Biso   1.000  H
  H43      1.0000 0.12930  0.62700  0.54640  Biso   1.000  H
  H44      1.0000 0.87070  0.62700  0.95360  Biso   1.000  H
  H45      1.0000 0.37070  0.87300  0.45360  Biso   1.000  H
  H46      1.0000 0.62930  0.87300  0.04640  Biso   1.000  H
  H47      1.0000 0.87070  0.37300  0.45360  Biso   1.000  H
  H48      1.0000 0.12930  0.37300  0.04640  Biso   1.000  H
  C81      1.0000 0.70948  0.55060  0.79013  Biso   1.000  C
  C82      1.0000 0.29052  0.55060  0.70987  Biso   1.000  C
  C83      1.0000 0.20948  0.05060  0.79013  Biso   1.000  C
  C84      1.0000 0.79052  0.05060  0.70987  Biso   1.000  C
  C85      1.0000 0.29052  0.44940  0.20987  Biso   1.000  C
  C86      1.0000 0.70948  0.44940  0.29013  Biso   1.000  C
  C87      1.0000 0.79052  0.94940  0.20987  Biso   1.000  C
  C88      1.0000 0.20948  0.94940  0.29013  Biso   1.000  C
  C89      1.0000 0.47902  0.30080  0.56614  Biso   1.000  C
  C90      1.0000 0.52098  0.30080  0.93386  Biso   1.000  C
  C91      1.0000 0.97902  0.80080  0.56614  Biso   1.000  C
  C92      1.0000 0.02098  0.80080  0.93386  Biso   1.000  C
  C93      1.0000 0.52098  0.69920  0.43386  Biso   1.000  C
  C94      1.0000 0.47902  0.69920  0.06614  Biso   1.000  C
  C95      1.0000 0.02098  0.19920  0.43386  Biso   1.000  C
  C96      1.0000 0.97902  0.19920  0.06614  Biso   1.000  C
  C97      1.0000 0.11093  0.31910  0.25670  Biso   1.000  C
  C98      1.0000 0.88907  0.31910  0.24330  Biso   1.000  C
  C99      1.0000 0.61093  0.81910  0.25670  Biso   1.000  C
  C100     1.0000 0.38907  0.81910  0.24330  Biso   1.000  C
  C101     1.0000 0.88907  0.68090  0.74330  Biso   1.000  C
  C102     1.0000 0.11093  0.68090  0.75670  Biso   1.000  C
  C103     1.0000 0.38907  0.18090  0.74330  Biso   1.000  C
  C104     1.0000 0.61093  0.18090  0.75670  Biso   1.000  C
  C105     1.0000 0.16934  0.33110  0.27709  Biso   1.000  C
  C106     1.0000 0.83066  0.33110  0.22291  Biso   1.000  C
  C107     1.0000 0.66934  0.83110  0.27709  Biso   1.000  C
  C108     1.0000 0.33066  0.83110  0.22291  Biso   1.000  C
  C109     1.0000 0.83066  0.66890  0.72291  Biso   1.000  C
  C110     1.0000 0.16934  0.66890  0.77709  Biso   1.000  C
  C111     1.0000 0.33066  0.16890  0.72291  Biso   1.000  C
  C112     1.0000 0.66934  0.16890  0.77709  Biso   1.000  C
  H49      1.0000 0.18830  0.37210  0.25930  Biso   1.000  H
  H50      1.0000 0.81170  0.37210  0.24070  Biso   1.000  H
  H51      1.0000 0.68830  0.87210  0.25930  Biso   1.000  H
  H52      1.0000 0.31170  0.87210  0.24070  Biso   1.000  H
  H53      1.0000 0.81170  0.62790  0.74070  Biso   1.000  H
  H54      1.0000 0.18830  0.62790  0.75930  Biso   1.000  H
  H55      1.0000 0.31170  0.12790  0.74070  Biso   1.000  H
  H56      1.0000 0.68830  0.12790  0.75930  Biso   1.000  H
  C113     1.0000 0.19858  0.28060  0.32439  Biso   1.000  C
  C114     1.0000 0.80142  0.28060  0.17561  Biso   1.000  C
  C115     1.0000 0.69858  0.78060  0.32439  Biso   1.000  C
  C116     1.0000 0.30142  0.78060  0.17561  Biso   1.000  C
  C117     1.0000 0.80142  0.71940  0.67561  Biso   1.000  C
  C118     1.0000 0.19858  0.71940  0.82439  Biso   1.000  C
  C119     1.0000 0.30142  0.21940  0.67561  Biso   1.000  C
  C120     1.0000 0.69858  0.21940  0.82439  Biso   1.000  C
  C121     1.0000 0.16885  0.21960  0.34945  Biso   1.000  C
  C122     1.0000 0.83115  0.21960  0.15055  Biso   1.000  C
  C123     1.0000 0.66885  0.71960  0.34945  Biso   1.000  C
  C124     1.0000 0.33115  0.71960  0.15055  Biso   1.000  C
  C125     1.0000 0.83115  0.78040  0.65055  Biso   1.000  C
  C126     1.0000 0.16885  0.78040  0.84945  Biso   1.000  C
  C127     1.0000 0.33115  0.28040  0.65055  Biso   1.000  C
  C128     1.0000 0.66885  0.28040  0.84945  Biso   1.000  C
  H57      1.0000 0.18770  0.18550  0.38120  Biso   1.000  H
  H58      1.0000 0.81230  0.18550  0.11880  Biso   1.000  H
  H59      1.0000 0.68770  0.68550  0.38120  Biso   1.000  H
  H60      1.0000 0.31230  0.68550  0.11880  Biso   1.000  H
  H61      1.0000 0.81230  0.81450  0.61880  Biso   1.000  H
  H62      1.0000 0.18770  0.81450  0.88120  Biso   1.000  H
  H63      1.0000 0.31230  0.31450  0.61880  Biso   1.000  H
  H64      1.0000 0.68770  0.31450  0.88120  Biso   1.000  H
  C129     1.0000 0.11158  0.20930  0.32715  Biso   1.000  C
  C130     1.0000 0.88842  0.20930  0.17285  Biso   1.000  C
  C131     1.0000 0.61158  0.70930  0.32715  Biso   1.000  C
  C132     1.0000 0.38842  0.70930  0.17285  Biso   1.000  C
  C133     1.0000 0.88842  0.79070  0.67285  Biso   1.000  C
  C134     1.0000 0.11158  0.79070  0.82715  Biso   1.000  C
  C135     1.0000 0.38842  0.29070  0.67285  Biso   1.000  C
  C136     1.0000 0.61158  0.29070  0.82715  Biso   1.000  C
  H65      1.0000 0.09210  0.16730  0.34410  Biso   1.000  H
  H66      1.0000 0.90790  0.16730  0.15590  Biso   1.000  H
  H67      1.0000 0.59210  0.66730  0.34410  Biso   1.000  H
  H68      1.0000 0.40790  0.66730  0.15590  Biso   1.000  H
  H69      1.0000 0.90790  0.83270  0.65590  Biso   1.000  H
  H70      1.0000 0.09210  0.83270  0.84410  Biso   1.000  H
  H71      1.0000 0.40790  0.33270  0.65590  Biso   1.000  H
  H72      1.0000 0.59210  0.33270  0.84410  Biso   1.000  H
  C137     1.0000 0.07491  0.37360  0.20762  Biso   1.000  C
  C138     1.0000 0.92509  0.37360  0.29238  Biso   1.000  C
  C139     1.0000 0.57491  0.87360  0.20762  Biso   1.000  C
  C140     1.0000 0.42509  0.87360  0.29238  Biso   1.000  C
  C141     1.0000 0.92509  0.62640  0.79238  Biso   1.000  C
  C142     1.0000 0.07491  0.62640  0.70762  Biso   1.000  C
  C143     1.0000 0.42509  0.12640  0.79238  Biso   1.000  C
  C144     1.0000 0.57491  0.12640  0.70762  Biso   1.000  C
  C145     1.0000 0.09612  0.43880  0.17700  Biso   1.000  C
  C146     1.0000 0.90388  0.43880  0.32300  Biso   1.000  C
  C147     1.0000 0.59612  0.93880  0.17700  Biso   1.000  C
  C148     1.0000 0.40388  0.93880  0.32300  Biso   1.000  C
  C149     1.0000 0.90388  0.56120  0.82300  Biso   1.000  C
  C150     1.0000 0.09612  0.56120  0.67700  Biso   1.000  C
  C151     1.0000 0.40388  0.06120  0.82300  Biso   1.000  C
  C152     1.0000 0.59612  0.06120  0.67700  Biso   1.000  C
  H73      1.0000 0.13480  0.44790  0.18530  Biso   1.000  H
  H74      1.0000 0.86520  0.44790  0.31470  Biso   1.000  H
  H75      1.0000 0.63480  0.94790  0.18530  Biso   1.000  H
  H76      1.0000 0.36520  0.94790  0.31470  Biso   1.000  H
  H77      1.0000 0.86520  0.55210  0.81470  Biso   1.000  H
  H78      1.0000 0.13480  0.55210  0.68530  Biso   1.000  H
  H79      1.0000 0.36520  0.05210  0.81470  Biso   1.000  H
  H80      1.0000 0.63480  0.05210  0.68530  Biso   1.000  H
  C153     1.0000 0.05917  0.49120  0.13366  Biso   1.000  C
  C154     1.0000 0.94083  0.49120  0.36634  Biso   1.000  C
  C155     1.0000 0.55917  0.99120  0.13366  Biso   1.000  C
  C156     1.0000 0.44083  0.99120  0.36634  Biso   1.000  C
  C157     1.0000 0.94083  0.50880  0.86634  Biso   1.000  C
  C158     1.0000 0.05917  0.50880  0.63366  Biso   1.000  C
  C159     1.0000 0.44083  0.00880  0.86634  Biso   1.000  C
  C160     1.0000 0.55917  0.00880  0.63366  Biso   1.000  C
  C161     1.0000 0.00175  0.47400  0.12189  Biso   1.000  C
  C162     1.0000 0.99825  0.47400  0.37811  Biso   1.000  C
  C163     1.0000 0.50175  0.97400  0.12189  Biso   1.000  C
  C164     1.0000 0.49825  0.97400  0.37811  Biso   1.000  C
  C165     1.0000 0.99825  0.52600  0.87811  Biso   1.000  C
  C166     1.0000 0.00175  0.52600  0.62189  Biso   1.000  C
  C167     1.0000 0.49825  0.02600  0.87811  Biso   1.000  C
  C168     1.0000 0.50175  0.02600  0.62189  Biso   1.000  C
  H81      1.0000 0.97600  0.50810  0.09320  Biso   1.000  H
  H82      1.0000 0.02400  0.50810  0.40680  Biso   1.000  H
  H83      1.0000 0.47600  0.00810  0.09320  Biso   1.000  H
  H84      1.0000 0.52400  0.00810  0.40680  Biso   1.000  H
  H85      1.0000 0.02400  0.49190  0.90680  Biso   1.000  H
  H86      1.0000 0.97600  0.49190  0.59320  Biso   1.000  H
  H87      1.0000 0.52400  0.99190  0.90680  Biso   1.000  H
  H88      1.0000 0.47600  0.99190  0.59320  Biso   1.000  H
  C169     1.0000 0.98378  0.40550  0.15351  Biso   1.000  C
  C170     1.0000 0.01622  0.40550  0.34649  Biso   1.000  C
  C171     1.0000 0.48378  0.90550  0.15351  Biso   1.000  C
  C172     1.0000 0.51622  0.90550  0.34649  Biso   1.000  C
  C173     1.0000 0.01622  0.59450  0.84649  Biso   1.000  C
  C174     1.0000 0.98378  0.59450  0.65351  Biso   1.000  C
  C175     1.0000 0.51622  0.09450  0.84649  Biso   1.000  C
  C176     1.0000 0.48378  0.09450  0.65351  Biso   1.000  C
  H89      1.0000 0.94540  0.39300  0.14500  Biso   1.000  H
  H90      1.0000 0.05460  0.39300  0.35500  Biso   1.000  H
  H91      1.0000 0.44540  0.89300  0.14500  Biso   1.000  H
  H92      1.0000 0.55460  0.89300  0.35500  Biso   1.000  H
  H93      1.0000 0.05460  0.60700  0.85500  Biso   1.000  H
  H94      1.0000 0.94540  0.60700  0.64500  Biso   1.000  H
  H95      1.0000 0.55460  0.10700  0.85500  Biso   1.000  H
  H96      1.0000 0.44540  0.10700  0.64500  Biso   1.000  H
  C177     1.0000 0.26159  0.29390  0.34941  Biso   1.000  C
  C178     1.0000 0.73841  0.29390  0.15059  Biso   1.000  C
  C179     1.0000 0.76159  0.79390  0.34941  Biso   1.000  C
  C180     1.0000 0.23841  0.79390  0.15059  Biso   1.000  C
  C181     1.0000 0.73841  0.70610  0.65059  Biso   1.000  C
  C182     1.0000 0.26159  0.70610  0.84941  Biso   1.000  C
  C183     1.0000 0.23841  0.20610  0.65059  Biso   1.000  C
  C184     1.0000 0.76159  0.20610  0.84941  Biso   1.000  C
  C185     1.0000 0.08198  0.56590  0.10130  Biso   1.000  C
  C186     1.0000 0.91802  0.56590  0.39870  Biso   1.000  C
  C187     1.0000 0.58198  0.06590  0.10130  Biso   1.000  C
  C188     1.0000 0.41802  0.06590  0.39870  Biso   1.000  C
  C189     1.0000 0.91802  0.43410  0.89870  Biso   1.000  C
  C190     1.0000 0.08198  0.43410  0.60130  Biso   1.000  C
  C191     1.0000 0.41802  0.93410  0.89870  Biso   1.000  C
  C192     1.0000 0.58198  0.93410  0.60130  Biso   1.000  C
  C193     1.0000 0.30658  0.80590  0.57210  Biso   1.000  C
  C194     1.0000 0.69342  0.80590  0.92790  Biso   1.000  C
  C195     1.0000 0.80658  0.30590  0.57210  Biso   1.000  C
  C196     1.0000 0.19342  0.30590  0.92790  Biso   1.000  C
  C197     1.0000 0.69342  0.19410  0.42790  Biso   1.000  C
  C198     1.0000 0.30658  0.19410  0.07210  Biso   1.000  C
  C199     1.0000 0.19342  0.69410  0.42790  Biso   1.000  C
  C200     1.0000 0.80658  0.69410  0.07210  Biso   1.000  C
  C201     1.0000 0.33183  0.88100  0.54889  Biso   1.000  C
  C202     1.0000 0.66817  0.88100  0.95111  Biso   1.000  C
  C203     1.0000 0.83183  0.38100  0.54889  Biso   1.000  C
  C204     1.0000 0.16817  0.38100  0.95111  Biso   1.000  C
  C205     1.0000 0.66817  0.11900  0.45111  Biso   1.000  C
  C206     1.0000 0.33183  0.11900  0.04889  Biso   1.000  C
  C207     1.0000 0.16817  0.61900  0.45111  Biso   1.000  C
  C208     1.0000 0.83183  0.61900  0.04889  Biso   1.000  C
  H97      1.0000 0.35670  0.85900  0.53170  Biso   1.000  H
  H98      1.0000 0.64330  0.85900  0.96830  Biso   1.000  H
  H99      1.0000 0.85670  0.35900  0.53170  Biso   1.000  H
  H100     1.0000 0.14330  0.35900  0.96830  Biso   1.000  H
  H101     1.0000 0.64330  0.14100  0.46830  Biso   1.000  H
  H102     1.0000 0.35670  0.14100  0.03170  Biso   1.000  H
  H103     1.0000 0.14330  0.64100  0.46830  Biso   1.000  H
  H104     1.0000 0.85670  0.64100  0.03170  Biso   1.000  H
  C209     1.0000 0.31959  0.98950  0.55159  Biso   1.000  C
  C210     1.0000 0.68041  0.98950  0.94841  Biso   1.000  C
  C211     1.0000 0.81959  0.48950  0.55159  Biso   1.000  C
  C212     1.0000 0.18041  0.48950  0.94841  Biso   1.000  C
  C213     1.0000 0.68041  0.01050  0.44841  Biso   1.000  C
  C214     1.0000 0.31959  0.01050  0.05159  Biso   1.000  C
  C215     1.0000 0.18041  0.51050  0.44841  Biso   1.000  C
  C216     1.0000 0.81959  0.51050  0.05159  Biso   1.000  C
  C217     1.0000 0.28442  0.01930  0.57957  Biso   1.000  C
  C218     1.0000 0.71558  0.01930  0.92043  Biso   1.000  C
  C219     1.0000 0.78442  0.51930  0.57957  Biso   1.000  C
  C220     1.0000 0.21558  0.51930  0.92043  Biso   1.000  C
  C221     1.0000 0.71558  0.98070  0.42043  Biso   1.000  C
  C222     1.0000 0.28442  0.98070  0.07957  Biso   1.000  C
  C223     1.0000 0.21558  0.48070  0.42043  Biso   1.000  C
  C224     1.0000 0.78442  0.48070  0.07957  Biso   1.000  C
  H105     1.0000 0.27460  0.09120  0.58110  Biso   1.000  H
  H106     1.0000 0.72540  0.09120  0.91890  Biso   1.000  H
  H107     1.0000 0.77460  0.59120  0.58110  Biso   1.000  H
  H108     1.0000 0.22540  0.59120  0.91890  Biso   1.000  H
  H109     1.0000 0.72540  0.90880  0.41890  Biso   1.000  H
  H110     1.0000 0.27460  0.90880  0.08110  Biso   1.000  H
  H111     1.0000 0.22540  0.40880  0.41890  Biso   1.000  H
  H112     1.0000 0.77460  0.40880  0.08110  Biso   1.000  H
  C225     1.0000 0.26425  0.94190  0.60513  Biso   1.000  C
  C226     1.0000 0.73575  0.94190  0.89487  Biso   1.000  C
  C227     1.0000 0.76425  0.44190  0.60513  Biso   1.000  C
  C228     1.0000 0.23575  0.44190  0.89487  Biso   1.000  C
  C229     1.0000 0.73575  0.05810  0.39487  Biso   1.000  C
  C230     1.0000 0.26425  0.05810  0.10513  Biso   1.000  C
  C231     1.0000 0.23575  0.55810  0.39487  Biso   1.000  C
  C232     1.0000 0.76425  0.55810  0.10513  Biso   1.000  C
  H113     1.0000 0.24310  0.96320  0.62600  Biso   1.000  H
  H114     1.0000 0.75690  0.96320  0.87400  Biso   1.000  H
  H115     1.0000 0.74310  0.46320  0.62600  Biso   1.000  H
  H116     1.0000 0.25690  0.46320  0.87400  Biso   1.000  H
  H117     1.0000 0.75690  0.03680  0.37400  Biso   1.000  H
  H118     1.0000 0.24310  0.03680  0.12600  Biso   1.000  H
  H119     1.0000 0.25690  0.53680  0.37400  Biso   1.000  H
  H120     1.0000 0.74310  0.53680  0.12600  Biso   1.000  H
  C233     1.0000 0.30919  0.68770  0.56390  Biso   1.000  C
  C234     1.0000 0.69081  0.68770  0.93610  Biso   1.000  C
  C235     1.0000 0.80919  0.18770  0.56390  Biso   1.000  C
  C236     1.0000 0.19081  0.18770  0.93610  Biso   1.000  C
  C237     1.0000 0.69081  0.31230  0.43610  Biso   1.000  C
  C238     1.0000 0.30919  0.31230  0.06390  Biso   1.000  C
  C239     1.0000 0.19081  0.81230  0.43610  Biso   1.000  C
  C240     1.0000 0.80919  0.81230  0.06390  Biso   1.000  C
  C241     1.0000 0.33875  0.64070  0.53424  Biso   1.000  C
  C242     1.0000 0.66125  0.64070  0.96576  Biso   1.000  C
  C243     1.0000 0.83875  0.14070  0.53424  Biso   1.000  C
  C244     1.0000 0.16125  0.14070  0.96576  Biso   1.000  C
  C245     1.0000 0.66125  0.35930  0.46576  Biso   1.000  C
  C246     1.0000 0.33875  0.35930  0.03424  Biso   1.000  C
  C247     1.0000 0.16125  0.85930  0.46576  Biso   1.000  C
  C248     1.0000 0.83875  0.85930  0.03424  Biso   1.000  C
  H121     1.0000 0.36130  0.68290  0.52060  Biso   1.000  H
  H122     1.0000 0.63870  0.68290  0.97940  Biso   1.000  H
  H123     1.0000 0.86130  0.18290  0.52060  Biso   1.000  H
  H124     1.0000 0.13870  0.18290  0.97940  Biso   1.000  H
  H125     1.0000 0.63870  0.31710  0.47940  Biso   1.000  H
  H126     1.0000 0.36130  0.31710  0.02060  Biso   1.000  H
  H127     1.0000 0.13870  0.81710  0.47940  Biso   1.000  H
  H128     1.0000 0.86130  0.81710  0.02060  Biso   1.000  H
  C249     1.0000 0.33446  0.53060  0.52478  Biso   1.000  C
  C250     1.0000 0.66554  0.53060  0.97522  Biso   1.000  C
  C251     1.0000 0.83446  0.03060  0.52478  Biso   1.000  C
  C252     1.0000 0.16554  0.03060  0.97522  Biso   1.000  C
  C253     1.0000 0.66554  0.46940  0.47522  Biso   1.000  C
  C254     1.0000 0.33446  0.46940  0.02478  Biso   1.000  C
  C255     1.0000 0.16554  0.96940  0.47522  Biso   1.000  C
  C256     1.0000 0.83446  0.96940  0.02478  Biso   1.000  C
  C257     1.0000 0.30050  0.47030  0.54623  Biso   1.000  C
  C258     1.0000 0.69950  0.47030  0.95377  Biso   1.000  C
  C259     1.0000 0.80050  0.97030  0.54623  Biso   1.000  C
  C260     1.0000 0.19950  0.97030  0.95377  Biso   1.000  C
  C261     1.0000 0.69950  0.52970  0.45377  Biso   1.000  C
  C262     1.0000 0.30050  0.52970  0.04623  Biso   1.000  C
  C263     1.0000 0.19950  0.02970  0.45377  Biso   1.000  C
  C264     1.0000 0.80050  0.02970  0.04623  Biso   1.000  C
  H129     1.0000 0.29580  0.39670  0.53980  Biso   1.000  H
  H130     1.0000 0.70420  0.39670  0.96020  Biso   1.000  H
  H131     1.0000 0.79580  0.89670  0.53980  Biso   1.000  H
  H132     1.0000 0.20420  0.89670  0.96020  Biso   1.000  H
  H133     1.0000 0.70420  0.60330  0.46020  Biso   1.000  H
  H134     1.0000 0.29580  0.60330  0.03980  Biso   1.000  H
  H135     1.0000 0.20420  0.10330  0.46020  Biso   1.000  H
  H136     1.0000 0.79580  0.10330  0.03980  Biso   1.000  H
  C265     1.0000 0.27389  0.52140  0.57711  Biso   1.000  C
  C266     1.0000 0.72611  0.52140  0.92289  Biso   1.000  C
  C267     1.0000 0.77389  0.02140  0.57711  Biso   1.000  C
  C268     1.0000 0.22611  0.02140  0.92289  Biso   1.000  C
  C269     1.0000 0.72611  0.47860  0.42289  Biso   1.000  C
  C270     1.0000 0.27389  0.47860  0.07711  Biso   1.000  C
  C271     1.0000 0.22611  0.97860  0.42289  Biso   1.000  C
  C272     1.0000 0.77389  0.97860  0.07711  Biso   1.000  C
  H137     1.0000 0.25240  0.48060  0.59240  Biso   1.000  H
  H138     1.0000 0.74760  0.48060  0.90760  Biso   1.000  H
  H139     1.0000 0.75240  0.98060  0.59240  Biso   1.000  H
  H140     1.0000 0.24760  0.98060  0.90760  Biso   1.000  H
  H141     1.0000 0.74760  0.51940  0.40760  Biso   1.000  H
  H142     1.0000 0.25240  0.51940  0.09240  Biso   1.000  H
  H143     1.0000 0.24760  0.01940  0.40760  Biso   1.000  H
  H144     1.0000 0.75240  0.01940  0.09240  Biso   1.000  H
  C273     1.0000 0.34072  0.07100  0.52057  Biso   1.000  C
  C274     1.0000 0.65928  0.07100  0.97943  Biso   1.000  C
  C275     1.0000 0.84072  0.57100  0.52057  Biso   1.000  C
  C276     1.0000 0.15928  0.57100  0.97943  Biso   1.000  C
  C277     1.0000 0.65928  0.92900  0.47943  Biso   1.000  C
  C278     1.0000 0.34072  0.92900  0.02057  Biso   1.000  C
  C279     1.0000 0.15928  0.42900  0.47943  Biso   1.000  C
  C280     1.0000 0.84072  0.42900  0.02057  Biso   1.000  C
  C281     1.0000 0.36608  0.47860  0.49168  Biso   1.000  C
  C282     1.0000 0.63392  0.47860  0.00832  Biso   1.000  C
  C283     1.0000 0.86608  0.97860  0.49168  Biso   1.000  C
  C284     1.0000 0.13392  0.97860  0.00832  Biso   1.000  C
  C285     1.0000 0.63392  0.52140  0.50832  Biso   1.000  C
  C286     1.0000 0.36608  0.52140  0.99168  Biso   1.000  C
  C287     1.0000 0.13392  0.02140  0.50832  Biso   1.000  C
  C288     1.0000 0.86608  0.02140  0.99168  Biso   1.000  C
  N1       1.0000 0.73390  0.30310  0.68985  Biso   1.000  N
  N2       1.0000 0.26610  0.30310  0.81015  Biso   1.000  N
  N3       1.0000 0.23390  0.80310  0.68985  Biso   1.000  N
  N4       1.0000 0.76610  0.80310  0.81015  Biso   1.000  N
  N5       1.0000 0.26610  0.69690  0.31015  Biso   1.000  N
  N6       1.0000 0.73390  0.69690  0.18985  Biso   1.000  N
  N7       1.0000 0.76610  0.19690  0.31015  Biso   1.000  N
  N8       1.0000 0.23390  0.19690  0.18985  Biso   1.000  N
  N9       1.0000 0.65575  0.23020  0.60470  Biso   1.000  N
  N10      1.0000 0.34425  0.23020  0.89530  Biso   1.000  N
  N11      1.0000 0.15575  0.73020  0.60470  Biso   1.000  N
  N12      1.0000 0.84425  0.73020  0.89530  Biso   1.000  N
  N13      1.0000 0.34425  0.76980  0.39530  Biso   1.000  N
  N14      1.0000 0.65575  0.76980  0.10470  Biso   1.000  N
  N15      1.0000 0.84425  0.26980  0.39530  Biso   1.000  N
  N16      1.0000 0.15575  0.26980  0.10470  Biso   1.000  N
  N17      1.0000 0.08275  0.25820  0.28142  Biso   1.000  N
  N18      1.0000 0.91725  0.25820  0.21858  Biso   1.000  N
  N19      1.0000 0.58275  0.75820  0.28142  Biso   1.000  N
  N20      1.0000 0.41725  0.75820  0.21858  Biso   1.000  N
  N21      1.0000 0.91725  0.74180  0.71858  Biso   1.000  N
  N22      1.0000 0.08275  0.74180  0.78142  Biso   1.000  N
  N23      1.0000 0.41725  0.24180  0.71858  Biso   1.000  N
  N24      1.0000 0.58275  0.24180  0.78142  Biso   1.000  N
  N25      1.0000 0.01909  0.35610  0.19592  Biso   1.000  N
  N26      1.0000 0.98091  0.35610  0.30408  Biso   1.000  N
  N27      1.0000 0.51909  0.85610  0.19592  Biso   1.000  N
  N28      1.0000 0.48091  0.85610  0.30408  Biso   1.000  N
  N29      1.0000 0.98091  0.64390  0.80408  Biso   1.000  N
  N30      1.0000 0.01909  0.64390  0.69592  Biso   1.000  N
  N31      1.0000 0.48091  0.14390  0.80408  Biso   1.000  N
  N32      1.0000 0.51909  0.14390  0.69592  Biso   1.000  N
  N33      1.0000 0.27403  0.83590  0.60104  Biso   1.000  N
  N34      1.0000 0.72597  0.83590  0.89896  Biso   1.000  N
  N35      1.0000 0.77403  0.33590  0.60104  Biso   1.000  N
  N36      1.0000 0.22597  0.33590  0.89896  Biso   1.000  N
  N37      1.0000 0.72597  0.16410  0.39896  Biso   1.000  N
  N38      1.0000 0.27403  0.16410  0.10104  Biso   1.000  N
  N39      1.0000 0.22597  0.66410  0.39896  Biso   1.000  N
  N40      1.0000 0.77403  0.66410  0.10104  Biso   1.000  N
  N41      1.0000 0.27788  0.62810  0.58600  Biso   1.000  N
  N42      1.0000 0.72212  0.62810  0.91400  Biso   1.000  N
  N43      1.0000 0.77788  0.12810  0.58600  Biso   1.000  N
  N44      1.0000 0.22212  0.12810  0.91400  Biso   1.000  N
  N45      1.0000 0.72212  0.37190  0.41400  Biso   1.000  N
  N46      1.0000 0.27788  0.37190  0.08600  Biso   1.000  N
  N47      1.0000 0.22212  0.87190  0.41400  Biso   1.000  N
  N48      1.0000 0.77788  0.87190  0.08600  Biso   1.000  N
  O1       1.0000 0.75519  0.58210  0.82388  Biso   1.000  O
  O2       1.0000 0.24481  0.58210  0.67612  Biso   1.000  O
  O3       1.0000 0.25519  0.08210  0.82388  Biso   1.000  O
  O4       1.0000 0.74481  0.08210  0.67612  Biso   1.000  O
  O5       1.0000 0.24481  0.41790  0.17612  Biso   1.000  O
  O6       1.0000 0.75519  0.41790  0.32388  Biso   1.000  O
  O7       1.0000 0.74481  0.91790  0.17612  Biso   1.000  O
  O8       1.0000 0.25519  0.91790  0.32388  Biso   1.000  O
  O9       1.0000 0.66238  0.59090  0.78321  Biso   1.000  O
  O10      1.0000 0.33762  0.59090  0.71679  Biso   1.000  O
  O11      1.0000 0.16238  0.09090  0.78321  Biso   1.000  O
  O12      1.0000 0.83762  0.09090  0.71679  Biso   1.000  O
  O13      1.0000 0.33762  0.40910  0.21679  Biso   1.000  O
  O14      1.0000 0.66238  0.40910  0.28321  Biso   1.000  O
  O15      1.0000 0.83762  0.90910  0.21679  Biso   1.000  O
  O16      1.0000 0.16238  0.90910  0.28321  Biso   1.000  O
  O17      1.0000 0.46419  0.36580  0.59394  Biso   1.000  O
  O18      1.0000 0.53581  0.36580  0.90606  Biso   1.000  O
  O19      1.0000 0.96419  0.86580  0.59394  Biso   1.000  O
  O20      1.0000 0.03581  0.86580  0.90606  Biso   1.000  O
  O21      1.0000 0.53581  0.63420  0.40606  Biso   1.000  O
  O22      1.0000 0.46419  0.63420  0.09394  Biso   1.000  O
  O23      1.0000 0.03581  0.13420  0.40606  Biso   1.000  O
  O24      1.0000 0.96419  0.13420  0.09394  Biso   1.000  O
  O25      1.0000 0.44739  0.25170  0.52708  Biso   1.000  O
  O26      1.0000 0.55261  0.25170  0.97292  Biso   1.000  O
  O27      1.0000 0.94739  0.75170  0.52708  Biso   1.000  O
  O28      1.0000 0.05261  0.75170  0.97292  Biso   1.000  O
  O29      1.0000 0.55261  0.74830  0.47292  Biso   1.000  O
  O30      1.0000 0.44739  0.74830  0.02708  Biso   1.000  O
  O31      1.0000 0.05261  0.24830  0.47292  Biso   1.000  O
  O32      1.0000 0.94739  0.24830  0.02708  Biso   1.000  O
  O33      1.0000 0.28393  0.23798  0.39068  Biso   1.000  O
  O34      1.0000 0.71607  0.23798  0.10932  Biso   1.000  O
  O35      1.0000 0.78393  0.73798  0.39068  Biso   1.000  O
  O36      1.0000 0.21607  0.73798  0.10932  Biso   1.000  O
  O37      1.0000 0.71607  0.76202  0.60932  Biso   1.000  O
  O38      1.0000 0.28393  0.76202  0.89068  Biso   1.000  O
  O39      1.0000 0.21607  0.26202  0.60932  Biso   1.000  O
  O40      1.0000 0.78393  0.26202  0.89068  Biso   1.000  O
  O41      1.0000 0.28598  0.35870  0.32906  Biso   1.000  O
  O42      1.0000 0.71402  0.35870  0.17094  Biso   1.000  O
  O43      1.0000 0.78598  0.85870  0.32906  Biso   1.000  O
  O44      1.0000 0.21402  0.85870  0.17094  Biso   1.000  O
  O45      1.0000 0.71402  0.64130  0.67094  Biso   1.000  O
  O46      1.0000 0.28598  0.64130  0.82906  Biso   1.000  O
  O47      1.0000 0.21402  0.14130  0.67094  Biso   1.000  O
  O48      1.0000 0.78598  0.14130  0.82906  Biso   1.000  O
  O49      1.0000 0.13446  0.57474  0.11274  Biso   1.000  O
  O50      1.0000 0.86554  0.57474  0.38726  Biso   1.000  O
  O51      1.0000 0.63446  0.07474  0.11274  Biso   1.000  O
  O52      1.0000 0.36554  0.07474  0.38726  Biso   1.000  O
  O53      1.0000 0.86554  0.42526  0.88726  Biso   1.000  O
  O54      1.0000 0.13446  0.42526  0.61274  Biso   1.000  O
  O55      1.0000 0.36554  0.92526  0.88726  Biso   1.000  O
  O56      1.0000 0.63446  0.92526  0.61274  Biso   1.000  O
  O57      1.0000 0.04801  0.61841  0.06421  Biso   1.000  O
  O58      1.0000 0.95199  0.61841  0.43579  Biso   1.000  O
  O59      1.0000 0.54801  0.11841  0.06421  Biso   1.000  O
  O60      1.0000 0.45199  0.11841  0.43579  Biso   1.000  O
  O61      1.0000 0.95199  0.38159  0.93579  Biso   1.000  O
  O62      1.0000 0.04801  0.38159  0.56421  Biso   1.000  O
  O63      1.0000 0.45199  0.88159  0.93579  Biso   1.000  O
  O64      1.0000 0.54801  0.88159  0.56421  Biso   1.000  O
  O65      1.0000 0.31987  0.16395  0.51385  Biso   1.000  O
  O66      1.0000 0.68013  0.16395  0.98615  Biso   1.000  O
  O67      1.0000 0.81987  0.66395  0.51385  Biso   1.000  O
  O68      1.0000 0.18013  0.66395  0.98615  Biso   1.000  O
  O69      1.0000 0.68013  0.83605  0.48615  Biso   1.000  O
  O70      1.0000 0.31987  0.83605  0.01385  Biso   1.000  O
  O71      1.0000 0.18013  0.33605  0.48615  Biso   1.000  O
  O72      1.0000 0.81987  0.33605  0.01385  Biso   1.000  O
  O73      1.0000 0.37708  0.04073  0.50045  Biso   1.000  O
  O74      1.0000 0.62292  0.04073  0.99955  Biso   1.000  O
  O75      1.0000 0.87708  0.54073  0.50045  Biso   1.000  O
  O76      1.0000 0.12292  0.54073  0.99955  Biso   1.000  O
  O77      1.0000 0.62292  0.95927  0.49955  Biso   1.000  O
  O78      1.0000 0.37708  0.95927  0.00045  Biso   1.000  O
  O79      1.0000 0.12292  0.45927  0.49955  Biso   1.000  O
  O80      1.0000 0.87708  0.45927  0.00045  Biso   1.000  O
  O81      1.0000 0.40537  0.53060  0.48458  Biso   1.000  O
  O82      1.0000 0.59463  0.53060  0.01542  Biso   1.000  O
  O83      1.0000 0.90537  0.03060  0.48458  Biso   1.000  O
  O84      1.0000 0.09463  0.03060  0.01542  Biso   1.000  O
  O85      1.0000 0.59463  0.46940  0.51542  Biso   1.000  O
  O86      1.0000 0.40537  0.46940  0.98458  Biso   1.000  O
  O87      1.0000 0.09463  0.96940  0.51542  Biso   1.000  O
  O88      1.0000 0.90537  0.96940  0.98458  Biso   1.000  O
  O89      1.0000 0.34905  0.38658  0.47349  Biso   1.000  O
  O90      1.0000 0.65095  0.38658  0.02651  Biso   1.000  O
  O91      1.0000 0.84905  0.88658  0.47349  Biso   1.000  O
  O92      1.0000 0.15095  0.88658  0.02651  Biso   1.000  O
  O93      1.0000 0.65095  0.61342  0.52651  Biso   1.000  O
  O94      1.0000 0.34905  0.61342  0.97349  Biso   1.000  O
  O95      1.0000 0.15095  0.11342  0.52651  Biso   1.000  O
  O96      1.0000 0.84905  0.11342  0.97349  Biso   1.000  O
  O97      1.0000 0.39298  0.31300  0.38325  Biso   1.000  O
  O98      1.0000 0.60702  0.31300  0.11675  Biso   1.000  O
  O99      1.0000 0.89298  0.81300  0.38325  Biso   1.000  O
  O100     1.0000 0.10702  0.81300  0.11675  Biso   1.000  O
  O101     1.0000 0.60702  0.68700  0.61675  Biso   1.000  O
  O102     1.0000 0.39298  0.68700  0.88325  Biso   1.000  O
  O103     1.0000 0.10702  0.18700  0.61675  Biso   1.000  O
  O104     1.0000 0.89298  0.18700  0.88325  Biso   1.000  O
  O105     1.0000 0.99190  0.10520  0.29943  Biso   1.000  O
  O106     1.0000 0.00810  0.10520  0.20057  Biso   1.000  O
  O107     1.0000 0.49190  0.60520  0.29943  Biso   1.000  O
  O108     1.0000 0.50810  0.60520  0.20057  Biso   1.000  O
  O109     1.0000 0.00810  0.89480  0.70057  Biso   1.000  O
  O110     1.0000 0.99190  0.89480  0.79943  Biso   1.000  O
  O111     1.0000 0.50810  0.39480  0.70057  Biso   1.000  O
  O112     1.0000 0.49190  0.39480  0.79943  Biso   1.000  O
  O113     1.0000 0.52462  0.44440  0.06368  Biso   1.000  O
  O114     1.0000 0.47538  0.44440  0.43632  Biso   1.000  O
  O115     1.0000 0.02462  0.94440  0.06368  Biso   1.000  O
  O116     1.0000 0.97538  0.94440  0.43632  Biso   1.000  O
  O117     1.0000 0.47538  0.55560  0.93632  Biso   1.000  O
  O118     1.0000 0.52462  0.55560  0.56368  Biso   1.000  O
  O119     1.0000 0.97538  0.05560  0.93632  Biso   1.000  O
  O120     1.0000 0.02462  0.05560  0.56368  Biso   1.000  O
  O121     1.0000 0.46063  0.75130  0.56861  Biso   1.000  O
  O122     1.0000 0.53937  0.75130  0.93139  Biso   1.000  O
  O123     1.0000 0.96063  0.25130  0.56861  Biso   1.000  O
  O124     1.0000 0.03937  0.25130  0.93139  Biso   1.000  O
  O125     1.0000 0.53937  0.24870  0.43139  Biso   1.000  O
  O126     1.0000 0.46063  0.24870  0.06861  Biso   1.000  O
  O127     1.0000 0.03937  0.74870  0.43139  Biso   1.000  O
  O128     1.0000 0.96063  0.74870  0.06861  Biso   1.000  O
  O129     1.0000 0.41430  0.23780  0.29260  Biso   1.000  O
  O130     1.0000 0.58570  0.23780  0.20740  Biso   1.000  O
  O131     1.0000 0.91430  0.73780  0.29260  Biso   1.000  O
  O132     1.0000 0.08570  0.73780  0.20740  Biso   1.000  O
  O133     1.0000 0.58570  0.76220  0.70740  Biso   1.000  O
  O134     1.0000 0.41430  0.76220  0.79260  Biso   1.000  O
  O135     1.0000 0.08570  0.26220  0.70740  Biso   1.000  O
  O136     1.0000 0.91430  0.26220  0.79260  Biso   1.000  O
  O137     1.0000 0.97400  0.76100  0.17239  Biso   1.000  O
  O138     1.0000 0.02600  0.76100  0.32761  Biso   1.000  O
  O139     1.0000 0.47400  0.26100  0.17239  Biso   1.000  O
  O140     1.0000 0.52600  0.26100  0.32761  Biso   1.000  O
  O141     1.0000 0.02600  0.23900  0.82761  Biso   1.000  O
  O142     1.0000 0.97400  0.23900  0.67239  Biso   1.000  O
  O143     1.0000 0.52600  0.73900  0.82761  Biso   1.000  O
  O144     1.0000 0.47400  0.73900  0.67239  Biso   1.000  O
  O145     1.0000 0.06610  0.94540  0.30940  Biso   1.000  O
  O146     1.0000 0.93390  0.94540  0.19060  Biso   1.000  O
  O147     1.0000 0.56610  0.44540  0.30940  Biso   1.000  O
  O148     1.0000 0.43390  0.44540  0.19060  Biso   1.000  O
  O149     1.0000 0.93390  0.05460  0.69060  Biso   1.000  O
  O150     1.0000 0.06610  0.05460  0.80940  Biso   1.000  O
  O151     1.0000 0.43390  0.55460  0.69060  Biso   1.000  O
  O152     1.0000 0.56610  0.55460  0.80940  Biso   1.000  O
  O153     1.0000 0.00000  0.09210  0.25000  Biso   1.000  O
  O154     1.0000 0.50000  0.59210  0.25000  Biso   1.000  O
  O155     1.0000 0.00000  0.90790  0.75000  Biso   1.000  O
  O156     1.0000 0.50000  0.40790  0.75000  Biso   1.000  O
  O157     1.0000 0.88820  0.74050  0.19040  Biso   1.000  O
  O158     1.0000 0.11180  0.74050  0.30960  Biso   1.000  O
  O159     1.0000 0.38820  0.24050  0.19040  Biso   1.000  O
  O160     1.0000 0.61180  0.24050  0.30960  Biso   1.000  O
  O161     1.0000 0.11180  0.25950  0.80960  Biso   1.000  O
  O162     1.0000 0.88820  0.25950  0.69040  Biso   1.000  O
  O163     1.0000 0.61180  0.75950  0.80960  Biso   1.000  O
  O164     1.0000 0.38820  0.75950  0.69040  Biso   1.000  O
