data_image0
_cell_length_a       24.83
_cell_length_b       12.258
_cell_length_c       26.898
_cell_angle_alpha    90
_cell_angle_beta     109.41
_cell_angle_gamma    90

_symmetry_space_group_name_H-M    "P 1"
_symmetry_int_tables_number       1

loop_
  _symmetry_equiv_pos_as_xyz
  'x, y, z'

loop_
  _atom_site_label
  _atom_site_occupancy
  _atom_site_fract_x
  _atom_site_fract_y
  _atom_site_fract_z
  _atom_site_thermal_displace_type
  _atom_site_B_iso_or_equiv
  _atom_site_type_symbol
  Lu1      1.0000 0.37299  0.21699  0.95453  Biso   1.000  Lu
  Lu2      1.0000 0.62701  0.21699  0.54547  Biso   1.000  Lu
  Lu3      1.0000 0.87299  0.71699  0.95453  Biso   1.000  Lu
  Lu4      1.0000 0.12701  0.71699  0.54547  Biso   1.000  Lu
  Lu5      1.0000 0.62701  0.78301  0.04547  Biso   1.000  Lu
  Lu6      1.0000 0.37299  0.78301  0.45453  Biso   1.000  Lu
  Lu7      1.0000 0.12701  0.28301  0.04547  Biso   1.000  Lu
  Lu8      1.0000 0.87299  0.28301  0.45453  Biso   1.000  Lu
  Cu1      1.0000 0.74694  0.21319  0.13417  Biso   1.000  Cu
  Cu2      1.0000 0.25306  0.21319  0.36583  Biso   1.000  Cu
  Cu3      1.0000 0.24694  0.71319  0.13417  Biso   1.000  Cu
  Cu4      1.0000 0.75306  0.71319  0.36583  Biso   1.000  Cu
  Cu5      1.0000 0.25306  0.78681  0.86583  Biso   1.000  Cu
  Cu6      1.0000 0.74694  0.78681  0.63417  Biso   1.000  Cu
  Cu7      1.0000 0.75306  0.28681  0.86583  Biso   1.000  Cu
  Cu8      1.0000 0.24694  0.28681  0.63417  Biso   1.000  Cu
  Cu9      1.0000 0.50000  0.75978  0.75000  Biso   1.000  Cu
  Cu10     1.0000 0.00000  0.25978  0.75000  Biso   1.000  Cu
  Cu11     1.0000 0.50000  0.24022  0.25000  Biso   1.000  Cu
  Cu12     1.0000 0.00000  0.74022  0.25000  Biso   1.000  Cu
  C1       1.0000 0.63520  0.30670  0.13175  Biso   1.000  C
  C2       1.0000 0.36480  0.30670  0.36825  Biso   1.000  C
  C3       1.0000 0.13520  0.80670  0.13175  Biso   1.000  C
  C4       1.0000 0.86480  0.80670  0.36825  Biso   1.000  C
  C5       1.0000 0.36480  0.69330  0.86825  Biso   1.000  C
  C6       1.0000 0.63520  0.69330  0.63175  Biso   1.000  C
  C7       1.0000 0.86480  0.19330  0.86825  Biso   1.000  C
  C8       1.0000 0.13520  0.19330  0.63175  Biso   1.000  C
  C9       1.0000 0.57980  0.33290  0.12068  Biso   1.000  C
  C10      1.0000 0.42020  0.33290  0.37932  Biso   1.000  C
  C11      1.0000 0.07980  0.83290  0.12068  Biso   1.000  C
  C12      1.0000 0.92020  0.83290  0.37932  Biso   1.000  C
  C13      1.0000 0.42020  0.66710  0.87932  Biso   1.000  C
  C14      1.0000 0.57980  0.66710  0.62068  Biso   1.000  C
  C15      1.0000 0.92020  0.16710  0.87932  Biso   1.000  C
  C16      1.0000 0.07980  0.16710  0.62068  Biso   1.000  C
  H1       1.0000 0.56870  0.38490  0.14060  Biso   1.000  H
  H2       1.0000 0.43130  0.38490  0.35940  Biso   1.000  H
  H3       1.0000 0.06870  0.88490  0.14060  Biso   1.000  H
  H4       1.0000 0.93130  0.88490  0.35940  Biso   1.000  H
  H5       1.0000 0.43130  0.61510  0.85940  Biso   1.000  H
  H6       1.0000 0.56870  0.61510  0.64060  Biso   1.000  H
  H7       1.0000 0.93130  0.11510  0.85940  Biso   1.000  H
  H8       1.0000 0.06870  0.11510  0.64060  Biso   1.000  H
  C17      1.0000 0.53890  0.27980  0.07830  Biso   1.000  C
  C18      1.0000 0.46110  0.27980  0.42170  Biso   1.000  C
  C19      1.0000 0.03890  0.77980  0.07830  Biso   1.000  C
  C20      1.0000 0.96110  0.77980  0.42170  Biso   1.000  C
  C21      1.0000 0.46110  0.72020  0.92170  Biso   1.000  C
  C22      1.0000 0.53890  0.72020  0.57830  Biso   1.000  C
  C23      1.0000 0.96110  0.22020  0.92170  Biso   1.000  C
  C24      1.0000 0.03890  0.22020  0.57830  Biso   1.000  C
  C25      1.0000 0.55890  0.20370  0.05080  Biso   1.000  C
  C26      1.0000 0.44110  0.20370  0.44920  Biso   1.000  C
  C27      1.0000 0.05890  0.70370  0.05080  Biso   1.000  C
  C28      1.0000 0.94110  0.70370  0.44920  Biso   1.000  C
  C29      1.0000 0.44110  0.79630  0.94920  Biso   1.000  C
  C30      1.0000 0.55890  0.79630  0.55080  Biso   1.000  C
  C31      1.0000 0.94110  0.29630  0.94920  Biso   1.000  C
  C32      1.0000 0.05890  0.29630  0.55080  Biso   1.000  C
  H9       1.0000 0.53330  0.16720  0.02240  Biso   1.000  H
  H10      1.0000 0.46670  0.16720  0.47760  Biso   1.000  H
  H11      1.0000 0.03330  0.66720  0.02240  Biso   1.000  H
  H12      1.0000 0.96670  0.66720  0.47760  Biso   1.000  H
  H13      1.0000 0.46670  0.83280  0.97760  Biso   1.000  H
  H14      1.0000 0.53330  0.83280  0.52240  Biso   1.000  H
  H15      1.0000 0.96670  0.33280  0.97760  Biso   1.000  H
  H16      1.0000 0.03330  0.33280  0.52240  Biso   1.000  H
  C33      1.0000 0.61500  0.18180  0.06470  Biso   1.000  C
  C34      1.0000 0.38500  0.18180  0.43530  Biso   1.000  C
  C35      1.0000 0.11500  0.68180  0.06470  Biso   1.000  C
  C36      1.0000 0.88500  0.68180  0.43530  Biso   1.000  C
  C37      1.0000 0.38500  0.81820  0.93530  Biso   1.000  C
  C38      1.0000 0.61500  0.81820  0.56470  Biso   1.000  C
  C39      1.0000 0.88500  0.31820  0.93530  Biso   1.000  C
  C40      1.0000 0.11500  0.31820  0.56470  Biso   1.000  C
  H17      1.0000 0.62710  0.12790  0.04650  Biso   1.000  H
  H18      1.0000 0.37290  0.12790  0.45350  Biso   1.000  H
  H19      1.0000 0.12710  0.62790  0.04650  Biso   1.000  H
  H20      1.0000 0.87290  0.62790  0.45350  Biso   1.000  H
  H21      1.0000 0.37290  0.87210  0.95350  Biso   1.000  H
  H22      1.0000 0.62710  0.87210  0.54650  Biso   1.000  H
  H23      1.0000 0.87290  0.37210  0.95350  Biso   1.000  H
  H24      1.0000 0.12710  0.37210  0.54650  Biso   1.000  H
  C41      1.0000 0.68130  0.35100  0.17955  Biso   1.000  C
  C42      1.0000 0.31870  0.35100  0.32045  Biso   1.000  C
  C43      1.0000 0.18130  0.85100  0.17955  Biso   1.000  C
  C44      1.0000 0.81870  0.85100  0.32045  Biso   1.000  C
  C45      1.0000 0.31870  0.64900  0.82045  Biso   1.000  C
  C46      1.0000 0.68130  0.64900  0.67955  Biso   1.000  C
  C47      1.0000 0.81870  0.14900  0.82045  Biso   1.000  C
  C48      1.0000 0.18130  0.14900  0.67955  Biso   1.000  C
  C49      1.0000 0.67120  0.42860  0.21240  Biso   1.000  C
  C50      1.0000 0.32880  0.42860  0.28760  Biso   1.000  C
  C51      1.0000 0.17120  0.92860  0.21240  Biso   1.000  C
  C52      1.0000 0.82880  0.92860  0.28760  Biso   1.000  C
  C53      1.0000 0.32880  0.57140  0.78760  Biso   1.000  C
  C54      1.0000 0.67120  0.57140  0.71240  Biso   1.000  C
  C55      1.0000 0.82880  0.07140  0.78760  Biso   1.000  C
  C56      1.0000 0.17120  0.07140  0.71240  Biso   1.000  C
  H25      1.0000 0.63530  0.46060  0.20440  Biso   1.000  H
  H26      1.0000 0.36470  0.46060  0.29560  Biso   1.000  H
  H27      1.0000 0.13530  0.96060  0.20440  Biso   1.000  H
  H28      1.0000 0.86470  0.96060  0.29560  Biso   1.000  H
  H29      1.0000 0.36470  0.53940  0.79560  Biso   1.000  H
  H30      1.0000 0.63530  0.53940  0.70440  Biso   1.000  H
  H31      1.0000 0.86470  0.03940  0.79560  Biso   1.000  H
  H32      1.0000 0.13530  0.03940  0.70440  Biso   1.000  H
  C57      1.0000 0.71460  0.45780  0.25700  Biso   1.000  C
  C58      1.0000 0.28540  0.45780  0.24300  Biso   1.000  C
  C59      1.0000 0.21460  0.95780  0.25700  Biso   1.000  C
  C60      1.0000 0.78540  0.95780  0.24300  Biso   1.000  C
  C61      1.0000 0.28540  0.54220  0.74300  Biso   1.000  C
  C62      1.0000 0.71460  0.54220  0.75700  Biso   1.000  C
  C63      1.0000 0.78540  0.04220  0.74300  Biso   1.000  C
  C64      1.0000 0.21460  0.04220  0.75700  Biso   1.000  C
  C65      1.0000 0.76650  0.40610  0.26930  Biso   1.000  C
  C66      1.0000 0.23350  0.40610  0.23070  Biso   1.000  C
  C67      1.0000 0.26650  0.90610  0.26930  Biso   1.000  C
  C68      1.0000 0.73350  0.90610  0.23070  Biso   1.000  C
  C69      1.0000 0.23350  0.59390  0.73070  Biso   1.000  C
  C70      1.0000 0.76650  0.59390  0.76930  Biso   1.000  C
  C71      1.0000 0.73350  0.09390  0.73070  Biso   1.000  C
  C72      1.0000 0.26650  0.09390  0.76930  Biso   1.000  C
  H33      1.0000 0.79500  0.42050  0.30110  Biso   1.000  H
  H34      1.0000 0.20500  0.42050  0.19890  Biso   1.000  H
  H35      1.0000 0.29500  0.92050  0.30110  Biso   1.000  H
  H36      1.0000 0.70500  0.92050  0.19890  Biso   1.000  H
  H37      1.0000 0.20500  0.57950  0.69890  Biso   1.000  H
  H38      1.0000 0.79500  0.57950  0.80110  Biso   1.000  H
  H39      1.0000 0.70500  0.07950  0.69890  Biso   1.000  H
  H40      1.0000 0.29500  0.07950  0.80110  Biso   1.000  H
  C73      1.0000 0.77610  0.33330  0.23460  Biso   1.000  C
  C74      1.0000 0.22390  0.33330  0.26540  Biso   1.000  C
  C75      1.0000 0.27610  0.83330  0.23460  Biso   1.000  C
  C76      1.0000 0.72390  0.83330  0.26540  Biso   1.000  C
  C77      1.0000 0.22390  0.66670  0.76540  Biso   1.000  C
  C78      1.0000 0.77610  0.66670  0.73460  Biso   1.000  C
  C79      1.0000 0.72390  0.16670  0.76540  Biso   1.000  C
  C80      1.0000 0.27610  0.16670  0.73460  Biso   1.000  C
  H41      1.0000 0.81180  0.30090  0.24190  Biso   1.000  H
  H42      1.0000 0.18820  0.30090  0.25810  Biso   1.000  H
  H43      1.0000 0.31180  0.80090  0.24190  Biso   1.000  H
  H44      1.0000 0.68820  0.80090  0.25810  Biso   1.000  H
  H45      1.0000 0.18820  0.69910  0.75810  Biso   1.000  H
  H46      1.0000 0.81180  0.69910  0.74190  Biso   1.000  H
  H47      1.0000 0.68820  0.19910  0.75810  Biso   1.000  H
  H48      1.0000 0.31180  0.19910  0.74190  Biso   1.000  H
  C81      1.0000 0.70790  0.55050  0.29211  Biso   1.000  C
  C82      1.0000 0.29210  0.55050  0.20789  Biso   1.000  C
  C83      1.0000 0.20790  0.05050  0.29211  Biso   1.000  C
  C84      1.0000 0.79210  0.05050  0.20789  Biso   1.000  C
  C85      1.0000 0.29210  0.44950  0.70789  Biso   1.000  C
  C86      1.0000 0.70790  0.44950  0.79211  Biso   1.000  C
  C87      1.0000 0.79210  0.94950  0.70789  Biso   1.000  C
  C88      1.0000 0.20790  0.94950  0.79211  Biso   1.000  C
  C89      1.0000 0.47550  0.30100  0.06550  Biso   1.000  C
  C90      1.0000 0.52450  0.30100  0.43450  Biso   1.000  C
  C91      1.0000 0.97550  0.80100  0.06550  Biso   1.000  C
  C92      1.0000 0.02450  0.80100  0.43450  Biso   1.000  C
  C93      1.0000 0.52450  0.69900  0.93450  Biso   1.000  C
  C94      1.0000 0.47550  0.69900  0.56550  Biso   1.000  C
  C95      1.0000 0.02450  0.19900  0.93450  Biso   1.000  C
  C96      1.0000 0.97550  0.19900  0.56550  Biso   1.000  C
  C97      1.0000 0.42480  0.87720  0.79280  Biso   1.000  C
  C98      1.0000 0.57520  0.87720  0.70720  Biso   1.000  C
  C99      1.0000 0.92480  0.37720  0.79280  Biso   1.000  C
  C100     1.0000 0.07520  0.37720  0.70720  Biso   1.000  C
  C101     1.0000 0.57520  0.12280  0.20720  Biso   1.000  C
  C102     1.0000 0.42480  0.12280  0.29280  Biso   1.000  C
  C103     1.0000 0.07520  0.62280  0.20720  Biso   1.000  C
  C104     1.0000 0.92480  0.62280  0.29280  Biso   1.000  C
  C105     1.0000 0.40300  0.94100  0.82400  Biso   1.000  C
  C106     1.0000 0.59700  0.94100  0.67600  Biso   1.000  C
  C107     1.0000 0.90300  0.44100  0.82400  Biso   1.000  C
  C108     1.0000 0.09700  0.44100  0.67600  Biso   1.000  C
  C109     1.0000 0.59700  0.05900  0.17600  Biso   1.000  C
  C110     1.0000 0.40300  0.05900  0.32400  Biso   1.000  C
  C111     1.0000 0.09700  0.55900  0.17600  Biso   1.000  C
  C112     1.0000 0.90300  0.55900  0.32400  Biso   1.000  C
  H49      1.0000 0.36370  0.94780  0.81600  Biso   1.000  H
  H50      1.0000 0.63630  0.94780  0.68400  Biso   1.000  H
  H51      1.0000 0.86370  0.44780  0.81600  Biso   1.000  H
  H52      1.0000 0.13630  0.44780  0.68400  Biso   1.000  H
  H53      1.0000 0.63630  0.05220  0.18400  Biso   1.000  H
  H54      1.0000 0.36370  0.05220  0.31600  Biso   1.000  H
  H55      1.0000 0.13630  0.55220  0.18400  Biso   1.000  H
  H56      1.0000 0.86370  0.55220  0.31600  Biso   1.000  H
  C113     1.0000 0.43970  0.99470  0.86707  Biso   1.000  C
  C114     1.0000 0.56030  0.99470  0.63293  Biso   1.000  C
  C115     1.0000 0.93970  0.49470  0.86707  Biso   1.000  C
  C116     1.0000 0.06030  0.49470  0.63293  Biso   1.000  C
  C117     1.0000 0.56030  0.00530  0.13293  Biso   1.000  C
  C118     1.0000 0.43970  0.00530  0.36707  Biso   1.000  C
  C119     1.0000 0.06030  0.50530  0.13293  Biso   1.000  C
  C120     1.0000 0.93970  0.50530  0.36707  Biso   1.000  C
  C121     1.0000 0.49790  0.97780  0.87910  Biso   1.000  C
  C122     1.0000 0.50210  0.97780  0.62090  Biso   1.000  C
  C123     1.0000 0.99790  0.47780  0.87910  Biso   1.000  C
  C124     1.0000 0.00210  0.47780  0.62090  Biso   1.000  C
  C125     1.0000 0.50210  0.02220  0.12090  Biso   1.000  C
  C126     1.0000 0.49790  0.02220  0.37910  Biso   1.000  C
  C127     1.0000 0.00210  0.52220  0.12090  Biso   1.000  C
  C128     1.0000 0.99790  0.52220  0.37910  Biso   1.000  C
  H57      1.0000 0.52420  0.01120  0.90820  Biso   1.000  H
  H58      1.0000 0.47580  0.01120  0.59180  Biso   1.000  H
  H59      1.0000 0.02420  0.51120  0.90820  Biso   1.000  H
  H60      1.0000 0.97580  0.51120  0.59180  Biso   1.000  H
  H61      1.0000 0.47580  0.98880  0.09180  Biso   1.000  H
  H62      1.0000 0.52420  0.98880  0.40820  Biso   1.000  H
  H63      1.0000 0.97580  0.48880  0.09180  Biso   1.000  H
  H64      1.0000 0.02420  0.48880  0.40820  Biso   1.000  H
  C129     1.0000 0.51530  0.91030  0.84680  Biso   1.000  C
  C130     1.0000 0.48470  0.91030  0.65320  Biso   1.000  C
  C131     1.0000 0.01530  0.41030  0.84680  Biso   1.000  C
  C132     1.0000 0.98470  0.41030  0.65320  Biso   1.000  C
  C133     1.0000 0.48470  0.08970  0.15320  Biso   1.000  C
  C134     1.0000 0.51530  0.08970  0.34680  Biso   1.000  C
  C135     1.0000 0.98470  0.58970  0.15320  Biso   1.000  C
  C136     1.0000 0.01530  0.58970  0.34680  Biso   1.000  C
  H65      1.0000 0.55430  0.89760  0.85510  Biso   1.000  H
  H66      1.0000 0.44570  0.89760  0.64490  Biso   1.000  H
  H67      1.0000 0.05430  0.39760  0.85510  Biso   1.000  H
  H68      1.0000 0.94570  0.39760  0.64490  Biso   1.000  H
  H69      1.0000 0.44570  0.10240  0.14490  Biso   1.000  H
  H70      1.0000 0.55430  0.10240  0.35510  Biso   1.000  H
  H71      1.0000 0.94570  0.60240  0.14490  Biso   1.000  H
  H72      1.0000 0.05430  0.60240  0.35510  Biso   1.000  H
  C137     1.0000 0.38680  0.82280  0.74420  Biso   1.000  C
  C138     1.0000 0.61320  0.82280  0.75580  Biso   1.000  C
  C139     1.0000 0.88680  0.32280  0.74420  Biso   1.000  C
  C140     1.0000 0.11320  0.32280  0.75580  Biso   1.000  C
  C141     1.0000 0.61320  0.17720  0.25580  Biso   1.000  C
  C142     1.0000 0.38680  0.17720  0.24420  Biso   1.000  C
  C143     1.0000 0.11320  0.67720  0.25580  Biso   1.000  C
  C144     1.0000 0.88680  0.67720  0.24420  Biso   1.000  C
  C145     1.0000 0.41630  0.07030  0.89950  Biso   1.000  C
  C146     1.0000 0.58370  0.07030  0.60050  Biso   1.000  C
  C147     1.0000 0.91630  0.57030  0.89950  Biso   1.000  C
  C148     1.0000 0.08370  0.57030  0.60050  Biso   1.000  C
  C149     1.0000 0.58370  0.92970  0.10050  Biso   1.000  C
  C150     1.0000 0.41630  0.92970  0.39950  Biso   1.000  C
  C151     1.0000 0.08370  0.42970  0.10050  Biso   1.000  C
  C152     1.0000 0.91630  0.42970  0.39950  Biso   1.000  C
  C153     1.0000 0.30840  0.68850  0.06324  Biso   1.000  C
  C154     1.0000 0.69160  0.68850  0.43676  Biso   1.000  C
  C155     1.0000 0.80840  0.18850  0.06324  Biso   1.000  C
  C156     1.0000 0.19160  0.18850  0.43676  Biso   1.000  C
  C157     1.0000 0.69160  0.31150  0.93676  Biso   1.000  C
  C158     1.0000 0.30840  0.31150  0.56324  Biso   1.000  C
  C159     1.0000 0.19160  0.81150  0.93676  Biso   1.000  C
  C160     1.0000 0.80840  0.81150  0.56324  Biso   1.000  C
  C161     1.0000 0.33820  0.64090  0.03360  Biso   1.000  C
  C162     1.0000 0.66180  0.64090  0.46640  Biso   1.000  C
  C163     1.0000 0.83820  0.14090  0.03360  Biso   1.000  C
  C164     1.0000 0.16180  0.14090  0.46640  Biso   1.000  C
  C165     1.0000 0.66180  0.35910  0.96640  Biso   1.000  C
  C166     1.0000 0.33820  0.35910  0.53360  Biso   1.000  C
  C167     1.0000 0.16180  0.85910  0.96640  Biso   1.000  C
  C168     1.0000 0.83820  0.85910  0.53360  Biso   1.000  C
  H73      1.0000 0.36100  0.68270  0.01960  Biso   1.000  H
  H74      1.0000 0.63900  0.68270  0.48040  Biso   1.000  H
  H75      1.0000 0.86100  0.18270  0.01960  Biso   1.000  H
  H76      1.0000 0.13900  0.18270  0.48040  Biso   1.000  H
  H77      1.0000 0.63900  0.31730  0.98040  Biso   1.000  H
  H78      1.0000 0.36100  0.31730  0.51960  Biso   1.000  H
  H79      1.0000 0.13900  0.81730  0.98040  Biso   1.000  H
  H80      1.0000 0.86100  0.81730  0.51960  Biso   1.000  H
  C169     1.0000 0.33300  0.52660  0.02510  Biso   1.000  C
  C170     1.0000 0.66700  0.52660  0.47490  Biso   1.000  C
  C171     1.0000 0.83300  0.02660  0.02510  Biso   1.000  C
  C172     1.0000 0.16700  0.02660  0.47490  Biso   1.000  C
  C173     1.0000 0.66700  0.47340  0.97490  Biso   1.000  C
  C174     1.0000 0.33300  0.47340  0.52510  Biso   1.000  C
  C175     1.0000 0.16700  0.97340  0.97490  Biso   1.000  C
  C176     1.0000 0.83300  0.97340  0.52510  Biso   1.000  C
  C177     1.0000 0.29990  0.46860  0.04670  Biso   1.000  C
  C178     1.0000 0.70010  0.46860  0.45330  Biso   1.000  C
  C179     1.0000 0.79990  0.96860  0.04670  Biso   1.000  C
  C180     1.0000 0.20010  0.96860  0.45330  Biso   1.000  C
  C181     1.0000 0.70010  0.53140  0.95330  Biso   1.000  C
  C182     1.0000 0.29990  0.53140  0.54670  Biso   1.000  C
  C183     1.0000 0.20010  0.03140  0.95330  Biso   1.000  C
  C184     1.0000 0.79990  0.03140  0.54670  Biso   1.000  C
  H81      1.0000 0.29530  0.39380  0.04090  Biso   1.000  H
  H82      1.0000 0.70470  0.39380  0.45910  Biso   1.000  H
  H83      1.0000 0.79530  0.89380  0.04090  Biso   1.000  H
  H84      1.0000 0.20470  0.89380  0.45910  Biso   1.000  H
  H85      1.0000 0.70470  0.60620  0.95910  Biso   1.000  H
  H86      1.0000 0.29530  0.60620  0.54090  Biso   1.000  H
  H87      1.0000 0.20470  0.10620  0.95910  Biso   1.000  H
  H88      1.0000 0.79530  0.10620  0.54090  Biso   1.000  H
  C185     1.0000 0.27270  0.52170  0.07773  Biso   1.000  C
  C186     1.0000 0.72730  0.52170  0.42227  Biso   1.000  C
  C187     1.0000 0.77270  0.02170  0.07773  Biso   1.000  C
  C188     1.0000 0.22730  0.02170  0.42227  Biso   1.000  C
  C189     1.0000 0.72730  0.47830  0.92227  Biso   1.000  C
  C190     1.0000 0.27270  0.47830  0.57773  Biso   1.000  C
  C191     1.0000 0.22730  0.97830  0.92227  Biso   1.000  C
  C192     1.0000 0.77270  0.97830  0.57773  Biso   1.000  C
  H89      1.0000 0.25090  0.48120  0.09330  Biso   1.000  H
  H90      1.0000 0.74910  0.48120  0.40670  Biso   1.000  H
  H91      1.0000 0.75090  0.98120  0.09330  Biso   1.000  H
  H92      1.0000 0.24910  0.98120  0.40670  Biso   1.000  H
  H93      1.0000 0.74910  0.51880  0.90670  Biso   1.000  H
  H94      1.0000 0.25090  0.51880  0.59330  Biso   1.000  H
  H95      1.0000 0.24910  0.01880  0.90670  Biso   1.000  H
  H96      1.0000 0.75090  0.01880  0.59330  Biso   1.000  H
  C193     1.0000 0.30680  0.80820  0.07090  Biso   1.000  C
  C194     1.0000 0.69320  0.80820  0.42910  Biso   1.000  C
  C195     1.0000 0.80680  0.30820  0.07090  Biso   1.000  C
  C196     1.0000 0.19320  0.30820  0.42910  Biso   1.000  C
  C197     1.0000 0.69320  0.19180  0.92910  Biso   1.000  C
  C198     1.0000 0.30680  0.19180  0.57090  Biso   1.000  C
  C199     1.0000 0.19320  0.69180  0.92910  Biso   1.000  C
  C200     1.0000 0.80680  0.69180  0.57090  Biso   1.000  C
  C201     1.0000 0.33310  0.88420  0.04760  Biso   1.000  C
  C202     1.0000 0.66690  0.88420  0.45240  Biso   1.000  C
  C203     1.0000 0.83310  0.38420  0.04760  Biso   1.000  C
  C204     1.0000 0.16690  0.38420  0.45240  Biso   1.000  C
  C205     1.0000 0.66690  0.11580  0.95240  Biso   1.000  C
  C206     1.0000 0.33310  0.11580  0.54760  Biso   1.000  C
  C207     1.0000 0.16690  0.61580  0.95240  Biso   1.000  C
  C208     1.0000 0.83310  0.61580  0.54760  Biso   1.000  C
  H97      1.0000 0.35850  0.86160  0.03090  Biso   1.000  H
  H98      1.0000 0.64150  0.86160  0.46910  Biso   1.000  H
  H99      1.0000 0.85850  0.36160  0.03090  Biso   1.000  H
  H100     1.0000 0.14150  0.36160  0.46910  Biso   1.000  H
  H101     1.0000 0.64150  0.13840  0.96910  Biso   1.000  H
  H102     1.0000 0.35850  0.13840  0.53090  Biso   1.000  H
  H103     1.0000 0.14150  0.63840  0.96910  Biso   1.000  H
  H104     1.0000 0.85850  0.63840  0.53090  Biso   1.000  H
  C209     1.0000 0.32060  0.99240  0.04990  Biso   1.000  C
  C210     1.0000 0.67940  0.99240  0.45010  Biso   1.000  C
  C211     1.0000 0.82060  0.49240  0.04990  Biso   1.000  C
  C212     1.0000 0.17940  0.49240  0.45010  Biso   1.000  C
  C213     1.0000 0.67940  0.00760  0.95010  Biso   1.000  C
  C214     1.0000 0.32060  0.00760  0.54990  Biso   1.000  C
  C215     1.0000 0.17940  0.50760  0.95010  Biso   1.000  C
  C216     1.0000 0.82060  0.50760  0.54990  Biso   1.000  C
  C217     1.0000 0.28590  0.02580  0.07870  Biso   1.000  C
  C218     1.0000 0.71410  0.02580  0.42130  Biso   1.000  C
  C219     1.0000 0.78590  0.52580  0.07870  Biso   1.000  C
  C220     1.0000 0.21410  0.52580  0.42130  Biso   1.000  C
  C221     1.0000 0.71410  0.97420  0.92130  Biso   1.000  C
  C222     1.0000 0.28590  0.97420  0.57870  Biso   1.000  C
  C223     1.0000 0.21410  0.47420  0.92130  Biso   1.000  C
  C224     1.0000 0.78590  0.47420  0.57870  Biso   1.000  C
  H105     1.0000 0.27680  0.09910  0.08000  Biso   1.000  H
  H106     1.0000 0.72320  0.09910  0.42000  Biso   1.000  H
  H107     1.0000 0.77680  0.59910  0.08000  Biso   1.000  H
  H108     1.0000 0.22320  0.59910  0.42000  Biso   1.000  H
  H109     1.0000 0.72320  0.90090  0.92000  Biso   1.000  H
  H110     1.0000 0.27680  0.90090  0.58000  Biso   1.000  H
  H111     1.0000 0.22320  0.40090  0.92000  Biso   1.000  H
  H112     1.0000 0.77680  0.40090  0.58000  Biso   1.000  H
  C225     1.0000 0.26540  0.94840  0.10520  Biso   1.000  C
  C226     1.0000 0.73460  0.94840  0.39480  Biso   1.000  C
  C227     1.0000 0.76540  0.44840  0.10520  Biso   1.000  C
  C228     1.0000 0.23460  0.44840  0.39480  Biso   1.000  C
  C229     1.0000 0.73460  0.05160  0.89480  Biso   1.000  C
  C230     1.0000 0.26540  0.05160  0.60520  Biso   1.000  C
  C231     1.0000 0.23460  0.55160  0.89480  Biso   1.000  C
  C232     1.0000 0.76540  0.55160  0.60520  Biso   1.000  C
  H113     1.0000 0.24420  0.97040  0.12610  Biso   1.000  H
  H114     1.0000 0.75580  0.97040  0.37390  Biso   1.000  H
  H115     1.0000 0.74420  0.47040  0.12610  Biso   1.000  H
  H116     1.0000 0.25580  0.47040  0.37390  Biso   1.000  H
  H117     1.0000 0.75580  0.02960  0.87390  Biso   1.000  H
  H118     1.0000 0.24420  0.02960  0.62610  Biso   1.000  H
  H119     1.0000 0.25580  0.52960  0.87390  Biso   1.000  H
  H120     1.0000 0.74420  0.52960  0.62610  Biso   1.000  H
  C233     1.0000 0.32790  0.83280  0.72270  Biso   1.000  C
  C234     1.0000 0.67210  0.83280  0.77730  Biso   1.000  C
  C235     1.0000 0.82790  0.33280  0.72270  Biso   1.000  C
  C236     1.0000 0.17210  0.33280  0.77730  Biso   1.000  C
  C237     1.0000 0.67210  0.16720  0.27730  Biso   1.000  C
  C238     1.0000 0.32790  0.16720  0.22270  Biso   1.000  C
  C239     1.0000 0.17210  0.66720  0.27730  Biso   1.000  C
  C240     1.0000 0.82790  0.66720  0.22270  Biso   1.000  C
  H121     1.0000 0.30810  0.87400  0.73990  Biso   1.000  H
  H122     1.0000 0.69190  0.87400  0.76010  Biso   1.000  H
  H123     1.0000 0.80810  0.37400  0.73990  Biso   1.000  H
  H124     1.0000 0.19190  0.37400  0.76010  Biso   1.000  H
  H125     1.0000 0.69190  0.12600  0.26010  Biso   1.000  H
  H126     1.0000 0.30810  0.12600  0.23990  Biso   1.000  H
  H127     1.0000 0.19190  0.62600  0.26010  Biso   1.000  H
  H128     1.0000 0.80810  0.62600  0.23990  Biso   1.000  H
  C241     1.0000 0.29910  0.78150  0.67590  Biso   1.000  C
  C242     1.0000 0.70090  0.78150  0.82410  Biso   1.000  C
  C243     1.0000 0.79910  0.28150  0.67590  Biso   1.000  C
  C244     1.0000 0.20090  0.28150  0.82410  Biso   1.000  C
  C245     1.0000 0.70090  0.21850  0.32410  Biso   1.000  C
  C246     1.0000 0.29910  0.21850  0.17590  Biso   1.000  C
  C247     1.0000 0.20090  0.71850  0.32410  Biso   1.000  C
  C248     1.0000 0.79910  0.71850  0.17590  Biso   1.000  C
  C249     1.0000 0.33060  0.72170  0.65140  Biso   1.000  C
  C250     1.0000 0.66940  0.72170  0.84860  Biso   1.000  C
  C251     1.0000 0.83060  0.22170  0.65140  Biso   1.000  C
  C252     1.0000 0.16940  0.22170  0.84860  Biso   1.000  C
  C253     1.0000 0.66940  0.27830  0.34860  Biso   1.000  C
  C254     1.0000 0.33060  0.27830  0.15140  Biso   1.000  C
  C255     1.0000 0.16940  0.77830  0.34860  Biso   1.000  C
  C256     1.0000 0.83060  0.77830  0.15140  Biso   1.000  C
  H129     1.0000 0.31220  0.68550  0.62000  Biso   1.000  H
  H130     1.0000 0.68780  0.68550  0.88000  Biso   1.000  H
  H131     1.0000 0.81220  0.18550  0.62000  Biso   1.000  H
  H132     1.0000 0.18780  0.18550  0.88000  Biso   1.000  H
  H133     1.0000 0.68780  0.31450  0.38000  Biso   1.000  H
  H134     1.0000 0.31220  0.31450  0.12000  Biso   1.000  H
  H135     1.0000 0.18780  0.81450  0.38000  Biso   1.000  H
  H136     1.0000 0.81220  0.81450  0.12000  Biso   1.000  H
  C257     1.0000 0.38800  0.71590  0.67310  Biso   1.000  C
  C258     1.0000 0.61200  0.71590  0.82690  Biso   1.000  C
  C259     1.0000 0.88800  0.21590  0.67310  Biso   1.000  C
  C260     1.0000 0.11200  0.21590  0.82690  Biso   1.000  C
  C261     1.0000 0.61200  0.28410  0.32690  Biso   1.000  C
  C262     1.0000 0.38800  0.28410  0.17310  Biso   1.000  C
  C263     1.0000 0.11200  0.78410  0.32690  Biso   1.000  C
  C264     1.0000 0.88800  0.78410  0.17310  Biso   1.000  C
  H137     1.0000 0.40860  0.67680  0.65580  Biso   1.000  H
  H138     1.0000 0.59140  0.67680  0.84420  Biso   1.000  H
  H139     1.0000 0.90860  0.17680  0.65580  Biso   1.000  H
  H140     1.0000 0.09140  0.17680  0.84420  Biso   1.000  H
  H141     1.0000 0.59140  0.32320  0.34420  Biso   1.000  H
  H142     1.0000 0.40860  0.32320  0.15580  Biso   1.000  H
  H143     1.0000 0.09140  0.82320  0.34420  Biso   1.000  H
  H144     1.0000 0.90860  0.82320  0.15580  Biso   1.000  H
  C265     1.0000 0.23620  0.79140  0.65030  Biso   1.000  C
  C266     1.0000 0.76380  0.79140  0.84970  Biso   1.000  C
  C267     1.0000 0.73620  0.29140  0.65030  Biso   1.000  C
  C268     1.0000 0.26380  0.29140  0.84970  Biso   1.000  C
  C269     1.0000 0.76380  0.20860  0.34970  Biso   1.000  C
  C270     1.0000 0.23620  0.20860  0.15030  Biso   1.000  C
  C271     1.0000 0.26380  0.70860  0.34970  Biso   1.000  C
  C272     1.0000 0.73620  0.70860  0.15030  Biso   1.000  C
  C273     1.0000 0.36270  0.46990  0.99040  Biso   1.000  C
  C274     1.0000 0.63730  0.46990  0.50960  Biso   1.000  C
  C275     1.0000 0.86270  0.96990  0.99040  Biso   1.000  C
  C276     1.0000 0.13730  0.96990  0.50960  Biso   1.000  C
  C277     1.0000 0.63730  0.53010  0.00960  Biso   1.000  C
  C278     1.0000 0.36270  0.53010  0.49040  Biso   1.000  C
  C279     1.0000 0.13730  0.03010  0.00960  Biso   1.000  C
  C280     1.0000 0.86270  0.03010  0.49040  Biso   1.000  C
  C281     1.0000 0.34160  0.07420  0.01870  Biso   1.000  C
  C282     1.0000 0.65840  0.07420  0.48130  Biso   1.000  C
  C283     1.0000 0.84160  0.57420  0.01870  Biso   1.000  C
  C284     1.0000 0.15840  0.57420  0.48130  Biso   1.000  C
  C285     1.0000 0.65840  0.92580  0.98130  Biso   1.000  C
  C286     1.0000 0.34160  0.92580  0.51870  Biso   1.000  C
  C287     1.0000 0.15840  0.42580  0.98130  Biso   1.000  C
  C288     1.0000 0.84160  0.42580  0.51870  Biso   1.000  C
  N1       1.0000 0.65380  0.23400  0.10329  Biso   1.000  N
  N2       1.0000 0.34620  0.23400  0.39671  Biso   1.000  N
  N3       1.0000 0.15380  0.73400  0.10329  Biso   1.000  N
  N4       1.0000 0.84620  0.73400  0.39671  Biso   1.000  N
  N5       1.0000 0.34620  0.76600  0.89671  Biso   1.000  N
  N6       1.0000 0.65380  0.76600  0.60329  Biso   1.000  N
  N7       1.0000 0.84620  0.26600  0.89671  Biso   1.000  N
  N8       1.0000 0.15380  0.26600  0.60329  Biso   1.000  N
  N9       1.0000 0.73340  0.30880  0.18966  Biso   1.000  N
  N10      1.0000 0.26660  0.30880  0.31034  Biso   1.000  N
  N11      1.0000 0.23340  0.80880  0.18966  Biso   1.000  N
  N12      1.0000 0.76660  0.80880  0.31034  Biso   1.000  N
  N13      1.0000 0.26660  0.69120  0.81034  Biso   1.000  N
  N14      1.0000 0.73340  0.69120  0.68966  Biso   1.000  N
  N15      1.0000 0.76660  0.19120  0.81034  Biso   1.000  N
  N16      1.0000 0.23340  0.19120  0.68966  Biso   1.000  N
  N17      1.0000 0.48010  0.86230  0.80469  Biso   1.000  N
  N18      1.0000 0.51990  0.86230  0.69531  Biso   1.000  N
  N19      1.0000 0.98010  0.36230  0.80469  Biso   1.000  N
  N20      1.0000 0.01990  0.36230  0.69531  Biso   1.000  N
  N21      1.0000 0.51990  0.13770  0.19531  Biso   1.000  N
  N22      1.0000 0.48010  0.13770  0.30469  Biso   1.000  N
  N23      1.0000 0.01990  0.63770  0.19531  Biso   1.000  N
  N24      1.0000 0.98010  0.63770  0.30469  Biso   1.000  N
  N25      1.0000 0.41570  0.76490  0.71850  Biso   1.000  N
  N26      1.0000 0.58430  0.76490  0.78150  Biso   1.000  N
  N27      1.0000 0.91570  0.26490  0.71850  Biso   1.000  N
  N28      1.0000 0.08430  0.26490  0.78150  Biso   1.000  N
  N29      1.0000 0.58430  0.23510  0.28150  Biso   1.000  N
  N30      1.0000 0.41570  0.23510  0.21850  Biso   1.000  N
  N31      1.0000 0.08430  0.73510  0.28150  Biso   1.000  N
  N32      1.0000 0.91570  0.73510  0.21850  Biso   1.000  N
  N33      1.0000 0.27730  0.63050  0.08571  Biso   1.000  N
  N34      1.0000 0.72270  0.63050  0.41429  Biso   1.000  N
  N35      1.0000 0.77730  0.13050  0.08571  Biso   1.000  N
  N36      1.0000 0.22270  0.13050  0.41429  Biso   1.000  N
  N37      1.0000 0.72270  0.36950  0.91429  Biso   1.000  N
  N38      1.0000 0.27730  0.36950  0.58571  Biso   1.000  N
  N39      1.0000 0.22270  0.86950  0.91429  Biso   1.000  N
  N40      1.0000 0.77730  0.86950  0.58571  Biso   1.000  N
  N41      1.0000 0.27580  0.84010  0.10106  Biso   1.000  N
  N42      1.0000 0.72420  0.84010  0.39894  Biso   1.000  N
  N43      1.0000 0.77580  0.34010  0.10106  Biso   1.000  N
  N44      1.0000 0.22420  0.34010  0.39894  Biso   1.000  N
  N45      1.0000 0.72420  0.15990  0.89894  Biso   1.000  N
  N46      1.0000 0.27580  0.15990  0.60106  Biso   1.000  N
  N47      1.0000 0.22420  0.65990  0.89894  Biso   1.000  N
  N48      1.0000 0.77580  0.65990  0.60106  Biso   1.000  N
  O1       1.0000 0.45127  0.12180  0.93799  Biso   1.000  O
  O2       1.0000 0.54873  0.12180  0.56201  Biso   1.000  O
  O3       1.0000 0.95127  0.62180  0.93799  Biso   1.000  O
  O4       1.0000 0.04873  0.62180  0.56201  Biso   1.000  O
  O5       1.0000 0.54873  0.87820  0.06201  Biso   1.000  O
  O6       1.0000 0.45127  0.87820  0.43799  Biso   1.000  O
  O7       1.0000 0.04873  0.37820  0.06201  Biso   1.000  O
  O8       1.0000 0.95127  0.37820  0.43799  Biso   1.000  O
  O9       1.0000 0.36561  0.08230  0.88869  Biso   1.000  O
  O10      1.0000 0.63439  0.08230  0.61131  Biso   1.000  O
  O11      1.0000 0.86561  0.58230  0.88869  Biso   1.000  O
  O12      1.0000 0.13439  0.58230  0.61131  Biso   1.000  O
  O13      1.0000 0.63439  0.91770  0.11131  Biso   1.000  O
  O14      1.0000 0.36561  0.91770  0.38869  Biso   1.000  O
  O15      1.0000 0.13439  0.41770  0.11131  Biso   1.000  O
  O16      1.0000 0.86561  0.41770  0.38869  Biso   1.000  O
  O17      1.0000 0.31983  0.16740  0.01040  Biso   1.000  O
  O18      1.0000 0.68017  0.16740  0.48960  Biso   1.000  O
  O19      1.0000 0.81983  0.66740  0.01040  Biso   1.000  O
  O20      1.0000 0.18017  0.66740  0.48960  Biso   1.000  O
  O21      1.0000 0.68017  0.83260  0.98960  Biso   1.000  O
  O22      1.0000 0.31983  0.83260  0.51040  Biso   1.000  O
  O23      1.0000 0.18017  0.33260  0.98960  Biso   1.000  O
  O24      1.0000 0.81983  0.33260  0.51040  Biso   1.000  O
  O25      1.0000 0.37811  0.04420  0.99860  Biso   1.000  O
  O26      1.0000 0.62189  0.04420  0.50140  Biso   1.000  O
  O27      1.0000 0.87811  0.54420  0.99860  Biso   1.000  O
  O28      1.0000 0.12189  0.54420  0.50140  Biso   1.000  O
  O29      1.0000 0.62189  0.95580  0.00140  Biso   1.000  O
  O30      1.0000 0.37811  0.95580  0.49860  Biso   1.000  O
  O31      1.0000 0.12189  0.45580  0.00140  Biso   1.000  O
  O32      1.0000 0.87811  0.45580  0.49860  Biso   1.000  O
  O33      1.0000 0.44374  0.25430  0.02423  Biso   1.000  O
  O34      1.0000 0.55626  0.25430  0.47577  Biso   1.000  O
  O35      1.0000 0.94374  0.75430  0.02423  Biso   1.000  O
  O36      1.0000 0.05626  0.75430  0.47577  Biso   1.000  O
  O37      1.0000 0.55626  0.74570  0.97577  Biso   1.000  O
  O38      1.0000 0.44374  0.74570  0.52423  Biso   1.000  O
  O39      1.0000 0.05626  0.24570  0.97577  Biso   1.000  O
  O40      1.0000 0.94374  0.24570  0.52423  Biso   1.000  O
  O41      1.0000 0.45905  0.35930  0.09541  Biso   1.000  O
  O42      1.0000 0.54095  0.35930  0.40459  Biso   1.000  O
  O43      1.0000 0.95905  0.85930  0.09541  Biso   1.000  O
  O44      1.0000 0.04095  0.85930  0.40459  Biso   1.000  O
  O45      1.0000 0.54095  0.64070  0.90459  Biso   1.000  O
  O46      1.0000 0.45905  0.64070  0.59541  Biso   1.000  O
  O47      1.0000 0.04095  0.14070  0.90459  Biso   1.000  O
  O48      1.0000 0.95905  0.14070  0.59541  Biso   1.000  O
  O49      1.0000 0.21399  0.73800  0.60811  Biso   1.000  O
  O50      1.0000 0.78601  0.73800  0.89189  Biso   1.000  O
  O51      1.0000 0.71399  0.23800  0.60811  Biso   1.000  O
  O52      1.0000 0.28601  0.23800  0.89189  Biso   1.000  O
  O53      1.0000 0.78601  0.26200  0.39189  Biso   1.000  O
  O54      1.0000 0.21399  0.26200  0.10811  Biso   1.000  O
  O55      1.0000 0.28601  0.76200  0.39189  Biso   1.000  O
  O56      1.0000 0.71399  0.76200  0.10811  Biso   1.000  O
  O57      1.0000 0.39840  0.32610  0.89580  Biso   1.000  O
  O58      1.0000 0.60160  0.32610  0.60420  Biso   1.000  O
  O59      1.0000 0.89840  0.82610  0.89580  Biso   1.000  O
  O60      1.0000 0.10160  0.82610  0.60420  Biso   1.000  O
  O61      1.0000 0.60160  0.67390  0.10420  Biso   1.000  O
  O62      1.0000 0.39840  0.67390  0.39580  Biso   1.000  O
  O63      1.0000 0.10160  0.17390  0.10420  Biso   1.000  O
  O64      1.0000 0.89840  0.17390  0.39580  Biso   1.000  O
  O65      1.0000 0.34450  0.38020  0.97441  Biso   1.000  O
  O66      1.0000 0.65550  0.38020  0.52559  Biso   1.000  O
  O67      1.0000 0.84450  0.88020  0.97441  Biso   1.000  O
  O68      1.0000 0.15550  0.88020  0.52559  Biso   1.000  O
  O69      1.0000 0.65550  0.61980  0.02559  Biso   1.000  O
  O70      1.0000 0.34450  0.61980  0.47441  Biso   1.000  O
  O71      1.0000 0.15550  0.11980  0.02559  Biso   1.000  O
  O72      1.0000 0.84450  0.11980  0.47441  Biso   1.000  O
  O73      1.0000 0.40200  0.52290  0.98170  Biso   1.000  O
  O74      1.0000 0.59800  0.52290  0.51830  Biso   1.000  O
  O75      1.0000 0.90200  0.02290  0.98170  Biso   1.000  O
  O76      1.0000 0.09800  0.02290  0.51830  Biso   1.000  O
  O77      1.0000 0.59800  0.47710  0.01830  Biso   1.000  O
  O78      1.0000 0.40200  0.47710  0.48170  Biso   1.000  O
  O79      1.0000 0.09800  0.97710  0.01830  Biso   1.000  O
  O80      1.0000 0.90200  0.97710  0.48170  Biso   1.000  O
  O81      1.0000 0.66080  0.59030  0.28498  Biso   1.000  O
  O82      1.0000 0.33920  0.59030  0.21502  Biso   1.000  O
  O83      1.0000 0.16080  0.09030  0.28498  Biso   1.000  O
  O84      1.0000 0.83920  0.09030  0.21502  Biso   1.000  O
  O85      1.0000 0.33920  0.40970  0.71502  Biso   1.000  O
  O86      1.0000 0.66080  0.40970  0.78498  Biso   1.000  O
  O87      1.0000 0.83920  0.90970  0.71502  Biso   1.000  O
  O88      1.0000 0.16080  0.90970  0.78498  Biso   1.000  O
  O89      1.0000 0.75554  0.58510  0.32418  Biso   1.000  O
  O90      1.0000 0.24446  0.58510  0.17582  Biso   1.000  O
  O91      1.0000 0.25554  0.08510  0.32418  Biso   1.000  O
  O92      1.0000 0.74446  0.08510  0.17582  Biso   1.000  O
  O93      1.0000 0.24446  0.41490  0.67582  Biso   1.000  O
  O94      1.0000 0.75554  0.41490  0.82418  Biso   1.000  O
  O95      1.0000 0.74446  0.91490  0.67582  Biso   1.000  O
  O96      1.0000 0.25554  0.91490  0.82418  Biso   1.000  O
  O97      1.0000 0.50000  0.59610  0.75000  Biso   1.000  O
  O98      1.0000 0.00000  0.09610  0.75000  Biso   1.000  O
  O99      1.0000 0.50000  0.40390  0.25000  Biso   1.000  O
  O100     1.0000 0.00000  0.90390  0.25000  Biso   1.000  O
  O101     1.0000 0.20960  0.85470  0.67113  Biso   1.000  O
  O102     1.0000 0.79040  0.85470  0.82887  Biso   1.000  O
  O103     1.0000 0.70960  0.35470  0.67113  Biso   1.000  O
  O104     1.0000 0.29040  0.35470  0.82887  Biso   1.000  O
  O105     1.0000 0.79040  0.14530  0.32887  Biso   1.000  O
  O106     1.0000 0.20960  0.14530  0.17113  Biso   1.000  O
  O107     1.0000 0.29040  0.64530  0.32887  Biso   1.000  O
  O108     1.0000 0.70960  0.64530  0.17113  Biso   1.000  O
  O109     1.0000 0.00780  0.06220  0.05040  Biso   1.000  O
  O110     1.0000 0.99220  0.06220  0.44960  Biso   1.000  O
  O111     1.0000 0.50780  0.56220  0.05040  Biso   1.000  O
  O112     1.0000 0.49220  0.56220  0.44960  Biso   1.000  O
  O113     1.0000 0.99220  0.93780  0.94960  Biso   1.000  O
  O114     1.0000 0.00780  0.93780  0.55040  Biso   1.000  O
  O115     1.0000 0.49220  0.43780  0.94960  Biso   1.000  O
  O116     1.0000 0.50780  0.43780  0.55040  Biso   1.000  O
  O117     1.0000 0.01270  0.01330  0.17160  Biso   1.000  O
  O118     1.0000 0.98730  0.01330  0.32840  Biso   1.000  O
  O119     1.0000 0.51270  0.51330  0.17160  Biso   1.000  O
  O120     1.0000 0.48730  0.51330  0.32840  Biso   1.000  O
  O121     1.0000 0.98730  0.98670  0.82840  Biso   1.000  O
  O122     1.0000 0.01270  0.98670  0.67160  Biso   1.000  O
  O123     1.0000 0.48730  0.48670  0.82840  Biso   1.000  O
  O124     1.0000 0.51270  0.48670  0.67160  Biso   1.000  O
  O125     1.0000 0.01150  0.23370  0.32300  Biso   1.000  O
  O126     1.0000 0.98850  0.23370  0.17700  Biso   1.000  O
  O127     1.0000 0.51150  0.73370  0.32300  Biso   1.000  O
  O128     1.0000 0.48850  0.73370  0.17700  Biso   1.000  O
  O129     1.0000 0.98850  0.76630  0.67700  Biso   1.000  O
  O130     1.0000 0.01150  0.76630  0.82300  Biso   1.000  O
  O131     1.0000 0.48850  0.26630  0.67700  Biso   1.000  O
  O132     1.0000 0.51150  0.26630  0.82300  Biso   1.000  O
  O133     1.0000 0.03850  0.25420  0.42690  Biso   1.000  O
  O134     1.0000 0.96150  0.25420  0.07310  Biso   1.000  O
  O135     1.0000 0.53850  0.75420  0.42690  Biso   1.000  O
  O136     1.0000 0.46150  0.75420  0.07310  Biso   1.000  O
  O137     1.0000 0.96150  0.74580  0.57310  Biso   1.000  O
  O138     1.0000 0.03850  0.74580  0.92690  Biso   1.000  O
  O139     1.0000 0.46150  0.24580  0.57310  Biso   1.000  O
  O140     1.0000 0.53850  0.24580  0.92690  Biso   1.000  O
  O141     1.0000 0.08890  0.26350  0.27210  Biso   1.000  O
  O142     1.0000 0.91110  0.26350  0.22790  Biso   1.000  O
  O143     1.0000 0.58890  0.76350  0.27210  Biso   1.000  O
  O144     1.0000 0.41110  0.76350  0.22790  Biso   1.000  O
  O145     1.0000 0.91110  0.73650  0.72790  Biso   1.000  O
  O146     1.0000 0.08890  0.73650  0.77210  Biso   1.000  O
  O147     1.0000 0.41110  0.23650  0.72790  Biso   1.000  O
  O148     1.0000 0.58890  0.23650  0.77210  Biso   1.000  O
