data_image0
_cell_length_a       18.988
_cell_length_b       32.249
_cell_length_c       12.883
_cell_angle_alpha    90
_cell_angle_beta     90
_cell_angle_gamma    90

_symmetry_space_group_name_H-M    "P 1"
_symmetry_int_tables_number       1

loop_
  _symmetry_equiv_pos_as_xyz
  'x, y, z'

loop_
  _atom_site_label
  _atom_site_occupancy
  _atom_site_fract_x
  _atom_site_fract_y
  _atom_site_fract_z
  _atom_site_thermal_displace_type
  _atom_site_B_iso_or_equiv
  _atom_site_type_symbol
  Cu1      1.0000 0.94362  0.22141  0.13402  Biso   1.000  Cu
  Cu2      1.0000 0.05638  0.77859  0.13402  Biso   1.000  Cu
  Cu3      1.0000 0.19362  0.02859  0.38402  Biso   1.000  Cu
  Cu4      1.0000 0.30638  0.47141  0.38402  Biso   1.000  Cu
  Cu5      1.0000 0.94362  0.72141  0.63402  Biso   1.000  Cu
  Cu6      1.0000 0.05638  0.27859  0.63402  Biso   1.000  Cu
  Cu7      1.0000 0.19362  0.52859  0.88402  Biso   1.000  Cu
  Cu8      1.0000 0.30638  0.97141  0.88402  Biso   1.000  Cu
  Cu9      1.0000 0.44362  0.22141  0.63402  Biso   1.000  Cu
  Cu10     1.0000 0.55638  0.77859  0.63402  Biso   1.000  Cu
  Cu11     1.0000 0.69362  0.02859  0.88402  Biso   1.000  Cu
  Cu12     1.0000 0.80638  0.47141  0.88402  Biso   1.000  Cu
  Cu13     1.0000 0.44362  0.72141  0.13402  Biso   1.000  Cu
  Cu14     1.0000 0.55638  0.27859  0.13402  Biso   1.000  Cu
  Cu15     1.0000 0.69362  0.52859  0.38402  Biso   1.000  Cu
  Cu16     1.0000 0.80638  0.97141  0.38402  Biso   1.000  Cu
  O1       1.0000 0.02580  0.21314  0.22380  Biso   1.000  O
  O2       1.0000 0.97420  0.78686  0.22380  Biso   1.000  O
  O3       1.0000 0.27580  0.03686  0.47380  Biso   1.000  O
  O4       1.0000 0.22420  0.46314  0.47380  Biso   1.000  O
  O5       1.0000 0.02580  0.71314  0.72380  Biso   1.000  O
  O6       1.0000 0.97420  0.28686  0.72380  Biso   1.000  O
  O7       1.0000 0.27580  0.53686  0.97380  Biso   1.000  O
  O8       1.0000 0.22420  0.96314  0.97380  Biso   1.000  O
  O9       1.0000 0.52580  0.21314  0.72380  Biso   1.000  O
  O10      1.0000 0.47420  0.78686  0.72380  Biso   1.000  O
  O11      1.0000 0.77580  0.03686  0.97380  Biso   1.000  O
  O12      1.0000 0.72420  0.46314  0.97380  Biso   1.000  O
  O13      1.0000 0.52580  0.71314  0.22380  Biso   1.000  O
  O14      1.0000 0.47420  0.28686  0.22380  Biso   1.000  O
  O15      1.0000 0.77580  0.53686  0.47380  Biso   1.000  O
  O16      1.0000 0.72420  0.96314  0.47380  Biso   1.000  O
  O17      1.0000 0.09110  0.26709  0.17770  Biso   1.000  O
  O18      1.0000 0.90890  0.73291  0.17770  Biso   1.000  O
  O19      1.0000 0.34110  0.98291  0.42770  Biso   1.000  O
  O20      1.0000 0.15890  0.51709  0.42770  Biso   1.000  O
  O21      1.0000 0.09110  0.76709  0.67770  Biso   1.000  O
  O22      1.0000 0.90890  0.23291  0.67770  Biso   1.000  O
  O23      1.0000 0.34110  0.48291  0.92770  Biso   1.000  O
  O24      1.0000 0.15890  0.01709  0.92770  Biso   1.000  O
  O25      1.0000 0.59110  0.26709  0.67770  Biso   1.000  O
  O26      1.0000 0.40890  0.73291  0.67770  Biso   1.000  O
  O27      1.0000 0.84110  0.98291  0.92770  Biso   1.000  O
  O28      1.0000 0.65890  0.51709  0.92770  Biso   1.000  O
  O29      1.0000 0.59110  0.76709  0.17770  Biso   1.000  O
  O30      1.0000 0.40890  0.23291  0.17770  Biso   1.000  O
  O31      1.0000 0.84110  0.48291  0.42770  Biso   1.000  O
  O32      1.0000 0.65890  0.01709  0.42770  Biso   1.000  O
  O33      1.0000 0.85900  0.22242  0.04790  Biso   1.000  O
  O34      1.0000 0.14100  0.77758  0.04790  Biso   1.000  O
  O35      1.0000 0.10900  0.02758  0.29790  Biso   1.000  O
  O36      1.0000 0.39100  0.47242  0.29790  Biso   1.000  O
  O37      1.0000 0.85900  0.72242  0.54790  Biso   1.000  O
  O38      1.0000 0.14100  0.27758  0.54790  Biso   1.000  O
  O39      1.0000 0.10900  0.52758  0.79790  Biso   1.000  O
  O40      1.0000 0.39100  0.97242  0.79790  Biso   1.000  O
  O41      1.0000 0.35900  0.22242  0.54790  Biso   1.000  O
  O42      1.0000 0.64100  0.77758  0.54790  Biso   1.000  O
  O43      1.0000 0.60900  0.02758  0.79790  Biso   1.000  O
  O44      1.0000 0.89100  0.47242  0.79790  Biso   1.000  O
  O45      1.0000 0.35900  0.72242  0.04790  Biso   1.000  O
  O46      1.0000 0.64100  0.27758  0.04790  Biso   1.000  O
  O47      1.0000 0.60900  0.52758  0.29790  Biso   1.000  O
  O48      1.0000 0.89100  0.97242  0.29790  Biso   1.000  O
  O49      1.0000 0.83580  0.16359  0.12890  Biso   1.000  O
  O50      1.0000 0.16420  0.83641  0.12890  Biso   1.000  O
  O51      1.0000 0.08580  0.08641  0.37890  Biso   1.000  O
  O52      1.0000 0.41420  0.41359  0.37890  Biso   1.000  O
  O53      1.0000 0.83580  0.66359  0.62890  Biso   1.000  O
  O54      1.0000 0.16420  0.33641  0.62890  Biso   1.000  O
  O55      1.0000 0.08580  0.58641  0.87890  Biso   1.000  O
  O56      1.0000 0.41420  0.91359  0.87890  Biso   1.000  O
  O57      1.0000 0.33580  0.16359  0.62890  Biso   1.000  O
  O58      1.0000 0.66420  0.83641  0.62890  Biso   1.000  O
  O59      1.0000 0.58580  0.08641  0.87890  Biso   1.000  O
  O60      1.0000 0.91420  0.41359  0.87890  Biso   1.000  O
  O61      1.0000 0.33580  0.66359  0.12890  Biso   1.000  O
  O62      1.0000 0.66420  0.33641  0.12890  Biso   1.000  O
  O63      1.0000 0.58580  0.58641  0.37890  Biso   1.000  O
  O64      1.0000 0.91420  0.91359  0.37890  Biso   1.000  O
  N1       1.0000 0.89140  0.25056  0.24850  Biso   1.000  N
  N2       1.0000 0.10860  0.74944  0.24850  Biso   1.000  N
  N3       1.0000 0.14140  0.99944  0.49850  Biso   1.000  N
  N4       1.0000 0.35860  0.50056  0.49850  Biso   1.000  N
  N5       1.0000 0.89140  0.75056  0.74850  Biso   1.000  N
  N6       1.0000 0.10860  0.24944  0.74850  Biso   1.000  N
  N7       1.0000 0.14140  0.49944  0.99850  Biso   1.000  N
  N8       1.0000 0.35860  0.00056  0.99850  Biso   1.000  N
  N9       1.0000 0.39140  0.25056  0.74850  Biso   1.000  N
  N10      1.0000 0.60860  0.74944  0.74850  Biso   1.000  N
  N11      1.0000 0.64140  0.99944  0.99850  Biso   1.000  N
  N12      1.0000 0.85860  0.50056  0.99850  Biso   1.000  N
  N13      1.0000 0.39140  0.75056  0.24850  Biso   1.000  N
  N14      1.0000 0.60860  0.24944  0.24850  Biso   1.000  N
  N15      1.0000 0.64140  0.49944  0.49850  Biso   1.000  N
  N16      1.0000 0.85860  0.00056  0.49850  Biso   1.000  N
  N17      1.0000 0.76020  0.43467  0.77490  Biso   1.000  N
  N18      1.0000 0.23980  0.56533  0.77490  Biso   1.000  N
  N19      1.0000 0.01020  0.81533  0.02490  Biso   1.000  N
  N20      1.0000 0.48980  0.68467  0.02490  Biso   1.000  N
  N21      1.0000 0.76020  0.93467  0.27490  Biso   1.000  N
  N22      1.0000 0.23980  0.06533  0.27490  Biso   1.000  N
  N23      1.0000 0.01020  0.31533  0.52490  Biso   1.000  N
  N24      1.0000 0.48980  0.18467  0.52490  Biso   1.000  N
  N25      1.0000 0.26020  0.43467  0.27490  Biso   1.000  N
  N26      1.0000 0.73980  0.56533  0.27490  Biso   1.000  N
  N27      1.0000 0.51020  0.81533  0.52490  Biso   1.000  N
  N28      1.0000 0.98980  0.68467  0.52490  Biso   1.000  N
  N29      1.0000 0.26020  0.93467  0.77490  Biso   1.000  N
  N30      1.0000 0.73980  0.06533  0.77490  Biso   1.000  N
  N31      1.0000 0.51020  0.31533  0.02490  Biso   1.000  N
  N32      1.0000 0.98980  0.18467  0.02490  Biso   1.000  N
  C1       1.0000 0.89830  0.24184  0.35030  Biso   1.000  C
  C2       1.0000 0.10170  0.75816  0.35030  Biso   1.000  C
  C3       1.0000 0.14830  0.00816  0.60030  Biso   1.000  C
  C4       1.0000 0.35170  0.49184  0.60030  Biso   1.000  C
  C5       1.0000 0.89830  0.74184  0.85030  Biso   1.000  C
  C6       1.0000 0.10170  0.25816  0.85030  Biso   1.000  C
  C7       1.0000 0.14830  0.50816  0.10030  Biso   1.000  C
  C8       1.0000 0.35170  0.99184  0.10030  Biso   1.000  C
  C9       1.0000 0.39830  0.24184  0.85030  Biso   1.000  C
  C10      1.0000 0.60170  0.75816  0.85030  Biso   1.000  C
  C11      1.0000 0.64830  0.00816  0.10030  Biso   1.000  C
  C12      1.0000 0.85170  0.49184  0.10030  Biso   1.000  C
  C13      1.0000 0.39830  0.74184  0.35030  Biso   1.000  C
  C14      1.0000 0.60170  0.25816  0.35030  Biso   1.000  C
  C15      1.0000 0.64830  0.50816  0.60030  Biso   1.000  C
  C16      1.0000 0.85170  0.99184  0.60030  Biso   1.000  C
  H1       1.0000 0.92990  0.22130  0.36970  Biso   1.000  H
  H2       1.0000 0.07010  0.77870  0.36970  Biso   1.000  H
  H3       1.0000 0.17990  0.02870  0.61970  Biso   1.000  H
  H4       1.0000 0.32010  0.47130  0.61970  Biso   1.000  H
  H5       1.0000 0.92990  0.72130  0.86970  Biso   1.000  H
  H6       1.0000 0.07010  0.27870  0.86970  Biso   1.000  H
  H7       1.0000 0.17990  0.52870  0.11970  Biso   1.000  H
  H8       1.0000 0.32010  0.97130  0.11970  Biso   1.000  H
  H9       1.0000 0.42990  0.22130  0.86970  Biso   1.000  H
  H10      1.0000 0.57010  0.77870  0.86970  Biso   1.000  H
  H11      1.0000 0.67990  0.02870  0.11970  Biso   1.000  H
  H12      1.0000 0.82010  0.47130  0.11970  Biso   1.000  H
  H13      1.0000 0.42990  0.72130  0.36970  Biso   1.000  H
  H14      1.0000 0.57010  0.27870  0.36970  Biso   1.000  H
  H15      1.0000 0.67990  0.52870  0.61970  Biso   1.000  H
  H16      1.0000 0.82010  0.97130  0.61970  Biso   1.000  H
  C17      1.0000 0.86080  0.26183  0.42730  Biso   1.000  C
  C18      1.0000 0.13920  0.73817  0.42730  Biso   1.000  C
  C19      1.0000 0.11080  0.98817  0.67730  Biso   1.000  C
  C20      1.0000 0.38920  0.51183  0.67730  Biso   1.000  C
  C21      1.0000 0.86080  0.76183  0.92730  Biso   1.000  C
  C22      1.0000 0.13920  0.23817  0.92730  Biso   1.000  C
  C23      1.0000 0.11080  0.48817  0.17730  Biso   1.000  C
  C24      1.0000 0.38920  0.01183  0.17730  Biso   1.000  C
  C25      1.0000 0.36080  0.26183  0.92730  Biso   1.000  C
  C26      1.0000 0.63920  0.73817  0.92730  Biso   1.000  C
  C27      1.0000 0.61080  0.98817  0.17730  Biso   1.000  C
  C28      1.0000 0.88920  0.51183  0.17730  Biso   1.000  C
  C29      1.0000 0.36080  0.76183  0.42730  Biso   1.000  C
  C30      1.0000 0.63920  0.23817  0.42730  Biso   1.000  C
  C31      1.0000 0.61080  0.48817  0.67730  Biso   1.000  C
  C32      1.0000 0.88920  0.01183  0.67730  Biso   1.000  C
  H17      1.0000 0.86830  0.25490  0.49650  Biso   1.000  H
  H18      1.0000 0.13170  0.74510  0.49650  Biso   1.000  H
  H19      1.0000 0.11830  0.99510  0.74650  Biso   1.000  H
  H20      1.0000 0.38170  0.50490  0.74650  Biso   1.000  H
  H21      1.0000 0.86830  0.75490  0.99650  Biso   1.000  H
  H22      1.0000 0.13170  0.24510  0.99650  Biso   1.000  H
  H23      1.0000 0.11830  0.49510  0.24650  Biso   1.000  H
  H24      1.0000 0.38170  0.00490  0.24650  Biso   1.000  H
  H25      1.0000 0.36830  0.25490  0.99650  Biso   1.000  H
  H26      1.0000 0.63170  0.74510  0.99650  Biso   1.000  H
  H27      1.0000 0.61830  0.99510  0.24650  Biso   1.000  H
  H28      1.0000 0.88170  0.50490  0.24650  Biso   1.000  H
  H29      1.0000 0.36830  0.75490  0.49650  Biso   1.000  H
  H30      1.0000 0.63170  0.24510  0.49650  Biso   1.000  H
  H31      1.0000 0.61830  0.49510  0.74650  Biso   1.000  H
  H32      1.0000 0.88170  0.00490  0.74650  Biso   1.000  H
  C33      1.0000 0.81240  0.29185  0.40240  Biso   1.000  C
  C34      1.0000 0.18760  0.70815  0.40240  Biso   1.000  C
  C35      1.0000 0.06240  0.95815  0.65240  Biso   1.000  C
  C36      1.0000 0.43760  0.54185  0.65240  Biso   1.000  C
  C37      1.0000 0.81240  0.79185  0.90240  Biso   1.000  C
  C38      1.0000 0.18760  0.20815  0.90240  Biso   1.000  C
  C39      1.0000 0.06240  0.45815  0.15240  Biso   1.000  C
  C40      1.0000 0.43760  0.04185  0.15240  Biso   1.000  C
  C41      1.0000 0.31240  0.29185  0.90240  Biso   1.000  C
  C42      1.0000 0.68760  0.70815  0.90240  Biso   1.000  C
  C43      1.0000 0.56240  0.95815  0.15240  Biso   1.000  C
  C44      1.0000 0.93760  0.54185  0.15240  Biso   1.000  C
  C45      1.0000 0.31240  0.79185  0.40240  Biso   1.000  C
  C46      1.0000 0.68760  0.20815  0.40240  Biso   1.000  C
  C47      1.0000 0.56240  0.45815  0.65240  Biso   1.000  C
  C48      1.0000 0.93760  0.04185  0.65240  Biso   1.000  C
  C49      1.0000 0.80420  0.30058  0.29720  Biso   1.000  C
  C50      1.0000 0.19580  0.69942  0.29720  Biso   1.000  C
  C51      1.0000 0.05420  0.94942  0.54720  Biso   1.000  C
  C52      1.0000 0.44580  0.55058  0.54720  Biso   1.000  C
  C53      1.0000 0.80420  0.80058  0.79720  Biso   1.000  C
  C54      1.0000 0.19580  0.19942  0.79720  Biso   1.000  C
  C55      1.0000 0.05420  0.44942  0.04720  Biso   1.000  C
  C56      1.0000 0.44580  0.05058  0.04720  Biso   1.000  C
  C57      1.0000 0.30420  0.30058  0.79720  Biso   1.000  C
  C58      1.0000 0.69580  0.69942  0.79720  Biso   1.000  C
  C59      1.0000 0.55420  0.94942  0.04720  Biso   1.000  C
  C60      1.0000 0.94580  0.55058  0.04720  Biso   1.000  C
  C61      1.0000 0.30420  0.80058  0.29720  Biso   1.000  C
  C62      1.0000 0.69580  0.19942  0.29720  Biso   1.000  C
  C63      1.0000 0.55420  0.44942  0.54720  Biso   1.000  C
  C64      1.0000 0.94580  0.05058  0.54720  Biso   1.000  C
  H33      1.0000 0.77180  0.32050  0.27580  Biso   1.000  H
  H34      1.0000 0.22820  0.67950  0.27580  Biso   1.000  H
  H35      1.0000 0.02180  0.92950  0.52580  Biso   1.000  H
  H36      1.0000 0.47820  0.57050  0.52580  Biso   1.000  H
  H37      1.0000 0.77180  0.82050  0.77580  Biso   1.000  H
  H38      1.0000 0.22820  0.17950  0.77580  Biso   1.000  H
  H39      1.0000 0.02180  0.42950  0.02580  Biso   1.000  H
  H40      1.0000 0.47820  0.07050  0.02580  Biso   1.000  H
  H41      1.0000 0.27180  0.32050  0.77580  Biso   1.000  H
  H42      1.0000 0.72820  0.67950  0.77580  Biso   1.000  H
  H43      1.0000 0.52180  0.92950  0.02580  Biso   1.000  H
  H44      1.0000 0.97820  0.57050  0.02580  Biso   1.000  H
  H45      1.0000 0.27180  0.82050  0.27580  Biso   1.000  H
  H46      1.0000 0.72820  0.17950  0.27580  Biso   1.000  H
  H47      1.0000 0.52180  0.42950  0.52580  Biso   1.000  H
  H48      1.0000 0.97820  0.07050  0.52580  Biso   1.000  H
  C65      1.0000 0.84430  0.27966  0.22480  Biso   1.000  C
  C66      1.0000 0.15570  0.72034  0.22480  Biso   1.000  C
  C67      1.0000 0.09430  0.97034  0.47480  Biso   1.000  C
  C68      1.0000 0.40570  0.52966  0.47480  Biso   1.000  C
  C69      1.0000 0.84430  0.77966  0.72480  Biso   1.000  C
  C70      1.0000 0.15570  0.22034  0.72480  Biso   1.000  C
  C71      1.0000 0.09430  0.47034  0.97480  Biso   1.000  C
  C72      1.0000 0.40570  0.02966  0.97480  Biso   1.000  C
  C73      1.0000 0.34430  0.27966  0.72480  Biso   1.000  C
  C74      1.0000 0.65570  0.72034  0.72480  Biso   1.000  C
  C75      1.0000 0.59430  0.97034  0.97480  Biso   1.000  C
  C76      1.0000 0.90570  0.52966  0.97480  Biso   1.000  C
  C77      1.0000 0.34430  0.77966  0.22480  Biso   1.000  C
  C78      1.0000 0.65570  0.22034  0.22480  Biso   1.000  C
  C79      1.0000 0.59430  0.47034  0.47480  Biso   1.000  C
  C80      1.0000 0.90570  0.02966  0.47480  Biso   1.000  C
  H49      1.0000 0.83800  0.28630  0.15520  Biso   1.000  H
  H50      1.0000 0.16200  0.71370  0.15520  Biso   1.000  H
  H51      1.0000 0.08800  0.96370  0.40520  Biso   1.000  H
  H52      1.0000 0.41200  0.53630  0.40520  Biso   1.000  H
  H53      1.0000 0.83800  0.78630  0.65520  Biso   1.000  H
  H54      1.0000 0.16200  0.21370  0.65520  Biso   1.000  H
  H55      1.0000 0.08800  0.46370  0.90520  Biso   1.000  H
  H56      1.0000 0.41200  0.03630  0.90520  Biso   1.000  H
  H57      1.0000 0.33800  0.28630  0.65520  Biso   1.000  H
  H58      1.0000 0.66200  0.71370  0.65520  Biso   1.000  H
  H59      1.0000 0.58800  0.96370  0.90520  Biso   1.000  H
  H60      1.0000 0.91200  0.53630  0.90520  Biso   1.000  H
  H61      1.0000 0.33800  0.78630  0.15520  Biso   1.000  H
  H62      1.0000 0.66200  0.21370  0.15520  Biso   1.000  H
  H63      1.0000 0.58800  0.46370  0.40520  Biso   1.000  H
  H64      1.0000 0.91200  0.03630  0.40520  Biso   1.000  H
  C81      1.0000 0.76960  0.31317  0.48530  Biso   1.000  C
  C82      1.0000 0.23040  0.68683  0.48530  Biso   1.000  C
  C83      1.0000 0.01960  0.93683  0.73530  Biso   1.000  C
  C84      1.0000 0.48040  0.56317  0.73530  Biso   1.000  C
  C85      1.0000 0.76960  0.81317  0.98530  Biso   1.000  C
  C86      1.0000 0.23040  0.18683  0.98530  Biso   1.000  C
  C87      1.0000 0.01960  0.43683  0.23530  Biso   1.000  C
  C88      1.0000 0.48040  0.06317  0.23530  Biso   1.000  C
  C89      1.0000 0.26960  0.31317  0.98530  Biso   1.000  C
  C90      1.0000 0.73040  0.68683  0.98530  Biso   1.000  C
  C91      1.0000 0.51960  0.93683  0.23530  Biso   1.000  C
  C92      1.0000 0.98040  0.56317  0.23530  Biso   1.000  C
  C93      1.0000 0.26960  0.81317  0.48530  Biso   1.000  C
  C94      1.0000 0.73040  0.18683  0.48530  Biso   1.000  C
  C95      1.0000 0.51960  0.43683  0.73530  Biso   1.000  C
  C96      1.0000 0.98040  0.06317  0.73530  Biso   1.000  C
  H65      1.0000 0.74730  0.29190  0.52720  Biso   1.000  H
  H66      1.0000 0.25270  0.70810  0.52720  Biso   1.000  H
  H67      1.0000 0.99730  0.95810  0.77720  Biso   1.000  H
  H68      1.0000 0.50270  0.54190  0.77720  Biso   1.000  H
  H69      1.0000 0.74730  0.79190  0.02720  Biso   1.000  H
  H70      1.0000 0.25270  0.20810  0.02720  Biso   1.000  H
  H71      1.0000 0.99730  0.45810  0.27720  Biso   1.000  H
  H72      1.0000 0.50270  0.04190  0.27720  Biso   1.000  H
  H73      1.0000 0.24730  0.29190  0.02720  Biso   1.000  H
  H74      1.0000 0.75270  0.70810  0.02720  Biso   1.000  H
  H75      1.0000 0.49730  0.95810  0.27720  Biso   1.000  H
  H76      1.0000 0.00270  0.54190  0.27720  Biso   1.000  H
  H77      1.0000 0.24730  0.79190  0.52720  Biso   1.000  H
  H78      1.0000 0.75270  0.20810  0.52720  Biso   1.000  H
  H79      1.0000 0.49730  0.45810  0.77720  Biso   1.000  H
  H80      1.0000 0.00270  0.04190  0.77720  Biso   1.000  H
  H81      1.0000 0.80200  0.32810  0.53020  Biso   1.000  H
  H82      1.0000 0.19800  0.67190  0.53020  Biso   1.000  H
  H83      1.0000 0.05200  0.92190  0.78020  Biso   1.000  H
  H84      1.0000 0.44800  0.57810  0.78020  Biso   1.000  H
  H85      1.0000 0.80200  0.82810  0.03020  Biso   1.000  H
  H86      1.0000 0.19800  0.17190  0.03020  Biso   1.000  H
  H87      1.0000 0.05200  0.42190  0.28020  Biso   1.000  H
  H88      1.0000 0.44800  0.07810  0.28020  Biso   1.000  H
  H89      1.0000 0.30200  0.32810  0.03020  Biso   1.000  H
  H90      1.0000 0.69800  0.67190  0.03020  Biso   1.000  H
  H91      1.0000 0.55200  0.92190  0.28020  Biso   1.000  H
  H92      1.0000 0.94800  0.57810  0.28020  Biso   1.000  H
  H93      1.0000 0.30200  0.82810  0.53020  Biso   1.000  H
  H94      1.0000 0.69800  0.17190  0.53020  Biso   1.000  H
  H95      1.0000 0.55200  0.42190  0.78020  Biso   1.000  H
  H96      1.0000 0.94800  0.07810  0.78020  Biso   1.000  H
  C97      1.0000 0.71370  0.34300  0.45100  Biso   1.000  C
  C98      1.0000 0.28630  0.65700  0.45100  Biso   1.000  C
  C99      1.0000 0.96370  0.90700  0.70100  Biso   1.000  C
  C100     1.0000 0.53630  0.59300  0.70100  Biso   1.000  C
  C101     1.0000 0.71370  0.84300  0.95100  Biso   1.000  C
  C102     1.0000 0.28630  0.15700  0.95100  Biso   1.000  C
  C103     1.0000 0.96370  0.40700  0.20100  Biso   1.000  C
  C104     1.0000 0.53630  0.09300  0.20100  Biso   1.000  C
  C105     1.0000 0.21370  0.34300  0.95100  Biso   1.000  C
  C106     1.0000 0.78630  0.65700  0.95100  Biso   1.000  C
  C107     1.0000 0.46370  0.90700  0.20100  Biso   1.000  C
  C108     1.0000 0.03630  0.59300  0.20100  Biso   1.000  C
  C109     1.0000 0.21370  0.84300  0.45100  Biso   1.000  C
  C110     1.0000 0.78630  0.15700  0.45100  Biso   1.000  C
  C111     1.0000 0.46370  0.40700  0.70100  Biso   1.000  C
  C112     1.0000 0.03630  0.09300  0.70100  Biso   1.000  C
  H97      1.0000 0.68500  0.32990  0.39800  Biso   1.000  H
  H98      1.0000 0.31500  0.67010  0.39800  Biso   1.000  H
  H99      1.0000 0.93500  0.92010  0.64800  Biso   1.000  H
  H100     1.0000 0.56500  0.57990  0.64800  Biso   1.000  H
  H101     1.0000 0.68500  0.82990  0.89800  Biso   1.000  H
  H102     1.0000 0.31500  0.17010  0.89800  Biso   1.000  H
  H103     1.0000 0.93500  0.42010  0.14800  Biso   1.000  H
  H104     1.0000 0.56500  0.07990  0.14800  Biso   1.000  H
  H105     1.0000 0.18500  0.32990  0.89800  Biso   1.000  H
  H106     1.0000 0.81500  0.67010  0.89800  Biso   1.000  H
  H107     1.0000 0.43500  0.92010  0.14800  Biso   1.000  H
  H108     1.0000 0.06500  0.57990  0.14800  Biso   1.000  H
  H109     1.0000 0.18500  0.82990  0.39800  Biso   1.000  H
  H110     1.0000 0.81500  0.17010  0.39800  Biso   1.000  H
  H111     1.0000 0.43500  0.42010  0.64800  Biso   1.000  H
  H112     1.0000 0.06500  0.07990  0.64800  Biso   1.000  H
  H113     1.0000 0.73600  0.36710  0.42010  Biso   1.000  H
  H114     1.0000 0.26400  0.63290  0.42010  Biso   1.000  H
  H115     1.0000 0.98600  0.88290  0.67010  Biso   1.000  H
  H116     1.0000 0.51400  0.61710  0.67010  Biso   1.000  H
  H117     1.0000 0.73600  0.86710  0.92010  Biso   1.000  H
  H118     1.0000 0.26400  0.13290  0.92010  Biso   1.000  H
  H119     1.0000 0.98600  0.38290  0.17010  Biso   1.000  H
  H120     1.0000 0.51400  0.11710  0.17010  Biso   1.000  H
  H121     1.0000 0.23600  0.36710  0.92010  Biso   1.000  H
  H122     1.0000 0.76400  0.63290  0.92010  Biso   1.000  H
  H123     1.0000 0.48600  0.88290  0.17010  Biso   1.000  H
  H124     1.0000 0.01400  0.61710  0.17010  Biso   1.000  H
  H125     1.0000 0.23600  0.86710  0.42010  Biso   1.000  H
  H126     1.0000 0.76400  0.13290  0.42010  Biso   1.000  H
  H127     1.0000 0.48600  0.38290  0.67010  Biso   1.000  H
  H128     1.0000 0.01400  0.11710  0.67010  Biso   1.000  H
  C113     1.0000 0.66630  0.35713  0.53900  Biso   1.000  C
  C114     1.0000 0.33370  0.64287  0.53900  Biso   1.000  C
  C115     1.0000 0.91630  0.89287  0.78900  Biso   1.000  C
  C116     1.0000 0.58370  0.60713  0.78900  Biso   1.000  C
  C117     1.0000 0.66630  0.85713  0.03900  Biso   1.000  C
  C118     1.0000 0.33370  0.14287  0.03900  Biso   1.000  C
  C119     1.0000 0.91630  0.39287  0.28900  Biso   1.000  C
  C120     1.0000 0.58370  0.10713  0.28900  Biso   1.000  C
  C121     1.0000 0.16630  0.35713  0.03900  Biso   1.000  C
  C122     1.0000 0.83370  0.64287  0.03900  Biso   1.000  C
  C123     1.0000 0.41630  0.89287  0.28900  Biso   1.000  C
  C124     1.0000 0.08370  0.60713  0.28900  Biso   1.000  C
  C125     1.0000 0.16630  0.85713  0.53900  Biso   1.000  C
  C126     1.0000 0.83370  0.14287  0.53900  Biso   1.000  C
  C127     1.0000 0.41630  0.39287  0.78900  Biso   1.000  C
  C128     1.0000 0.08370  0.10713  0.78900  Biso   1.000  C
  H129     1.0000 0.62750  0.37290  0.50960  Biso   1.000  H
  H130     1.0000 0.37250  0.62710  0.50960  Biso   1.000  H
  H131     1.0000 0.87750  0.87710  0.75960  Biso   1.000  H
  H132     1.0000 0.62250  0.62290  0.75960  Biso   1.000  H
  H133     1.0000 0.62750  0.87290  0.00960  Biso   1.000  H
  H134     1.0000 0.37250  0.12710  0.00960  Biso   1.000  H
  H135     1.0000 0.87750  0.37710  0.25960  Biso   1.000  H
  H136     1.0000 0.62250  0.12290  0.25960  Biso   1.000  H
  H137     1.0000 0.12750  0.37290  0.00960  Biso   1.000  H
  H138     1.0000 0.87250  0.62710  0.00960  Biso   1.000  H
  H139     1.0000 0.37750  0.87710  0.25960  Biso   1.000  H
  H140     1.0000 0.12250  0.62290  0.25960  Biso   1.000  H
  H141     1.0000 0.12750  0.87290  0.50960  Biso   1.000  H
  H142     1.0000 0.87250  0.12710  0.50960  Biso   1.000  H
  H143     1.0000 0.37750  0.37710  0.75960  Biso   1.000  H
  H144     1.0000 0.12250  0.12290  0.75960  Biso   1.000  H
  H145     1.0000 0.64640  0.33280  0.57210  Biso   1.000  H
  H146     1.0000 0.35360  0.66720  0.57210  Biso   1.000  H
  H147     1.0000 0.89640  0.91720  0.82210  Biso   1.000  H
  H148     1.0000 0.60360  0.58280  0.82210  Biso   1.000  H
  H149     1.0000 0.64640  0.83280  0.07210  Biso   1.000  H
  H150     1.0000 0.35360  0.16720  0.07210  Biso   1.000  H
  H151     1.0000 0.89640  0.41720  0.32210  Biso   1.000  H
  H152     1.0000 0.60360  0.08280  0.32210  Biso   1.000  H
  H153     1.0000 0.14640  0.33280  0.07210  Biso   1.000  H
  H154     1.0000 0.85360  0.66720  0.07210  Biso   1.000  H
  H155     1.0000 0.39640  0.91720  0.32210  Biso   1.000  H
  H156     1.0000 0.10360  0.58280  0.32210  Biso   1.000  H
  H157     1.0000 0.14640  0.83280  0.57210  Biso   1.000  H
  H158     1.0000 0.85360  0.16720  0.57210  Biso   1.000  H
  H159     1.0000 0.39640  0.41720  0.82210  Biso   1.000  H
  H160     1.0000 0.10360  0.08280  0.82210  Biso   1.000  H
  C129     1.0000 0.70150  0.38344  0.62150  Biso   1.000  C
  C130     1.0000 0.29850  0.61656  0.62150  Biso   1.000  C
  C131     1.0000 0.95150  0.86656  0.87150  Biso   1.000  C
  C132     1.0000 0.54850  0.63344  0.87150  Biso   1.000  C
  C133     1.0000 0.70150  0.88344  0.12150  Biso   1.000  C
  C134     1.0000 0.29850  0.11656  0.12150  Biso   1.000  C
  C135     1.0000 0.95150  0.36656  0.37150  Biso   1.000  C
  C136     1.0000 0.54850  0.13344  0.37150  Biso   1.000  C
  C137     1.0000 0.20150  0.38344  0.12150  Biso   1.000  C
  C138     1.0000 0.79850  0.61656  0.12150  Biso   1.000  C
  C139     1.0000 0.45150  0.86656  0.37150  Biso   1.000  C
  C140     1.0000 0.04850  0.63344  0.37150  Biso   1.000  C
  C141     1.0000 0.20150  0.88344  0.62150  Biso   1.000  C
  C142     1.0000 0.79850  0.11656  0.62150  Biso   1.000  C
  C143     1.0000 0.45150  0.36656  0.87150  Biso   1.000  C
  C144     1.0000 0.04850  0.13344  0.87150  Biso   1.000  C
  C145     1.0000 0.74410  0.41616  0.59720  Biso   1.000  C
  C146     1.0000 0.25590  0.58384  0.59720  Biso   1.000  C
  C147     1.0000 0.99410  0.83384  0.84720  Biso   1.000  C
  C148     1.0000 0.50590  0.66616  0.84720  Biso   1.000  C
  C149     1.0000 0.74410  0.91616  0.09720  Biso   1.000  C
  C150     1.0000 0.25590  0.08384  0.09720  Biso   1.000  C
  C151     1.0000 0.99410  0.33384  0.34720  Biso   1.000  C
  C152     1.0000 0.50590  0.16616  0.34720  Biso   1.000  C
  C153     1.0000 0.24410  0.41616  0.09720  Biso   1.000  C
  C154     1.0000 0.75590  0.58384  0.09720  Biso   1.000  C
  C155     1.0000 0.49410  0.83384  0.34720  Biso   1.000  C
  C156     1.0000 0.00590  0.66616  0.34720  Biso   1.000  C
  C157     1.0000 0.24410  0.91616  0.59720  Biso   1.000  C
  C158     1.0000 0.75590  0.08384  0.59720  Biso   1.000  C
  C159     1.0000 0.49410  0.33384  0.84720  Biso   1.000  C
  C160     1.0000 0.00590  0.16616  0.84720  Biso   1.000  C
  H161     1.0000 0.75450  0.42170  0.52810  Biso   1.000  H
  H162     1.0000 0.24550  0.57830  0.52810  Biso   1.000  H
  H163     1.0000 0.00450  0.82830  0.77810  Biso   1.000  H
  H164     1.0000 0.49550  0.67170  0.77810  Biso   1.000  H
  H165     1.0000 0.75450  0.92170  0.02810  Biso   1.000  H
  H166     1.0000 0.24550  0.07830  0.02810  Biso   1.000  H
  H167     1.0000 0.00450  0.32830  0.27810  Biso   1.000  H
  H168     1.0000 0.49550  0.17170  0.27810  Biso   1.000  H
  H169     1.0000 0.25450  0.42170  0.02810  Biso   1.000  H
  H170     1.0000 0.74550  0.57830  0.02810  Biso   1.000  H
  H171     1.0000 0.50450  0.82830  0.27810  Biso   1.000  H
  H172     1.0000 0.99550  0.67170  0.27810  Biso   1.000  H
  H173     1.0000 0.25450  0.92170  0.52810  Biso   1.000  H
  H174     1.0000 0.74550  0.07830  0.52810  Biso   1.000  H
  H175     1.0000 0.50450  0.32830  0.77810  Biso   1.000  H
  H176     1.0000 0.99550  0.17170  0.77810  Biso   1.000  H
  C161     1.0000 0.77180  0.44097  0.67410  Biso   1.000  C
  C162     1.0000 0.22820  0.55903  0.67410  Biso   1.000  C
  C163     1.0000 0.02180  0.80903  0.92410  Biso   1.000  C
  C164     1.0000 0.47820  0.69097  0.92410  Biso   1.000  C
  C165     1.0000 0.77180  0.94097  0.17410  Biso   1.000  C
  C166     1.0000 0.22820  0.05903  0.17410  Biso   1.000  C
  C167     1.0000 0.02180  0.30903  0.42410  Biso   1.000  C
  C168     1.0000 0.47820  0.19097  0.42410  Biso   1.000  C
  C169     1.0000 0.27180  0.44097  0.17410  Biso   1.000  C
  C170     1.0000 0.72820  0.55903  0.17410  Biso   1.000  C
  C171     1.0000 0.52180  0.80903  0.42410  Biso   1.000  C
  C172     1.0000 0.97820  0.69097  0.42410  Biso   1.000  C
  C173     1.0000 0.27180  0.94097  0.67410  Biso   1.000  C
  C174     1.0000 0.72820  0.05903  0.67410  Biso   1.000  C
  C175     1.0000 0.52180  0.30903  0.92410  Biso   1.000  C
  C176     1.0000 0.97820  0.19097  0.92410  Biso   1.000  C
  H177     1.0000 0.80000  0.46320  0.65470  Biso   1.000  H
  H178     1.0000 0.20000  0.53680  0.65470  Biso   1.000  H
  H179     1.0000 0.05000  0.78680  0.90470  Biso   1.000  H
  H180     1.0000 0.45000  0.71320  0.90470  Biso   1.000  H
  H181     1.0000 0.80000  0.96320  0.15470  Biso   1.000  H
  H182     1.0000 0.20000  0.03680  0.15470  Biso   1.000  H
  H183     1.0000 0.05000  0.28680  0.40470  Biso   1.000  H
  H184     1.0000 0.45000  0.21320  0.40470  Biso   1.000  H
  H185     1.0000 0.30000  0.46320  0.15470  Biso   1.000  H
  H186     1.0000 0.70000  0.53680  0.15470  Biso   1.000  H
  H187     1.0000 0.55000  0.78680  0.40470  Biso   1.000  H
  H188     1.0000 0.95000  0.71320  0.40470  Biso   1.000  H
  H189     1.0000 0.30000  0.96320  0.65470  Biso   1.000  H
  H190     1.0000 0.70000  0.03680  0.65470  Biso   1.000  H
  H191     1.0000 0.55000  0.28680  0.90470  Biso   1.000  H
  H192     1.0000 0.95000  0.21320  0.90470  Biso   1.000  H
  C177     1.0000 0.72000  0.40184  0.79890  Biso   1.000  C
  C178     1.0000 0.28000  0.59816  0.79890  Biso   1.000  C
  C179     1.0000 0.97000  0.84816  0.04890  Biso   1.000  C
  C180     1.0000 0.53000  0.65184  0.04890  Biso   1.000  C
  C181     1.0000 0.72000  0.90184  0.29890  Biso   1.000  C
  C182     1.0000 0.28000  0.09816  0.29890  Biso   1.000  C
  C183     1.0000 0.97000  0.34816  0.54890  Biso   1.000  C
  C184     1.0000 0.53000  0.15184  0.54890  Biso   1.000  C
  C185     1.0000 0.22000  0.40184  0.29890  Biso   1.000  C
  C186     1.0000 0.78000  0.59816  0.29890  Biso   1.000  C
  C187     1.0000 0.47000  0.84816  0.54890  Biso   1.000  C
  C188     1.0000 0.03000  0.65184  0.54890  Biso   1.000  C
  C189     1.0000 0.22000  0.90184  0.79890  Biso   1.000  C
  C190     1.0000 0.78000  0.09816  0.79890  Biso   1.000  C
  C191     1.0000 0.47000  0.34816  0.04890  Biso   1.000  C
  C192     1.0000 0.03000  0.15184  0.04890  Biso   1.000  C
  H193     1.0000 0.71150  0.39650  0.86870  Biso   1.000  H
  H194     1.0000 0.28850  0.60350  0.86870  Biso   1.000  H
  H195     1.0000 0.96150  0.85350  0.11870  Biso   1.000  H
  H196     1.0000 0.53850  0.64650  0.11870  Biso   1.000  H
  H197     1.0000 0.71150  0.89650  0.36870  Biso   1.000  H
  H198     1.0000 0.28850  0.10350  0.36870  Biso   1.000  H
  H199     1.0000 0.96150  0.35350  0.61870  Biso   1.000  H
  H200     1.0000 0.53850  0.14650  0.61870  Biso   1.000  H
  H201     1.0000 0.21150  0.39650  0.36870  Biso   1.000  H
  H202     1.0000 0.78850  0.60350  0.36870  Biso   1.000  H
  H203     1.0000 0.46150  0.85350  0.61870  Biso   1.000  H
  H204     1.0000 0.03850  0.64650  0.61870  Biso   1.000  H
  H205     1.0000 0.21150  0.89650  0.86870  Biso   1.000  H
  H206     1.0000 0.78850  0.10350  0.86870  Biso   1.000  H
  H207     1.0000 0.46150  0.35350  0.11870  Biso   1.000  H
  H208     1.0000 0.03850  0.14650  0.11870  Biso   1.000  H
  C193     1.0000 0.69050  0.37572  0.72710  Biso   1.000  C
  C194     1.0000 0.30950  0.62428  0.72710  Biso   1.000  C
  C195     1.0000 0.94050  0.87428  0.97710  Biso   1.000  C
  C196     1.0000 0.55950  0.62572  0.97710  Biso   1.000  C
  C197     1.0000 0.69050  0.87572  0.22710  Biso   1.000  C
  C198     1.0000 0.30950  0.12428  0.22710  Biso   1.000  C
  C199     1.0000 0.94050  0.37428  0.47710  Biso   1.000  C
  C200     1.0000 0.55950  0.12572  0.47710  Biso   1.000  C
  C201     1.0000 0.19050  0.37572  0.22710  Biso   1.000  C
  C202     1.0000 0.80950  0.62428  0.22710  Biso   1.000  C
  C203     1.0000 0.44050  0.87428  0.47710  Biso   1.000  C
  C204     1.0000 0.05950  0.62572  0.47710  Biso   1.000  C
  C205     1.0000 0.19050  0.87572  0.72710  Biso   1.000  C
  C206     1.0000 0.80950  0.12428  0.72710  Biso   1.000  C
  C207     1.0000 0.44050  0.37428  0.97710  Biso   1.000  C
  C208     1.0000 0.05950  0.12572  0.97710  Biso   1.000  C
  H209     1.0000 0.66360  0.35320  0.74830  Biso   1.000  H
  H210     1.0000 0.33640  0.64680  0.74830  Biso   1.000  H
  H211     1.0000 0.91360  0.89680  0.99830  Biso   1.000  H
  H212     1.0000 0.58640  0.60320  0.99830  Biso   1.000  H
  H213     1.0000 0.66360  0.85320  0.24830  Biso   1.000  H
  H214     1.0000 0.33640  0.14680  0.24830  Biso   1.000  H
  H215     1.0000 0.91360  0.39680  0.49830  Biso   1.000  H
  H216     1.0000 0.58640  0.10320  0.49830  Biso   1.000  H
  H217     1.0000 0.16360  0.35320  0.24830  Biso   1.000  H
  H218     1.0000 0.83640  0.64680  0.24830  Biso   1.000  H
  H219     1.0000 0.41360  0.89680  0.49830  Biso   1.000  H
  H220     1.0000 0.08640  0.60320  0.49830  Biso   1.000  H
  H221     1.0000 0.16360  0.85320  0.74830  Biso   1.000  H
  H222     1.0000 0.83640  0.14680  0.74830  Biso   1.000  H
  H223     1.0000 0.41360  0.39680  0.99830  Biso   1.000  H
  H224     1.0000 0.08640  0.10320  0.99830  Biso   1.000  H
  C209     1.0000 0.08260  0.23450  0.22370  Biso   1.000  C
  C210     1.0000 0.91740  0.76550  0.22370  Biso   1.000  C
  C211     1.0000 0.33260  0.01550  0.47370  Biso   1.000  C
  C212     1.0000 0.16740  0.48450  0.47370  Biso   1.000  C
  C213     1.0000 0.08260  0.73450  0.72370  Biso   1.000  C
  C214     1.0000 0.91740  0.26550  0.72370  Biso   1.000  C
  C215     1.0000 0.33260  0.51550  0.97370  Biso   1.000  C
  C216     1.0000 0.16740  0.98450  0.97370  Biso   1.000  C
  C217     1.0000 0.58260  0.23450  0.72370  Biso   1.000  C
  C218     1.0000 0.41740  0.76550  0.72370  Biso   1.000  C
  C219     1.0000 0.83260  0.01550  0.97370  Biso   1.000  C
  C220     1.0000 0.66740  0.48450  0.97370  Biso   1.000  C
  C221     1.0000 0.58260  0.73450  0.22370  Biso   1.000  C
  C222     1.0000 0.41740  0.26550  0.22370  Biso   1.000  C
  C223     1.0000 0.83260  0.51550  0.47370  Biso   1.000  C
  C224     1.0000 0.66740  0.98450  0.47370  Biso   1.000  C
  C225     1.0000 0.14330  0.21700  0.28680  Biso   1.000  C
  C226     1.0000 0.85670  0.78300  0.28680  Biso   1.000  C
  C227     1.0000 0.39330  0.03300  0.53680  Biso   1.000  C
  C228     1.0000 0.10670  0.46700  0.53680  Biso   1.000  C
  C229     1.0000 0.14330  0.71700  0.78680  Biso   1.000  C
  C230     1.0000 0.85670  0.28300  0.78680  Biso   1.000  C
  C231     1.0000 0.39330  0.53300  0.03680  Biso   1.000  C
  C232     1.0000 0.10670  0.96700  0.03680  Biso   1.000  C
  C233     1.0000 0.64330  0.21700  0.78680  Biso   1.000  C
  C234     1.0000 0.35670  0.78300  0.78680  Biso   1.000  C
  C235     1.0000 0.89330  0.03300  0.03680  Biso   1.000  C
  C236     1.0000 0.60670  0.46700  0.03680  Biso   1.000  C
  C237     1.0000 0.64330  0.71700  0.28680  Biso   1.000  C
  C238     1.0000 0.35670  0.28300  0.28680  Biso   1.000  C
  C239     1.0000 0.89330  0.53300  0.53680  Biso   1.000  C
  C240     1.0000 0.60670  0.96700  0.53680  Biso   1.000  C
  H225     1.0000 0.18460  0.23360  0.27590  Biso   1.000  H
  H226     1.0000 0.81540  0.76640  0.27590  Biso   1.000  H
  H227     1.0000 0.43460  0.01640  0.52590  Biso   1.000  H
  H228     1.0000 0.06540  0.48360  0.52590  Biso   1.000  H
  H229     1.0000 0.18460  0.73360  0.77590  Biso   1.000  H
  H230     1.0000 0.81540  0.26640  0.77590  Biso   1.000  H
  H231     1.0000 0.43460  0.51640  0.02590  Biso   1.000  H
  H232     1.0000 0.06540  0.98360  0.02590  Biso   1.000  H
  H233     1.0000 0.68460  0.23360  0.77590  Biso   1.000  H
  H234     1.0000 0.31540  0.76640  0.77590  Biso   1.000  H
  H235     1.0000 0.93460  0.01640  0.02590  Biso   1.000  H
  H236     1.0000 0.56540  0.48360  0.02590  Biso   1.000  H
  H237     1.0000 0.68460  0.73360  0.27590  Biso   1.000  H
  H238     1.0000 0.31540  0.26640  0.27590  Biso   1.000  H
  H239     1.0000 0.93460  0.51640  0.52590  Biso   1.000  H
  H240     1.0000 0.56540  0.98360  0.52590  Biso   1.000  H
  H241     1.0000 0.15250  0.18900  0.26520  Biso   1.000  H
  H242     1.0000 0.84750  0.81100  0.26520  Biso   1.000  H
  H243     1.0000 0.40250  0.06100  0.51520  Biso   1.000  H
  H244     1.0000 0.09750  0.43900  0.51520  Biso   1.000  H
  H245     1.0000 0.15250  0.68900  0.76520  Biso   1.000  H
  H246     1.0000 0.84750  0.31100  0.76520  Biso   1.000  H
  H247     1.0000 0.40250  0.56100  0.01520  Biso   1.000  H
  H248     1.0000 0.09750  0.93900  0.01520  Biso   1.000  H
  H249     1.0000 0.65250  0.18900  0.76520  Biso   1.000  H
  H250     1.0000 0.34750  0.81100  0.76520  Biso   1.000  H
  H251     1.0000 0.90250  0.06100  0.01520  Biso   1.000  H
  H252     1.0000 0.59750  0.43900  0.01520  Biso   1.000  H
  H253     1.0000 0.65250  0.68900  0.26520  Biso   1.000  H
  H254     1.0000 0.34750  0.31100  0.26520  Biso   1.000  H
  H255     1.0000 0.90250  0.56100  0.51520  Biso   1.000  H
  H256     1.0000 0.59750  0.93900  0.51520  Biso   1.000  H
  H257     1.0000 0.13110  0.21720  0.35910  Biso   1.000  H
  H258     1.0000 0.86890  0.78280  0.35910  Biso   1.000  H
  H259     1.0000 0.38110  0.03280  0.60910  Biso   1.000  H
  H260     1.0000 0.11890  0.46720  0.60910  Biso   1.000  H
  H261     1.0000 0.13110  0.71720  0.85910  Biso   1.000  H
  H262     1.0000 0.86890  0.28280  0.85910  Biso   1.000  H
  H263     1.0000 0.38110  0.53280  0.10910  Biso   1.000  H
  H264     1.0000 0.11890  0.96720  0.10910  Biso   1.000  H
  H265     1.0000 0.63110  0.21720  0.85910  Biso   1.000  H
  H266     1.0000 0.36890  0.78280  0.85910  Biso   1.000  H
  H267     1.0000 0.88110  0.03280  0.10910  Biso   1.000  H
  H268     1.0000 0.61890  0.46720  0.10910  Biso   1.000  H
  H269     1.0000 0.63110  0.71720  0.35910  Biso   1.000  H
  H270     1.0000 0.36890  0.28280  0.35910  Biso   1.000  H
  H271     1.0000 0.88110  0.53280  0.60910  Biso   1.000  H
  H272     1.0000 0.61890  0.96720  0.60910  Biso   1.000  H
  C241     1.0000 0.82260  0.18980  0.06270  Biso   1.000  C
  C242     1.0000 0.17740  0.81020  0.06270  Biso   1.000  C
  C243     1.0000 0.07260  0.06020  0.31270  Biso   1.000  C
  C244     1.0000 0.42740  0.43980  0.31270  Biso   1.000  C
  C245     1.0000 0.82260  0.68980  0.56270  Biso   1.000  C
  C246     1.0000 0.17740  0.31020  0.56270  Biso   1.000  C
  C247     1.0000 0.07260  0.56020  0.81270  Biso   1.000  C
  C248     1.0000 0.42740  0.93980  0.81270  Biso   1.000  C
  C249     1.0000 0.32260  0.18980  0.56270  Biso   1.000  C
  C250     1.0000 0.67740  0.81020  0.56270  Biso   1.000  C
  C251     1.0000 0.57260  0.06020  0.81270  Biso   1.000  C
  C252     1.0000 0.92740  0.43980  0.81270  Biso   1.000  C
  C253     1.0000 0.32260  0.68980  0.06270  Biso   1.000  C
  C254     1.0000 0.67740  0.31020  0.06270  Biso   1.000  C
  C255     1.0000 0.57260  0.56020  0.31270  Biso   1.000  C
  C256     1.0000 0.92740  0.93980  0.31270  Biso   1.000  C
  C257     1.0000 0.75900  0.18580  0.99200  Biso   1.000  C
  C258     1.0000 0.24100  0.81420  0.99200  Biso   1.000  C
  C259     1.0000 0.00900  0.06420  0.24200  Biso   1.000  C
  C260     1.0000 0.49100  0.43580  0.24200  Biso   1.000  C
  C261     1.0000 0.75900  0.68580  0.49200  Biso   1.000  C
  C262     1.0000 0.24100  0.31420  0.49200  Biso   1.000  C
  C263     1.0000 0.00900  0.56420  0.74200  Biso   1.000  C
  C264     1.0000 0.49100  0.93580  0.74200  Biso   1.000  C
  C265     1.0000 0.25900  0.18580  0.49200  Biso   1.000  C
  C266     1.0000 0.74100  0.81420  0.49200  Biso   1.000  C
  C267     1.0000 0.50900  0.06420  0.74200  Biso   1.000  C
  C268     1.0000 0.99100  0.43580  0.74200  Biso   1.000  C
  C269     1.0000 0.25900  0.68580  0.99200  Biso   1.000  C
  C270     1.0000 0.74100  0.31420  0.99200  Biso   1.000  C
  C271     1.0000 0.50900  0.56420  0.24200  Biso   1.000  C
  C272     1.0000 0.99100  0.93580  0.24200  Biso   1.000  C
  H273     1.0000 0.73020  0.16310  0.01490  Biso   1.000  H
  H274     1.0000 0.26980  0.83690  0.01490  Biso   1.000  H
  H275     1.0000 0.98020  0.08690  0.26490  Biso   1.000  H
  H276     1.0000 0.51980  0.41310  0.26490  Biso   1.000  H
  H277     1.0000 0.73020  0.66310  0.51490  Biso   1.000  H
  H278     1.0000 0.26980  0.33690  0.51490  Biso   1.000  H
  H279     1.0000 0.98020  0.58690  0.76490  Biso   1.000  H
  H280     1.0000 0.51980  0.91310  0.76490  Biso   1.000  H
  H281     1.0000 0.23020  0.16310  0.51490  Biso   1.000  H
  H282     1.0000 0.76980  0.83690  0.51490  Biso   1.000  H
  H283     1.0000 0.48020  0.08690  0.76490  Biso   1.000  H
  H284     1.0000 0.01980  0.41310  0.76490  Biso   1.000  H
  H285     1.0000 0.23020  0.66310  0.01490  Biso   1.000  H
  H286     1.0000 0.76980  0.33690  0.01490  Biso   1.000  H
  H287     1.0000 0.48020  0.58690  0.26490  Biso   1.000  H
  H288     1.0000 0.01980  0.91310  0.26490  Biso   1.000  H
  H289     1.0000 0.77450  0.18070  0.92220  Biso   1.000  H
  H290     1.0000 0.22550  0.81930  0.92220  Biso   1.000  H
  H291     1.0000 0.02450  0.06930  0.17220  Biso   1.000  H
  H292     1.0000 0.47550  0.43070  0.17220  Biso   1.000  H
  H293     1.0000 0.77450  0.68070  0.42220  Biso   1.000  H
  H294     1.0000 0.22550  0.31930  0.42220  Biso   1.000  H
  H295     1.0000 0.02450  0.56930  0.67220  Biso   1.000  H
  H296     1.0000 0.47550  0.93070  0.67220  Biso   1.000  H
  H297     1.0000 0.27450  0.18070  0.42220  Biso   1.000  H
  H298     1.0000 0.72550  0.81930  0.42220  Biso   1.000  H
  H299     1.0000 0.52450  0.06930  0.67220  Biso   1.000  H
  H300     1.0000 0.97550  0.43070  0.67220  Biso   1.000  H
  H301     1.0000 0.27450  0.68070  0.92220  Biso   1.000  H
  H302     1.0000 0.72550  0.31930  0.92220  Biso   1.000  H
  H303     1.0000 0.52450  0.56930  0.17220  Biso   1.000  H
  H304     1.0000 0.97550  0.93070  0.17220  Biso   1.000  H
  H305     1.0000 0.73220  0.21100  0.99410  Biso   1.000  H
  H306     1.0000 0.26780  0.78900  0.99410  Biso   1.000  H
  H307     1.0000 0.98220  0.03900  0.24410  Biso   1.000  H
  H308     1.0000 0.51780  0.46100  0.24410  Biso   1.000  H
  H309     1.0000 0.73220  0.71100  0.49410  Biso   1.000  H
  H310     1.0000 0.26780  0.28900  0.49410  Biso   1.000  H
  H311     1.0000 0.98220  0.53900  0.74410  Biso   1.000  H
  H312     1.0000 0.51780  0.96100  0.74410  Biso   1.000  H
  H313     1.0000 0.23220  0.21100  0.49410  Biso   1.000  H
  H314     1.0000 0.76780  0.78900  0.49410  Biso   1.000  H
  H315     1.0000 0.48220  0.03900  0.74410  Biso   1.000  H
  H316     1.0000 0.01780  0.46100  0.74410  Biso   1.000  H
  H317     1.0000 0.23220  0.71100  0.99410  Biso   1.000  H
  H318     1.0000 0.76780  0.28900  0.99410  Biso   1.000  H
  H319     1.0000 0.48220  0.53900  0.24410  Biso   1.000  H
  H320     1.0000 0.01780  0.96100  0.24410  Biso   1.000  H
  O65      1.0000 0.97790  0.28664  0.06580  Biso   1.000  O
  O66      1.0000 0.02210  0.71336  0.06580  Biso   1.000  O
  O67      1.0000 0.22790  0.96336  0.31580  Biso   1.000  O
  O68      1.0000 0.27210  0.53664  0.31580  Biso   1.000  O
  O69      1.0000 0.97790  0.78664  0.56580  Biso   1.000  O
  O70      1.0000 0.02210  0.21336  0.56580  Biso   1.000  O
  O71      1.0000 0.22790  0.46336  0.81580  Biso   1.000  O
  O72      1.0000 0.27210  0.03664  0.81580  Biso   1.000  O
  O73      1.0000 0.47790  0.28664  0.56580  Biso   1.000  O
  O74      1.0000 0.52210  0.71336  0.56580  Biso   1.000  O
  O75      1.0000 0.72790  0.96336  0.81580  Biso   1.000  O
  O76      1.0000 0.77210  0.53664  0.81580  Biso   1.000  O
  O77      1.0000 0.47790  0.78664  0.06580  Biso   1.000  O
  O78      1.0000 0.52210  0.21336  0.06580  Biso   1.000  O
  O79      1.0000 0.72790  0.46336  0.31580  Biso   1.000  O
  O80      1.0000 0.77210  0.03664  0.31580  Biso   1.000  O
  H321     1.0000 0.01750  0.27600  0.07310  Biso   1.000  H
  H322     1.0000 0.98250  0.72400  0.07310  Biso   1.000  H
  H323     1.0000 0.26750  0.97400  0.32310  Biso   1.000  H
  H324     1.0000 0.23250  0.52600  0.32310  Biso   1.000  H
  H325     1.0000 0.01750  0.77600  0.57310  Biso   1.000  H
  H326     1.0000 0.98250  0.22400  0.57310  Biso   1.000  H
  H327     1.0000 0.26750  0.47400  0.82310  Biso   1.000  H
  H328     1.0000 0.23250  0.02600  0.82310  Biso   1.000  H
  H329     1.0000 0.51750  0.27600  0.57310  Biso   1.000  H
  H330     1.0000 0.48250  0.72400  0.57310  Biso   1.000  H
  H331     1.0000 0.76750  0.97400  0.82310  Biso   1.000  H
  H332     1.0000 0.73250  0.52600  0.82310  Biso   1.000  H
  H333     1.0000 0.51750  0.77600  0.07310  Biso   1.000  H
  H334     1.0000 0.48250  0.22400  0.07310  Biso   1.000  H
  H335     1.0000 0.76750  0.47400  0.32310  Biso   1.000  H
  H336     1.0000 0.73250  0.02600  0.32310  Biso   1.000  H
  H337     1.0000 0.97950  0.30680  0.02570  Biso   1.000  H
  H338     1.0000 0.02050  0.69320  0.02570  Biso   1.000  H
  H339     1.0000 0.22950  0.94320  0.27570  Biso   1.000  H
  H340     1.0000 0.27050  0.55680  0.27570  Biso   1.000  H
  H341     1.0000 0.97950  0.80680  0.52570  Biso   1.000  H
  H342     1.0000 0.02050  0.19320  0.52570  Biso   1.000  H
  H343     1.0000 0.22950  0.44320  0.77570  Biso   1.000  H
  H344     1.0000 0.27050  0.05680  0.77570  Biso   1.000  H
  H345     1.0000 0.47950  0.30680  0.52570  Biso   1.000  H
  H346     1.0000 0.52050  0.69320  0.52570  Biso   1.000  H
  H347     1.0000 0.72950  0.94320  0.77570  Biso   1.000  H
  H348     1.0000 0.77050  0.55680  0.77570  Biso   1.000  H
  H349     1.0000 0.47950  0.80680  0.02570  Biso   1.000  H
  H350     1.0000 0.52050  0.19320  0.02570  Biso   1.000  H
  H351     1.0000 0.72950  0.44320  0.27570  Biso   1.000  H
  H352     1.0000 0.77050  0.05680  0.27570  Biso   1.000  H
  O81      1.0000 0.75940  0.09240  0.15070  Biso   1.000  O
  O82      1.0000 0.24060  0.90760  0.15070  Biso   1.000  O
  O83      1.0000 0.00940  0.15760  0.40070  Biso   1.000  O
  O84      1.0000 0.49060  0.34240  0.40070  Biso   1.000  O
  O85      1.0000 0.75940  0.59240  0.65070  Biso   1.000  O
  O86      1.0000 0.24060  0.40760  0.65070  Biso   1.000  O
  O87      1.0000 0.00940  0.65760  0.90070  Biso   1.000  O
  O88      1.0000 0.49060  0.84240  0.90070  Biso   1.000  O
  O89      1.0000 0.25940  0.09240  0.65070  Biso   1.000  O
  O90      1.0000 0.74060  0.90760  0.65070  Biso   1.000  O
  O91      1.0000 0.50940  0.15760  0.90070  Biso   1.000  O
  O92      1.0000 0.99060  0.34240  0.90070  Biso   1.000  O
  O93      1.0000 0.25940  0.59240  0.15070  Biso   1.000  O
  O94      1.0000 0.74060  0.40760  0.15070  Biso   1.000  O
  O95      1.0000 0.50940  0.65760  0.40070  Biso   1.000  O
  O96      1.0000 0.99060  0.84240  0.40070  Biso   1.000  O
  H353     1.0000 0.78130  0.11400  0.16470  Biso   1.000  H
  H354     1.0000 0.21870  0.88600  0.16470  Biso   1.000  H
  H355     1.0000 0.03130  0.13600  0.41470  Biso   1.000  H
  H356     1.0000 0.46870  0.36400  0.41470  Biso   1.000  H
  H357     1.0000 0.78130  0.61400  0.66470  Biso   1.000  H
  H358     1.0000 0.21870  0.38600  0.66470  Biso   1.000  H
  H359     1.0000 0.03130  0.63600  0.91470  Biso   1.000  H
  H360     1.0000 0.46870  0.86400  0.91470  Biso   1.000  H
  H361     1.0000 0.28130  0.11400  0.66470  Biso   1.000  H
  H362     1.0000 0.71870  0.88600  0.66470  Biso   1.000  H
  H363     1.0000 0.53130  0.13600  0.91470  Biso   1.000  H
  H364     1.0000 0.96870  0.36400  0.91470  Biso   1.000  H
  H365     1.0000 0.28130  0.61400  0.16470  Biso   1.000  H
  H366     1.0000 0.71870  0.38600  0.16470  Biso   1.000  H
  H367     1.0000 0.53130  0.63600  0.41470  Biso   1.000  H
  H368     1.0000 0.96870  0.86400  0.41470  Biso   1.000  H
  H369     1.0000 0.76430  0.07620  0.09930  Biso   1.000  H
  H370     1.0000 0.23570  0.92380  0.09930  Biso   1.000  H
  H371     1.0000 0.01430  0.17380  0.34930  Biso   1.000  H
  H372     1.0000 0.48570  0.32620  0.34930  Biso   1.000  H
  H373     1.0000 0.76430  0.57620  0.59930  Biso   1.000  H
  H374     1.0000 0.23570  0.42380  0.59930  Biso   1.000  H
  H375     1.0000 0.01430  0.67380  0.84930  Biso   1.000  H
  H376     1.0000 0.48570  0.82620  0.84930  Biso   1.000  H
  H377     1.0000 0.26430  0.07620  0.59930  Biso   1.000  H
  H378     1.0000 0.73570  0.92380  0.59930  Biso   1.000  H
  H379     1.0000 0.51430  0.17380  0.84930  Biso   1.000  H
  H380     1.0000 0.98570  0.32620  0.84930  Biso   1.000  H
  H381     1.0000 0.26430  0.57620  0.09930  Biso   1.000  H
  H382     1.0000 0.73570  0.42380  0.09930  Biso   1.000  H
  H383     1.0000 0.51430  0.67380  0.34930  Biso   1.000  H
  H384     1.0000 0.98570  0.82620  0.34930  Biso   1.000  H
