data_image0
_cell_length_a       26.9768
_cell_length_b       20.254
_cell_length_c       19.6918
_cell_angle_alpha    90
_cell_angle_beta     131.556
_cell_angle_gamma    90

_symmetry_space_group_name_H-M    "P 1"
_symmetry_int_tables_number       1

loop_
  _symmetry_equiv_pos_as_xyz
  'x, y, z'

loop_
  _atom_site_label
  _atom_site_occupancy
  _atom_site_fract_x
  _atom_site_fract_y
  _atom_site_fract_z
  _atom_site_thermal_displace_type
  _atom_site_B_iso_or_equiv
  _atom_site_type_symbol
  Cu1      1.0000 0.16275  0.13757  0.26566  Biso   1.000  Cu
  Cu2      1.0000 0.83725  0.13757  0.23434  Biso   1.000  Cu
  Cu3      1.0000 0.66275  0.63757  0.26566  Biso   1.000  Cu
  Cu4      1.0000 0.33725  0.63757  0.23434  Biso   1.000  Cu
  Cu5      1.0000 0.83725  0.86243  0.73434  Biso   1.000  Cu
  Cu6      1.0000 0.16275  0.86243  0.76566  Biso   1.000  Cu
  Cu7      1.0000 0.33725  0.36243  0.73434  Biso   1.000  Cu
  Cu8      1.0000 0.66275  0.36243  0.76566  Biso   1.000  Cu
  N1       1.0000 0.13100  0.07140  0.30560  Biso   1.000  N
  N2       1.0000 0.86900  0.07140  0.19440  Biso   1.000  N
  N3       1.0000 0.63100  0.57140  0.30560  Biso   1.000  N
  N4       1.0000 0.36900  0.57140  0.19440  Biso   1.000  N
  N5       1.0000 0.86900  0.92860  0.69440  Biso   1.000  N
  N6       1.0000 0.13100  0.92860  0.80560  Biso   1.000  N
  N7       1.0000 0.36900  0.42860  0.69440  Biso   1.000  N
  N8       1.0000 0.63100  0.42860  0.80560  Biso   1.000  N
  C1       1.0000 0.11680  0.00840  0.27600  Biso   1.000  C
  C2       1.0000 0.88320  0.00840  0.22400  Biso   1.000  C
  C3       1.0000 0.61680  0.50840  0.27600  Biso   1.000  C
  C4       1.0000 0.38320  0.50840  0.22400  Biso   1.000  C
  C5       1.0000 0.88320  0.99160  0.72400  Biso   1.000  C
  C6       1.0000 0.11680  0.99160  0.77600  Biso   1.000  C
  C7       1.0000 0.38320  0.49160  0.72400  Biso   1.000  C
  C8       1.0000 0.61680  0.49160  0.77600  Biso   1.000  C
  H1       1.0000 0.12110  0.99530  0.23380  Biso   1.000  H
  H2       1.0000 0.87890  0.99530  0.26620  Biso   1.000  H
  H3       1.0000 0.62110  0.49530  0.23380  Biso   1.000  H
  H4       1.0000 0.37890  0.49530  0.26620  Biso   1.000  H
  H5       1.0000 0.87890  0.00470  0.76620  Biso   1.000  H
  H6       1.0000 0.12110  0.00470  0.73380  Biso   1.000  H
  H7       1.0000 0.37890  0.50470  0.76620  Biso   1.000  H
  H8       1.0000 0.62110  0.50470  0.73380  Biso   1.000  H
  C9       1.0000 0.09630  0.96240  0.30430  Biso   1.000  C
  C10      1.0000 0.90370  0.96240  0.19570  Biso   1.000  C
  C11      1.0000 0.59630  0.46240  0.30430  Biso   1.000  C
  C12      1.0000 0.40370  0.46240  0.19570  Biso   1.000  C
  C13      1.0000 0.90370  0.03760  0.69570  Biso   1.000  C
  C14      1.0000 0.09630  0.03760  0.80430  Biso   1.000  C
  C15      1.0000 0.40370  0.53760  0.69570  Biso   1.000  C
  C16      1.0000 0.59630  0.53760  0.80430  Biso   1.000  C
  H9       1.0000 0.08590  0.91870  0.28080  Biso   1.000  H
  H10      1.0000 0.91410  0.91870  0.21920  Biso   1.000  H
  H11      1.0000 0.58590  0.41870  0.28080  Biso   1.000  H
  H12      1.0000 0.41410  0.41870  0.21920  Biso   1.000  H
  H13      1.0000 0.91410  0.08130  0.71920  Biso   1.000  H
  H14      1.0000 0.08590  0.08130  0.78080  Biso   1.000  H
  H15      1.0000 0.41410  0.58130  0.71920  Biso   1.000  H
  H16      1.0000 0.58590  0.58130  0.78080  Biso   1.000  H
  C17      1.0000 0.09070  0.98010  0.36730  Biso   1.000  C
  C18      1.0000 0.90930  0.98010  0.13270  Biso   1.000  C
  C19      1.0000 0.59070  0.48010  0.36730  Biso   1.000  C
  C20      1.0000 0.40930  0.48010  0.13270  Biso   1.000  C
  C21      1.0000 0.90930  0.01990  0.63270  Biso   1.000  C
  C22      1.0000 0.09070  0.01990  0.86730  Biso   1.000  C
  C23      1.0000 0.40930  0.51990  0.63270  Biso   1.000  C
  C24      1.0000 0.59070  0.51990  0.86730  Biso   1.000  C
  C25      1.0000 0.10480  0.04500  0.39680  Biso   1.000  C
  C26      1.0000 0.89520  0.04500  0.10320  Biso   1.000  C
  C27      1.0000 0.60480  0.54500  0.39680  Biso   1.000  C
  C28      1.0000 0.39520  0.54500  0.10320  Biso   1.000  C
  C29      1.0000 0.89520  0.95500  0.60320  Biso   1.000  C
  C30      1.0000 0.10480  0.95500  0.89680  Biso   1.000  C
  C31      1.0000 0.39520  0.45500  0.60320  Biso   1.000  C
  C32      1.0000 0.60480  0.45500  0.89680  Biso   1.000  C
  H17      1.0000 0.10140  0.05930  0.43940  Biso   1.000  H
  H18      1.0000 0.89860  0.05930  0.06060  Biso   1.000  H
  H19      1.0000 0.60140  0.55930  0.43940  Biso   1.000  H
  H20      1.0000 0.39860  0.55930  0.06060  Biso   1.000  H
  H21      1.0000 0.89860  0.94070  0.56060  Biso   1.000  H
  H22      1.0000 0.10140  0.94070  0.93940  Biso   1.000  H
  H23      1.0000 0.39860  0.44070  0.56060  Biso   1.000  H
  H24      1.0000 0.60140  0.44070  0.93940  Biso   1.000  H
  C33      1.0000 0.12390  0.08900  0.36440  Biso   1.000  C
  C34      1.0000 0.87610  0.08900  0.13560  Biso   1.000  C
  C35      1.0000 0.62390  0.58900  0.36440  Biso   1.000  C
  C36      1.0000 0.37610  0.58900  0.13560  Biso   1.000  C
  C37      1.0000 0.87610  0.91100  0.63560  Biso   1.000  C
  C38      1.0000 0.12390  0.91100  0.86440  Biso   1.000  C
  C39      1.0000 0.37610  0.41100  0.63560  Biso   1.000  C
  C40      1.0000 0.62390  0.41100  0.86440  Biso   1.000  C
  H25      1.0000 0.13230  0.13350  0.38450  Biso   1.000  H
  H26      1.0000 0.86770  0.13350  0.11550  Biso   1.000  H
  H27      1.0000 0.63230  0.63350  0.38450  Biso   1.000  H
  H28      1.0000 0.36770  0.63350  0.11550  Biso   1.000  H
  H29      1.0000 0.86770  0.86650  0.61550  Biso   1.000  H
  H30      1.0000 0.13230  0.86650  0.88450  Biso   1.000  H
  H31      1.0000 0.36770  0.36650  0.61550  Biso   1.000  H
  H32      1.0000 0.63230  0.36650  0.88450  Biso   1.000  H
  C41      1.0000 0.07760  0.93010  0.41000  Biso   1.000  C
  C42      1.0000 0.92240  0.93010  0.09000  Biso   1.000  C
  C43      1.0000 0.57760  0.43010  0.41000  Biso   1.000  C
  C44      1.0000 0.42240  0.43010  0.09000  Biso   1.000  C
  C45      1.0000 0.92240  0.06990  0.59000  Biso   1.000  C
  C46      1.0000 0.07760  0.06990  0.91000  Biso   1.000  C
  C47      1.0000 0.42240  0.56990  0.59000  Biso   1.000  C
  C48      1.0000 0.57760  0.56990  0.91000  Biso   1.000  C
  H33      1.0000 0.04730  0.89560  0.36500  Biso   1.000  H
  H34      1.0000 0.95270  0.89560  0.13500  Biso   1.000  H
  H35      1.0000 0.54730  0.39560  0.36500  Biso   1.000  H
  H36      1.0000 0.45270  0.39560  0.13500  Biso   1.000  H
  H37      1.0000 0.95270  0.10440  0.63500  Biso   1.000  H
  H38      1.0000 0.04730  0.10440  0.86500  Biso   1.000  H
  H39      1.0000 0.45270  0.60440  0.63500  Biso   1.000  H
  H40      1.0000 0.54730  0.60440  0.86500  Biso   1.000  H
  H41      1.0000 0.05590  0.95180  0.42940  Biso   1.000  H
  H42      1.0000 0.94410  0.95180  0.07060  Biso   1.000  H
  H43      1.0000 0.55590  0.45180  0.42940  Biso   1.000  H
  H44      1.0000 0.44410  0.45180  0.07060  Biso   1.000  H
  H45      1.0000 0.94410  0.04820  0.57060  Biso   1.000  H
  H46      1.0000 0.05590  0.04820  0.92940  Biso   1.000  H
  H47      1.0000 0.44410  0.54820  0.57060  Biso   1.000  H
  H48      1.0000 0.55590  0.54820  0.92940  Biso   1.000  H
  C49      1.0000 0.14220  0.89850  0.49160  Biso   1.000  C
  C50      1.0000 0.85780  0.89850  0.00840  Biso   1.000  C
  C51      1.0000 0.64220  0.39850  0.49160  Biso   1.000  C
  C52      1.0000 0.35780  0.39850  0.00840  Biso   1.000  C
  C53      1.0000 0.85780  0.10150  0.50840  Biso   1.000  C
  C54      1.0000 0.14220  0.10150  0.99160  Biso   1.000  C
  C55      1.0000 0.35780  0.60150  0.50840  Biso   1.000  C
  C56      1.0000 0.64220  0.60150  0.99160  Biso   1.000  C
  H49      1.0000 0.17490  0.93370  0.53130  Biso   1.000  H
  H50      1.0000 0.82510  0.93370  0.96870  Biso   1.000  H
  H51      1.0000 0.67490  0.43370  0.53130  Biso   1.000  H
  H52      1.0000 0.32510  0.43370  0.96870  Biso   1.000  H
  H53      1.0000 0.82510  0.06630  0.46870  Biso   1.000  H
  H54      1.0000 0.17490  0.06630  0.03130  Biso   1.000  H
  H55      1.0000 0.32510  0.56630  0.46870  Biso   1.000  H
  H56      1.0000 0.67490  0.56630  0.03130  Biso   1.000  H
  H57      1.0000 0.13450  0.87350  0.52700  Biso   1.000  H
  H58      1.0000 0.86550  0.87350  0.97300  Biso   1.000  H
  H59      1.0000 0.63450  0.37350  0.52700  Biso   1.000  H
  H60      1.0000 0.36550  0.37350  0.97300  Biso   1.000  H
  H61      1.0000 0.86550  0.12650  0.47300  Biso   1.000  H
  H62      1.0000 0.13450  0.12650  0.02700  Biso   1.000  H
  H63      1.0000 0.36550  0.62650  0.47300  Biso   1.000  H
  H64      1.0000 0.63450  0.62650  0.02700  Biso   1.000  H
  C57      1.0000 0.17060  0.85240  0.46390  Biso   1.000  C
  C58      1.0000 0.82940  0.85240  0.03610  Biso   1.000  C
  C59      1.0000 0.67060  0.35240  0.46390  Biso   1.000  C
  C60      1.0000 0.32940  0.35240  0.03610  Biso   1.000  C
  C61      1.0000 0.82940  0.14760  0.53610  Biso   1.000  C
  C62      1.0000 0.17060  0.14760  0.96390  Biso   1.000  C
  C63      1.0000 0.32940  0.64760  0.53610  Biso   1.000  C
  C64      1.0000 0.67060  0.64760  0.96390  Biso   1.000  C
  H65      1.0000 0.14860  0.81140  0.43740  Biso   1.000  H
  H66      1.0000 0.85140  0.81140  0.06260  Biso   1.000  H
  H67      1.0000 0.64860  0.31140  0.43740  Biso   1.000  H
  H68      1.0000 0.35140  0.31140  0.06260  Biso   1.000  H
  H69      1.0000 0.85140  0.18860  0.56260  Biso   1.000  H
  H70      1.0000 0.14860  0.18860  0.93740  Biso   1.000  H
  H71      1.0000 0.35140  0.68860  0.56260  Biso   1.000  H
  H72      1.0000 0.64860  0.68860  0.93740  Biso   1.000  H
  C65      1.0000 0.22230  0.86400  0.47300  Biso   1.000  C
  C66      1.0000 0.77770  0.86400  0.02700  Biso   1.000  C
  C67      1.0000 0.72230  0.36400  0.47300  Biso   1.000  C
  C68      1.0000 0.27770  0.36400  0.02700  Biso   1.000  C
  C69      1.0000 0.77770  0.13600  0.52700  Biso   1.000  C
  C70      1.0000 0.22230  0.13600  0.97300  Biso   1.000  C
  C71      1.0000 0.27770  0.63600  0.52700  Biso   1.000  C
  C72      1.0000 0.72230  0.63600  0.97300  Biso   1.000  C
  H73      1.0000 0.24590  0.90400  0.50150  Biso   1.000  H
  H74      1.0000 0.75410  0.90400  0.99850  Biso   1.000  H
  H75      1.0000 0.74590  0.40400  0.50150  Biso   1.000  H
  H76      1.0000 0.25410  0.40400  0.99850  Biso   1.000  H
  H77      1.0000 0.75410  0.09600  0.49850  Biso   1.000  H
  H78      1.0000 0.24590  0.09600  0.00150  Biso   1.000  H
  H79      1.0000 0.25410  0.59600  0.49850  Biso   1.000  H
  H80      1.0000 0.74590  0.59600  0.00150  Biso   1.000  H
  C73      1.0000 0.24710  0.81740  0.44100  Biso   1.000  C
  C74      1.0000 0.75290  0.81740  0.05900  Biso   1.000  C
  C75      1.0000 0.74710  0.31740  0.44100  Biso   1.000  C
  C76      1.0000 0.25290  0.31740  0.05900  Biso   1.000  C
  C77      1.0000 0.75290  0.18260  0.55900  Biso   1.000  C
  C78      1.0000 0.24710  0.18260  0.94100  Biso   1.000  C
  C79      1.0000 0.25290  0.68260  0.55900  Biso   1.000  C
  C80      1.0000 0.74710  0.68260  0.94100  Biso   1.000  C
  H81      1.0000 0.29330  0.80450  0.49350  Biso   1.000  H
  H82      1.0000 0.70670  0.80450  0.00650  Biso   1.000  H
  H83      1.0000 0.79330  0.30450  0.49350  Biso   1.000  H
  H84      1.0000 0.20670  0.30450  0.00650  Biso   1.000  H
  H85      1.0000 0.70670  0.19550  0.50650  Biso   1.000  H
  H86      1.0000 0.29330  0.19550  0.99350  Biso   1.000  H
  H87      1.0000 0.20670  0.69550  0.50650  Biso   1.000  H
  H88      1.0000 0.79330  0.69550  0.99350  Biso   1.000  H
  H89      1.0000 0.21970  0.77690  0.41650  Biso   1.000  H
  H90      1.0000 0.78030  0.77690  0.08350  Biso   1.000  H
  H91      1.0000 0.71970  0.27690  0.41650  Biso   1.000  H
  H92      1.0000 0.28030  0.27690  0.08350  Biso   1.000  H
  H93      1.0000 0.78030  0.22310  0.58350  Biso   1.000  H
  H94      1.0000 0.21970  0.22310  0.91650  Biso   1.000  H
  H95      1.0000 0.28030  0.72310  0.58350  Biso   1.000  H
  H96      1.0000 0.71970  0.72310  0.91650  Biso   1.000  H
  C81      1.0000 0.24480  0.84750  0.36910  Biso   1.000  C
  C82      1.0000 0.75520  0.84750  0.13090  Biso   1.000  C
  C83      1.0000 0.74480  0.34750  0.36910  Biso   1.000  C
  C84      1.0000 0.25520  0.34750  0.13090  Biso   1.000  C
  C85      1.0000 0.75520  0.15250  0.63090  Biso   1.000  C
  C86      1.0000 0.24480  0.15250  0.86910  Biso   1.000  C
  C87      1.0000 0.25520  0.65250  0.63090  Biso   1.000  C
  C88      1.0000 0.74480  0.65250  0.86910  Biso   1.000  C
  H97      1.0000 0.27390  0.88680  0.39430  Biso   1.000  H
  H98      1.0000 0.72610  0.88680  0.10570  Biso   1.000  H
  H99      1.0000 0.77390  0.38680  0.39430  Biso   1.000  H
  H100     1.0000 0.22610  0.38680  0.10570  Biso   1.000  H
  H101     1.0000 0.72610  0.11320  0.60570  Biso   1.000  H
  H102     1.0000 0.27390  0.11320  0.89430  Biso   1.000  H
  H103     1.0000 0.22610  0.61320  0.60570  Biso   1.000  H
  H104     1.0000 0.77390  0.61320  0.89430  Biso   1.000  H
  H105     1.0000 0.19910  0.86210  0.31750  Biso   1.000  H
  H106     1.0000 0.80090  0.86210  0.18250  Biso   1.000  H
  H107     1.0000 0.69910  0.36210  0.31750  Biso   1.000  H
  H108     1.0000 0.30090  0.36210  0.18250  Biso   1.000  H
  H109     1.0000 0.80090  0.13790  0.68250  Biso   1.000  H
  H110     1.0000 0.19910  0.13790  0.81750  Biso   1.000  H
  H111     1.0000 0.30090  0.63790  0.68250  Biso   1.000  H
  H112     1.0000 0.69910  0.63790  0.81750  Biso   1.000  H
  C89      1.0000 0.26700  0.79900  0.33520  Biso   1.000  C
  C90      1.0000 0.73300  0.79900  0.16480  Biso   1.000  C
  C91      1.0000 0.76700  0.29900  0.33520  Biso   1.000  C
  C92      1.0000 0.23300  0.29900  0.16480  Biso   1.000  C
  C93      1.0000 0.73300  0.20100  0.66480  Biso   1.000  C
  C94      1.0000 0.26700  0.20100  0.83520  Biso   1.000  C
  C95      1.0000 0.23300  0.70100  0.66480  Biso   1.000  C
  C96      1.0000 0.76700  0.70100  0.83520  Biso   1.000  C
  C97      1.0000 0.22410  0.77760  0.24590  Biso   1.000  C
  C98      1.0000 0.77590  0.77760  0.25410  Biso   1.000  C
  C99      1.0000 0.72410  0.27760  0.24590  Biso   1.000  C
  C100     1.0000 0.27590  0.27760  0.25410  Biso   1.000  C
  C101     1.0000 0.77590  0.22240  0.75410  Biso   1.000  C
  C102     1.0000 0.22410  0.22240  0.74590  Biso   1.000  C
  C103     1.0000 0.27590  0.72240  0.75410  Biso   1.000  C
  C104     1.0000 0.72410  0.72240  0.74590  Biso   1.000  C
  H113     1.0000 0.18030  0.79470  0.20370  Biso   1.000  H
  H114     1.0000 0.81970  0.79470  0.29630  Biso   1.000  H
  H115     1.0000 0.68030  0.29470  0.20370  Biso   1.000  H
  H116     1.0000 0.31970  0.29470  0.29630  Biso   1.000  H
  H117     1.0000 0.81970  0.20530  0.79630  Biso   1.000  H
  H118     1.0000 0.18030  0.20530  0.70370  Biso   1.000  H
  H119     1.0000 0.31970  0.70530  0.79630  Biso   1.000  H
  H120     1.0000 0.68030  0.70530  0.70370  Biso   1.000  H
  C105     1.0000 0.24550  0.73120  0.21890  Biso   1.000  C
  C106     1.0000 0.75450  0.73120  0.28110  Biso   1.000  C
  C107     1.0000 0.74550  0.23120  0.21890  Biso   1.000  C
  C108     1.0000 0.25450  0.23120  0.28110  Biso   1.000  C
  C109     1.0000 0.75450  0.26880  0.78110  Biso   1.000  C
  C110     1.0000 0.24550  0.26880  0.71890  Biso   1.000  C
  C111     1.0000 0.25450  0.76880  0.78110  Biso   1.000  C
  C112     1.0000 0.74550  0.76880  0.71890  Biso   1.000  C
  H121     1.0000 0.21500  0.71610  0.15790  Biso   1.000  H
  H122     1.0000 0.78500  0.71610  0.34210  Biso   1.000  H
  H123     1.0000 0.71500  0.21610  0.15790  Biso   1.000  H
  H124     1.0000 0.28500  0.21610  0.34210  Biso   1.000  H
  H125     1.0000 0.78500  0.28390  0.84210  Biso   1.000  H
  H126     1.0000 0.21500  0.28390  0.65790  Biso   1.000  H
  H127     1.0000 0.28500  0.78390  0.84210  Biso   1.000  H
  H128     1.0000 0.71500  0.78390  0.65790  Biso   1.000  H
  C113     1.0000 0.34890  0.72870  0.36010  Biso   1.000  C
  C114     1.0000 0.65110  0.72870  0.13990  Biso   1.000  C
  C115     1.0000 0.84890  0.22870  0.36010  Biso   1.000  C
  C116     1.0000 0.15110  0.22870  0.13990  Biso   1.000  C
  C117     1.0000 0.65110  0.27130  0.63990  Biso   1.000  C
  C118     1.0000 0.34890  0.27130  0.86010  Biso   1.000  C
  C119     1.0000 0.15110  0.77130  0.63990  Biso   1.000  C
  C120     1.0000 0.84890  0.77130  0.86010  Biso   1.000  C
  H129     1.0000 0.39310  0.71270  0.40030  Biso   1.000  H
  H130     1.0000 0.60690  0.71270  0.09970  Biso   1.000  H
  H131     1.0000 0.89310  0.21270  0.40030  Biso   1.000  H
  H132     1.0000 0.10690  0.21270  0.09970  Biso   1.000  H
  H133     1.0000 0.60690  0.28730  0.59970  Biso   1.000  H
  H134     1.0000 0.39310  0.28730  0.90030  Biso   1.000  H
  H135     1.0000 0.10690  0.78730  0.59970  Biso   1.000  H
  H136     1.0000 0.89310  0.78730  0.90030  Biso   1.000  H
  C121     1.0000 0.33060  0.77380  0.39260  Biso   1.000  C
  C122     1.0000 0.66940  0.77380  0.10740  Biso   1.000  C
  C123     1.0000 0.83060  0.27380  0.39260  Biso   1.000  C
  C124     1.0000 0.16940  0.27380  0.10740  Biso   1.000  C
  C125     1.0000 0.66940  0.22620  0.60740  Biso   1.000  C
  C126     1.0000 0.33060  0.22620  0.89260  Biso   1.000  C
  C127     1.0000 0.16940  0.72620  0.60740  Biso   1.000  C
  C128     1.0000 0.83060  0.72620  0.89260  Biso   1.000  C
  H137     1.0000 0.36170  0.78740  0.45420  Biso   1.000  H
  H138     1.0000 0.63830  0.78740  0.04580  Biso   1.000  H
  H139     1.0000 0.86170  0.28740  0.45420  Biso   1.000  H
  H140     1.0000 0.13830  0.28740  0.04580  Biso   1.000  H
  H141     1.0000 0.63830  0.21260  0.54580  Biso   1.000  H
  H142     1.0000 0.36170  0.21260  0.95420  Biso   1.000  H
  H143     1.0000 0.13830  0.71260  0.54580  Biso   1.000  H
  H144     1.0000 0.86170  0.71260  0.95420  Biso   1.000  H
  N9       1.0000 0.30708  0.70628  0.27420  Biso   1.000  N
  N10      1.0000 0.69292  0.70628  0.22580  Biso   1.000  N
  N11      1.0000 0.80708  0.20628  0.27420  Biso   1.000  N
  N12      1.0000 0.19292  0.20628  0.22580  Biso   1.000  N
  N13      1.0000 0.69292  0.29372  0.72580  Biso   1.000  N
  N14      1.0000 0.30708  0.29372  0.77420  Biso   1.000  N
  N15      1.0000 0.19292  0.79372  0.72580  Biso   1.000  N
  N16      1.0000 0.80708  0.79372  0.77420  Biso   1.000  N
  N17      1.0000 0.23957  0.07800  0.31240  Biso   1.000  N
  N18      1.0000 0.76043  0.07800  0.18760  Biso   1.000  N
  N19      1.0000 0.73957  0.57800  0.31240  Biso   1.000  N
  N20      1.0000 0.26043  0.57800  0.18760  Biso   1.000  N
  N21      1.0000 0.76043  0.92200  0.68760  Biso   1.000  N
  N22      1.0000 0.23957  0.92200  0.81240  Biso   1.000  N
  N23      1.0000 0.26043  0.42200  0.68760  Biso   1.000  N
  N24      1.0000 0.73957  0.42200  0.81240  Biso   1.000  N
  N25      1.0000 0.41460  0.69473  0.27990  Biso   1.000  N
  N26      1.0000 0.58540  0.69473  0.22010  Biso   1.000  N
  N27      1.0000 0.91460  0.19473  0.27990  Biso   1.000  N
  N28      1.0000 0.08540  0.19473  0.22010  Biso   1.000  N
  N29      1.0000 0.58540  0.30527  0.72010  Biso   1.000  N
  N30      1.0000 0.41460  0.30527  0.77990  Biso   1.000  N
  N31      1.0000 0.08540  0.80527  0.72010  Biso   1.000  N
  N32      1.0000 0.91460  0.80527  0.77990  Biso   1.000  N
  C129     1.0000 0.25400  0.06410  0.26140  Biso   1.000  C
  C130     1.0000 0.74600  0.06410  0.23860  Biso   1.000  C
  C131     1.0000 0.75400  0.56410  0.26140  Biso   1.000  C
  C132     1.0000 0.24600  0.56410  0.23860  Biso   1.000  C
  C133     1.0000 0.74600  0.93590  0.73860  Biso   1.000  C
  C134     1.0000 0.25400  0.93590  0.76140  Biso   1.000  C
  C135     1.0000 0.24600  0.43590  0.73860  Biso   1.000  C
  C136     1.0000 0.75400  0.43590  0.76140  Biso   1.000  C
  H145     1.0000 0.22880  0.08380  0.20320  Biso   1.000  H
  H146     1.0000 0.77120  0.08380  0.29680  Biso   1.000  H
  H147     1.0000 0.72880  0.58380  0.20320  Biso   1.000  H
  H148     1.0000 0.27120  0.58380  0.29680  Biso   1.000  H
  H149     1.0000 0.77120  0.91620  0.79680  Biso   1.000  H
  H150     1.0000 0.22880  0.91620  0.70320  Biso   1.000  H
  H151     1.0000 0.27120  0.41620  0.79680  Biso   1.000  H
  H152     1.0000 0.72880  0.41620  0.70320  Biso   1.000  H
  C137     1.0000 0.30610  0.02050  0.29210  Biso   1.000  C
  C138     1.0000 0.69390  0.02050  0.20790  Biso   1.000  C
  C139     1.0000 0.80610  0.52050  0.29210  Biso   1.000  C
  C140     1.0000 0.19390  0.52050  0.20790  Biso   1.000  C
  C141     1.0000 0.69390  0.97950  0.70790  Biso   1.000  C
  C142     1.0000 0.30610  0.97950  0.79210  Biso   1.000  C
  C143     1.0000 0.19390  0.47950  0.70790  Biso   1.000  C
  C144     1.0000 0.80610  0.47950  0.79210  Biso   1.000  C
  H153     1.0000 0.31650  0.00980  0.25580  Biso   1.000  H
  H154     1.0000 0.68350  0.00980  0.24420  Biso   1.000  H
  H155     1.0000 0.81650  0.50980  0.25580  Biso   1.000  H
  H156     1.0000 0.18350  0.50980  0.24420  Biso   1.000  H
  H157     1.0000 0.68350  0.99020  0.74420  Biso   1.000  H
  H158     1.0000 0.31650  0.99020  0.75580  Biso   1.000  H
  H159     1.0000 0.18350  0.49020  0.74420  Biso   1.000  H
  H160     1.0000 0.81650  0.49020  0.75580  Biso   1.000  H
  C145     1.0000 0.34270  0.99310  0.38140  Biso   1.000  C
  C146     1.0000 0.65730  0.99310  0.11860  Biso   1.000  C
  C147     1.0000 0.84270  0.49310  0.38140  Biso   1.000  C
  C148     1.0000 0.15730  0.49310  0.11860  Biso   1.000  C
  C149     1.0000 0.65730  0.00690  0.61860  Biso   1.000  C
  C150     1.0000 0.34270  0.00690  0.88140  Biso   1.000  C
  C151     1.0000 0.15730  0.50690  0.61860  Biso   1.000  C
  C152     1.0000 0.84270  0.50690  0.88140  Biso   1.000  C
  C153     1.0000 0.32750  0.00860  0.42980  Biso   1.000  C
  C154     1.0000 0.67250  0.00860  0.07020  Biso   1.000  C
  C155     1.0000 0.82750  0.50860  0.42980  Biso   1.000  C
  C156     1.0000 0.17250  0.50860  0.07020  Biso   1.000  C
  C157     1.0000 0.67250  0.99140  0.57020  Biso   1.000  C
  C158     1.0000 0.32750  0.99140  0.92980  Biso   1.000  C
  C159     1.0000 0.17250  0.49140  0.57020  Biso   1.000  C
  C160     1.0000 0.82750  0.49140  0.92980  Biso   1.000  C
  H161     1.0000 0.35220  0.99100  0.48910  Biso   1.000  H
  H162     1.0000 0.64780  0.99100  0.01090  Biso   1.000  H
  H163     1.0000 0.85220  0.49100  0.48910  Biso   1.000  H
  H164     1.0000 0.14780  0.49100  0.01090  Biso   1.000  H
  H165     1.0000 0.64780  0.00900  0.51090  Biso   1.000  H
  H166     1.0000 0.35220  0.00900  0.98910  Biso   1.000  H
  H167     1.0000 0.14780  0.50900  0.51090  Biso   1.000  H
  H168     1.0000 0.85220  0.50900  0.98910  Biso   1.000  H
  C161     1.0000 0.27680  0.04940  0.39520  Biso   1.000  C
  C162     1.0000 0.72320  0.04940  0.10480  Biso   1.000  C
  C163     1.0000 0.77680  0.54940  0.39520  Biso   1.000  C
  C164     1.0000 0.22320  0.54940  0.10480  Biso   1.000  C
  C165     1.0000 0.72320  0.95060  0.60480  Biso   1.000  C
  C166     1.0000 0.27680  0.95060  0.89520  Biso   1.000  C
  C167     1.0000 0.22320  0.45060  0.60480  Biso   1.000  C
  C168     1.0000 0.77680  0.45060  0.89520  Biso   1.000  C
  H169     1.0000 0.26600  0.05920  0.43140  Biso   1.000  H
  H170     1.0000 0.73400  0.05920  0.06860  Biso   1.000  H
  H171     1.0000 0.76600  0.55920  0.43140  Biso   1.000  H
  H172     1.0000 0.23400  0.55920  0.06860  Biso   1.000  H
  H173     1.0000 0.73400  0.94080  0.56860  Biso   1.000  H
  H174     1.0000 0.26600  0.94080  0.93140  Biso   1.000  H
  H175     1.0000 0.23400  0.44080  0.56860  Biso   1.000  H
  H176     1.0000 0.76600  0.44080  0.93140  Biso   1.000  H
  C169     1.0000 0.40370  0.94530  0.41870  Biso   1.000  C
  C170     1.0000 0.59630  0.94530  0.08130  Biso   1.000  C
  C171     1.0000 0.90370  0.44530  0.41870  Biso   1.000  C
  C172     1.0000 0.09630  0.44530  0.08130  Biso   1.000  C
  C173     1.0000 0.59630  0.05470  0.58130  Biso   1.000  C
  C174     1.0000 0.40370  0.05470  0.91870  Biso   1.000  C
  C175     1.0000 0.09630  0.55470  0.58130  Biso   1.000  C
  C176     1.0000 0.90370  0.55470  0.91870  Biso   1.000  C
  H177     1.0000 0.44370  0.96600  0.47480  Biso   1.000  H
  H178     1.0000 0.55630  0.96600  0.02520  Biso   1.000  H
  H179     1.0000 0.94370  0.46600  0.47480  Biso   1.000  H
  H180     1.0000 0.05630  0.46600  0.02520  Biso   1.000  H
  H181     1.0000 0.55630  0.03400  0.52520  Biso   1.000  H
  H182     1.0000 0.44370  0.03400  0.97480  Biso   1.000  H
  H183     1.0000 0.05630  0.53400  0.52520  Biso   1.000  H
  H184     1.0000 0.94370  0.53400  0.97480  Biso   1.000  H
  H185     1.0000 0.39630  0.90380  0.43750  Biso   1.000  H
  H186     1.0000 0.60370  0.90380  0.06250  Biso   1.000  H
  H187     1.0000 0.89630  0.40380  0.43750  Biso   1.000  H
  H188     1.0000 0.10370  0.40380  0.06250  Biso   1.000  H
  H189     1.0000 0.60370  0.09620  0.56250  Biso   1.000  H
  H190     1.0000 0.39630  0.09620  0.93750  Biso   1.000  H
  H191     1.0000 0.10370  0.59620  0.56250  Biso   1.000  H
  H192     1.0000 0.89630  0.59620  0.93750  Biso   1.000  H
  C177     1.0000 0.42120  0.92580  0.36480  Biso   1.000  C
  C178     1.0000 0.57880  0.92580  0.13520  Biso   1.000  C
  C179     1.0000 0.92120  0.42580  0.36480  Biso   1.000  C
  C180     1.0000 0.07880  0.42580  0.13520  Biso   1.000  C
  C181     1.0000 0.57880  0.07420  0.63520  Biso   1.000  C
  C182     1.0000 0.42120  0.07420  0.86480  Biso   1.000  C
  C183     1.0000 0.07880  0.57420  0.63520  Biso   1.000  C
  C184     1.0000 0.92120  0.57420  0.86480  Biso   1.000  C
  H193     1.0000 0.42740  0.96450  0.34030  Biso   1.000  H
  H194     1.0000 0.57260  0.96450  0.15970  Biso   1.000  H
  H195     1.0000 0.92740  0.46450  0.34030  Biso   1.000  H
  H196     1.0000 0.07260  0.46450  0.15970  Biso   1.000  H
  H197     1.0000 0.57260  0.03550  0.65970  Biso   1.000  H
  H198     1.0000 0.42740  0.03550  0.84030  Biso   1.000  H
  H199     1.0000 0.07260  0.53550  0.65970  Biso   1.000  H
  H200     1.0000 0.92740  0.53550  0.84030  Biso   1.000  H
  H201     1.0000 0.38830  0.89530  0.31480  Biso   1.000  H
  H202     1.0000 0.61170  0.89530  0.18520  Biso   1.000  H
  H203     1.0000 0.88830  0.39530  0.31480  Biso   1.000  H
  H204     1.0000 0.11170  0.39530  0.18520  Biso   1.000  H
  H205     1.0000 0.61170  0.10470  0.68520  Biso   1.000  H
  H206     1.0000 0.38830  0.10470  0.81480  Biso   1.000  H
  H207     1.0000 0.11170  0.60470  0.68520  Biso   1.000  H
  H208     1.0000 0.88830  0.60470  0.81480  Biso   1.000  H
  C185     1.0000 0.48810  0.89060  0.44250  Biso   1.000  C
  C186     1.0000 0.51190  0.89060  0.05750  Biso   1.000  C
  C187     1.0000 0.98810  0.39060  0.44250  Biso   1.000  C
  C188     1.0000 0.01190  0.39060  0.05750  Biso   1.000  C
  C189     1.0000 0.51190  0.10940  0.55750  Biso   1.000  C
  C190     1.0000 0.48810  0.10940  0.94250  Biso   1.000  C
  C191     1.0000 0.01190  0.60940  0.55750  Biso   1.000  C
  C192     1.0000 0.98810  0.60940  0.94250  Biso   1.000  C
  H209     1.0000 0.49450  0.86490  0.48820  Biso   1.000  H
  H210     1.0000 0.50550  0.86490  0.01180  Biso   1.000  H
  H211     1.0000 0.99450  0.36490  0.48820  Biso   1.000  H
  H212     1.0000 0.00550  0.36490  0.01180  Biso   1.000  H
  H213     1.0000 0.50550  0.13510  0.51180  Biso   1.000  H
  H214     1.0000 0.49450  0.13510  0.98820  Biso   1.000  H
  H215     1.0000 0.00550  0.63510  0.51180  Biso   1.000  H
  H216     1.0000 0.99450  0.63510  0.98820  Biso   1.000  H
  C193     1.0000 0.53410  0.89970  0.43900  Biso   1.000  C
  C194     1.0000 0.46590  0.89970  0.06100  Biso   1.000  C
  C195     1.0000 0.03410  0.39970  0.43900  Biso   1.000  C
  C196     1.0000 0.96590  0.39970  0.06100  Biso   1.000  C
  C197     1.0000 0.46590  0.10030  0.56100  Biso   1.000  C
  C198     1.0000 0.53410  0.10030  0.93900  Biso   1.000  C
  C199     1.0000 0.96590  0.60030  0.56100  Biso   1.000  C
  C200     1.0000 0.03410  0.60030  0.93900  Biso   1.000  C
  H217     1.0000 0.53280  0.94110  0.41530  Biso   1.000  H
  H218     1.0000 0.46720  0.94110  0.08470  Biso   1.000  H
  H219     1.0000 0.03280  0.44110  0.41530  Biso   1.000  H
  H220     1.0000 0.96720  0.44110  0.08470  Biso   1.000  H
  H221     1.0000 0.46720  0.05890  0.58470  Biso   1.000  H
  H222     1.0000 0.53280  0.05890  0.91530  Biso   1.000  H
  H223     1.0000 0.96720  0.55890  0.58470  Biso   1.000  H
  H224     1.0000 0.03280  0.55890  0.91530  Biso   1.000  H
  C201     1.0000 0.58900  0.85430  0.46690  Biso   1.000  C
  C202     1.0000 0.41100  0.85430  0.03310  Biso   1.000  C
  C203     1.0000 0.08900  0.35430  0.46690  Biso   1.000  C
  C204     1.0000 0.91100  0.35430  0.03310  Biso   1.000  C
  C205     1.0000 0.41100  0.14570  0.53310  Biso   1.000  C
  C206     1.0000 0.58900  0.14570  0.96690  Biso   1.000  C
  C207     1.0000 0.91100  0.64570  0.53310  Biso   1.000  C
  C208     1.0000 0.08900  0.64570  0.96690  Biso   1.000  C
  H225     1.0000 0.59490  0.81930  0.50680  Biso   1.000  H
  H226     1.0000 0.40510  0.81930  0.99320  Biso   1.000  H
  H227     1.0000 0.09490  0.31930  0.50680  Biso   1.000  H
  H228     1.0000 0.90510  0.31930  0.99320  Biso   1.000  H
  H229     1.0000 0.40510  0.18070  0.49320  Biso   1.000  H
  H230     1.0000 0.59490  0.18070  0.00680  Biso   1.000  H
  H231     1.0000 0.90510  0.68070  0.49320  Biso   1.000  H
  H232     1.0000 0.09490  0.68070  0.00680  Biso   1.000  H
  H233     1.0000 0.63090  0.87970  0.50220  Biso   1.000  H
  H234     1.0000 0.36910  0.87970  0.99780  Biso   1.000  H
  H235     1.0000 0.13090  0.37970  0.50220  Biso   1.000  H
  H236     1.0000 0.86910  0.37970  0.99780  Biso   1.000  H
  H237     1.0000 0.36910  0.12030  0.49780  Biso   1.000  H
  H238     1.0000 0.63090  0.12030  0.00220  Biso   1.000  H
  H239     1.0000 0.86910  0.62030  0.49780  Biso   1.000  H
  H240     1.0000 0.13090  0.62030  0.00220  Biso   1.000  H
  C209     1.0000 0.57560  0.82280  0.38680  Biso   1.000  C
  C210     1.0000 0.42440  0.82280  0.11320  Biso   1.000  C
  C211     1.0000 0.07560  0.32280  0.38680  Biso   1.000  C
  C212     1.0000 0.92440  0.32280  0.11320  Biso   1.000  C
  C213     1.0000 0.42440  0.17720  0.61320  Biso   1.000  C
  C214     1.0000 0.57560  0.17720  0.88680  Biso   1.000  C
  C215     1.0000 0.92440  0.67720  0.61320  Biso   1.000  C
  C216     1.0000 0.07560  0.67720  0.88680  Biso   1.000  C
  H241     1.0000 0.61540  0.79860  0.40750  Biso   1.000  H
  H242     1.0000 0.38460  0.79860  0.09250  Biso   1.000  H
  H243     1.0000 0.11540  0.29860  0.40750  Biso   1.000  H
  H244     1.0000 0.88460  0.29860  0.09250  Biso   1.000  H
  H245     1.0000 0.38460  0.20140  0.59250  Biso   1.000  H
  H246     1.0000 0.61540  0.20140  0.90750  Biso   1.000  H
  H247     1.0000 0.88460  0.70140  0.59250  Biso   1.000  H
  H248     1.0000 0.11540  0.70140  0.90750  Biso   1.000  H
  H249     1.0000 0.56520  0.85730  0.34340  Biso   1.000  H
  H250     1.0000 0.43480  0.85730  0.15660  Biso   1.000  H
  H251     1.0000 0.06520  0.35730  0.34340  Biso   1.000  H
  H252     1.0000 0.93480  0.35730  0.15660  Biso   1.000  H
  H253     1.0000 0.43480  0.14270  0.65660  Biso   1.000  H
  H254     1.0000 0.56520  0.14270  0.84340  Biso   1.000  H
  H255     1.0000 0.93480  0.64270  0.65660  Biso   1.000  H
  H256     1.0000 0.06520  0.64270  0.84340  Biso   1.000  H
  C217     1.0000 0.51780  0.77540  0.34040  Biso   1.000  C
  C218     1.0000 0.48220  0.77540  0.15960  Biso   1.000  C
  C219     1.0000 0.01780  0.27540  0.34040  Biso   1.000  C
  C220     1.0000 0.98220  0.27540  0.15960  Biso   1.000  C
  C221     1.0000 0.48220  0.22460  0.65960  Biso   1.000  C
  C222     1.0000 0.51780  0.22460  0.84040  Biso   1.000  C
  C223     1.0000 0.98220  0.72460  0.65960  Biso   1.000  C
  C224     1.0000 0.01780  0.72460  0.84040  Biso   1.000  C
  C225     1.0000 0.52670  0.71190  0.37360  Biso   1.000  C
  C226     1.0000 0.47330  0.71190  0.12640  Biso   1.000  C
  C227     1.0000 0.02670  0.21190  0.37360  Biso   1.000  C
  C228     1.0000 0.97330  0.21190  0.12640  Biso   1.000  C
  C229     1.0000 0.47330  0.28810  0.62640  Biso   1.000  C
  C230     1.0000 0.52670  0.28810  0.87360  Biso   1.000  C
  C231     1.0000 0.97330  0.78810  0.62640  Biso   1.000  C
  C232     1.0000 0.02670  0.78810  0.87360  Biso   1.000  C
  H257     1.0000 0.56990  0.69530  0.42140  Biso   1.000  H
  H258     1.0000 0.43010  0.69530  0.07860  Biso   1.000  H
  H259     1.0000 0.06990  0.19530  0.42140  Biso   1.000  H
  H260     1.0000 0.93010  0.19530  0.07860  Biso   1.000  H
  H261     1.0000 0.43010  0.30470  0.57860  Biso   1.000  H
  H262     1.0000 0.56990  0.30470  0.92140  Biso   1.000  H
  H263     1.0000 0.93010  0.80470  0.57860  Biso   1.000  H
  H264     1.0000 0.06990  0.80470  0.92140  Biso   1.000  H
  C233     1.0000 0.47150  0.67340  0.33600  Biso   1.000  C
  C234     1.0000 0.52850  0.67340  0.16400  Biso   1.000  C
  C235     1.0000 0.97150  0.17340  0.33600  Biso   1.000  C
  C236     1.0000 0.02850  0.17340  0.16400  Biso   1.000  C
  C237     1.0000 0.52850  0.32660  0.66400  Biso   1.000  C
  C238     1.0000 0.47150  0.32660  0.83600  Biso   1.000  C
  C239     1.0000 0.02850  0.82660  0.66400  Biso   1.000  C
  C240     1.0000 0.97150  0.82660  0.83600  Biso   1.000  C
  H265     1.0000 0.47770  0.62840  0.35340  Biso   1.000  H
  H266     1.0000 0.52230  0.62840  0.14660  Biso   1.000  H
  H267     1.0000 0.97770  0.12840  0.35340  Biso   1.000  H
  H268     1.0000 0.02230  0.12840  0.14660  Biso   1.000  H
  H269     1.0000 0.52230  0.37160  0.64660  Biso   1.000  H
  H270     1.0000 0.47770  0.37160  0.85340  Biso   1.000  H
  H271     1.0000 0.02230  0.87160  0.64660  Biso   1.000  H
  H272     1.0000 0.97770  0.87160  0.85340  Biso   1.000  H
  C241     1.0000 0.40110  0.75500  0.23690  Biso   1.000  C
  C242     1.0000 0.59890  0.75500  0.26310  Biso   1.000  C
  C243     1.0000 0.90110  0.25500  0.23690  Biso   1.000  C
  C244     1.0000 0.09890  0.25500  0.26310  Biso   1.000  C
  C245     1.0000 0.59890  0.24500  0.76310  Biso   1.000  C
  C246     1.0000 0.40110  0.24500  0.73690  Biso   1.000  C
  C247     1.0000 0.09890  0.74500  0.76310  Biso   1.000  C
  C248     1.0000 0.90110  0.74500  0.73690  Biso   1.000  C
  H273     1.0000 0.35700  0.76770  0.18630  Biso   1.000  H
  H274     1.0000 0.64300  0.76770  0.31370  Biso   1.000  H
  H275     1.0000 0.85700  0.26770  0.18630  Biso   1.000  H
  H276     1.0000 0.14300  0.26770  0.31370  Biso   1.000  H
  H277     1.0000 0.64300  0.23230  0.81370  Biso   1.000  H
  H278     1.0000 0.35700  0.23230  0.68630  Biso   1.000  H
  H279     1.0000 0.14300  0.73230  0.81370  Biso   1.000  H
  H280     1.0000 0.85700  0.73230  0.68630  Biso   1.000  H
  C249     1.0000 0.45370  0.79540  0.27020  Biso   1.000  C
  C250     1.0000 0.54630  0.79540  0.22980  Biso   1.000  C
  C251     1.0000 0.95370  0.29540  0.27020  Biso   1.000  C
  C252     1.0000 0.04630  0.29540  0.22980  Biso   1.000  C
  C253     1.0000 0.54630  0.20460  0.72980  Biso   1.000  C
  C254     1.0000 0.45370  0.20460  0.77020  Biso   1.000  C
  C255     1.0000 0.04630  0.70460  0.72980  Biso   1.000  C
  C256     1.0000 0.95370  0.70460  0.77020  Biso   1.000  C
  H281     1.0000 0.44580  0.83790  0.24420  Biso   1.000  H
  H282     1.0000 0.55420  0.83790  0.25580  Biso   1.000  H
  H283     1.0000 0.94580  0.33790  0.24420  Biso   1.000  H
  H284     1.0000 0.05420  0.33790  0.25580  Biso   1.000  H
  H285     1.0000 0.55420  0.16210  0.75580  Biso   1.000  H
  H286     1.0000 0.44580  0.16210  0.74420  Biso   1.000  H
  H287     1.0000 0.05420  0.66210  0.75580  Biso   1.000  H
  H288     1.0000 0.94580  0.66210  0.74420  Biso   1.000  H
  O1       1.0000 0.09854  0.08273  0.11920  Biso   1.000  O
  O2       1.0000 0.90146  0.08273  0.38080  Biso   1.000  O
  O3       1.0000 0.59854  0.58273  0.11920  Biso   1.000  O
  O4       1.0000 0.40146  0.58273  0.38080  Biso   1.000  O
  O5       1.0000 0.90146  0.91727  0.88080  Biso   1.000  O
  O6       1.0000 0.09854  0.91727  0.61920  Biso   1.000  O
  O7       1.0000 0.40146  0.41727  0.88080  Biso   1.000  O
  O8       1.0000 0.59854  0.41727  0.61920  Biso   1.000  O
  H289     1.0000 0.10610  0.04340  0.11170  Biso   1.000  H
  H290     1.0000 0.89390  0.04340  0.38830  Biso   1.000  H
  H291     1.0000 0.60610  0.54340  0.11170  Biso   1.000  H
  H292     1.0000 0.39390  0.54340  0.38830  Biso   1.000  H
  H293     1.0000 0.89390  0.95660  0.88830  Biso   1.000  H
  H294     1.0000 0.10610  0.95660  0.61170  Biso   1.000  H
  H295     1.0000 0.39390  0.45660  0.88830  Biso   1.000  H
  H296     1.0000 0.60610  0.45660  0.61170  Biso   1.000  H
  H297     1.0000 0.06230  0.09430  0.06920  Biso   1.000  H
  H298     1.0000 0.93770  0.09430  0.43080  Biso   1.000  H
  H299     1.0000 0.56230  0.59430  0.06920  Biso   1.000  H
  H300     1.0000 0.43770  0.59430  0.43080  Biso   1.000  H
  H301     1.0000 0.93770  0.90570  0.93080  Biso   1.000  H
  H302     1.0000 0.06230  0.90570  0.56920  Biso   1.000  H
  H303     1.0000 0.43770  0.40570  0.93080  Biso   1.000  H
  H304     1.0000 0.56230  0.40570  0.56920  Biso   1.000  H
  O9       1.0000 0.23540  0.19650  0.41870  Biso   1.000  O
  O10      1.0000 0.76460  0.19650  0.08130  Biso   1.000  O
  O11      1.0000 0.73540  0.69650  0.41870  Biso   1.000  O
  O12      1.0000 0.26460  0.69650  0.08130  Biso   1.000  O
  O13      1.0000 0.76460  0.80350  0.58130  Biso   1.000  O
  O14      1.0000 0.23540  0.80350  0.91870  Biso   1.000  O
  O15      1.0000 0.26460  0.30350  0.58130  Biso   1.000  O
  O16      1.0000 0.73540  0.30350  0.91870  Biso   1.000  O
  H305     1.0000 0.25140  0.17800  0.46890  Biso   1.000  H
  H306     1.0000 0.74860  0.17800  0.03110  Biso   1.000  H
  H307     1.0000 0.75140  0.67800  0.46890  Biso   1.000  H
  H308     1.0000 0.24860  0.67800  0.03110  Biso   1.000  H
  H309     1.0000 0.74860  0.82200  0.53110  Biso   1.000  H
  H310     1.0000 0.25140  0.82200  0.96890  Biso   1.000  H
  H311     1.0000 0.24860  0.32200  0.53110  Biso   1.000  H
  H312     1.0000 0.75140  0.32200  0.96890  Biso   1.000  H
  H313     1.0000 0.25210  0.23440  0.43210  Biso   1.000  H
  H314     1.0000 0.74790  0.23440  0.06790  Biso   1.000  H
  H315     1.0000 0.75210  0.73440  0.43210  Biso   1.000  H
  H316     1.0000 0.24790  0.73440  0.06790  Biso   1.000  H
  H317     1.0000 0.74790  0.76560  0.56790  Biso   1.000  H
  H318     1.0000 0.25210  0.76560  0.93210  Biso   1.000  H
  H319     1.0000 0.24790  0.26560  0.56790  Biso   1.000  H
  H320     1.0000 0.75210  0.26560  0.93210  Biso   1.000  H
  H321     1.0000 0.38640  0.90900  0.37440  Biso   1.000  H
  H322     1.0000 0.61360  0.90900  0.12560  Biso   1.000  H
  H323     1.0000 0.88640  0.40900  0.37440  Biso   1.000  H
  H324     1.0000 0.11360  0.40900  0.12560  Biso   1.000  H
  H325     1.0000 0.61360  0.09100  0.62560  Biso   1.000  H
  H326     1.0000 0.38640  0.09100  0.87440  Biso   1.000  H
  H327     1.0000 0.11360  0.59100  0.62560  Biso   1.000  H
  H328     1.0000 0.88640  0.59100  0.87440  Biso   1.000  H
  H329     1.0000 0.43530  0.97070  0.41930  Biso   1.000  H
  H330     1.0000 0.56470  0.97070  0.08070  Biso   1.000  H
  H331     1.0000 0.93530  0.47070  0.41930  Biso   1.000  H
  H332     1.0000 0.06470  0.47070  0.08070  Biso   1.000  H
  H333     1.0000 0.56470  0.02930  0.58070  Biso   1.000  H
  H334     1.0000 0.43530  0.02930  0.91930  Biso   1.000  H
  H335     1.0000 0.06470  0.52930  0.58070  Biso   1.000  H
  H336     1.0000 0.93530  0.52930  0.91930  Biso   1.000  H
  C257     1.0000 0.44140  0.91520  0.50960  Biso   1.000  C
  C258     1.0000 0.55860  0.91520  0.99040  Biso   1.000  C
  C259     1.0000 0.94140  0.41520  0.50960  Biso   1.000  C
  C260     1.0000 0.05860  0.41520  0.99040  Biso   1.000  C
  C261     1.0000 0.55860  0.08480  0.49040  Biso   1.000  C
  C262     1.0000 0.44140  0.08480  0.00960  Biso   1.000  C
  C263     1.0000 0.05860  0.58480  0.49040  Biso   1.000  C
  C264     1.0000 0.94140  0.58480  0.00960  Biso   1.000  C
  H337     1.0000 0.41070  0.88940  0.51050  Biso   1.000  H
  H338     1.0000 0.58930  0.88940  0.98950  Biso   1.000  H
  H339     1.0000 0.91070  0.38940  0.51050  Biso   1.000  H
  H340     1.0000 0.08930  0.38940  0.98950  Biso   1.000  H
  H341     1.0000 0.58930  0.11060  0.48950  Biso   1.000  H
  H342     1.0000 0.41070  0.11060  0.01050  Biso   1.000  H
  H343     1.0000 0.08930  0.61060  0.48950  Biso   1.000  H
  H344     1.0000 0.91070  0.61060  0.01050  Biso   1.000  H
  H345     1.0000 0.46070  0.95070  0.55540  Biso   1.000  H
  H346     1.0000 0.53930  0.95070  0.94460  Biso   1.000  H
  H347     1.0000 0.96070  0.45070  0.55540  Biso   1.000  H
  H348     1.0000 0.03930  0.45070  0.94460  Biso   1.000  H
  H349     1.0000 0.53930  0.04930  0.44460  Biso   1.000  H
  H350     1.0000 0.46070  0.04930  0.05540  Biso   1.000  H
  H351     1.0000 0.03930  0.54930  0.44460  Biso   1.000  H
  H352     1.0000 0.96070  0.54930  0.05540  Biso   1.000  H
  C265     1.0000 0.49700  0.86990  0.53520  Biso   1.000  C
  C266     1.0000 0.50300  0.86990  0.96480  Biso   1.000  C
  C267     1.0000 0.99700  0.36990  0.53520  Biso   1.000  C
  C268     1.0000 0.00300  0.36990  0.96480  Biso   1.000  C
  C269     1.0000 0.50300  0.13010  0.46480  Biso   1.000  C
  C270     1.0000 0.49700  0.13010  0.03520  Biso   1.000  C
  C271     1.0000 0.00300  0.63010  0.46480  Biso   1.000  C
  C272     1.0000 0.99700  0.63010  0.03520  Biso   1.000  C
  H353     1.0000 0.50690  0.83180  0.57050  Biso   1.000  H
  H354     1.0000 0.49310  0.83180  0.92950  Biso   1.000  H
  H355     1.0000 0.00690  0.33180  0.57050  Biso   1.000  H
  H356     1.0000 0.99310  0.33180  0.92950  Biso   1.000  H
  H357     1.0000 0.49310  0.16820  0.42950  Biso   1.000  H
  H358     1.0000 0.50690  0.16820  0.07050  Biso   1.000  H
  H359     1.0000 0.99310  0.66820  0.42950  Biso   1.000  H
  H360     1.0000 0.00690  0.66820  0.07050  Biso   1.000  H
  C273     1.0000 0.53190  0.87990  0.51210  Biso   1.000  C
  C274     1.0000 0.46810  0.87990  0.98790  Biso   1.000  C
  C275     1.0000 0.03190  0.37990  0.51210  Biso   1.000  C
  C276     1.0000 0.96810  0.37990  0.98790  Biso   1.000  C
  C277     1.0000 0.46810  0.12010  0.48790  Biso   1.000  C
  C278     1.0000 0.53190  0.12010  0.01210  Biso   1.000  C
  C279     1.0000 0.96810  0.62010  0.48790  Biso   1.000  C
  C280     1.0000 0.03190  0.62010  0.01210  Biso   1.000  C
  H361     1.0000 0.52000  0.91590  0.47280  Biso   1.000  H
  H362     1.0000 0.48000  0.91590  0.02720  Biso   1.000  H
  H363     1.0000 0.02000  0.41590  0.47280  Biso   1.000  H
  H364     1.0000 0.98000  0.41590  0.02720  Biso   1.000  H
  H365     1.0000 0.48000  0.08410  0.52720  Biso   1.000  H
  H366     1.0000 0.52000  0.08410  0.97280  Biso   1.000  H
  H367     1.0000 0.98000  0.58410  0.52720  Biso   1.000  H
  H368     1.0000 0.02000  0.58410  0.97280  Biso   1.000  H
  C281     1.0000 0.59070  0.83730  0.54440  Biso   1.000  C
  C282     1.0000 0.40930  0.83730  0.95560  Biso   1.000  C
  C283     1.0000 0.09070  0.33730  0.54440  Biso   1.000  C
  C284     1.0000 0.90930  0.33730  0.95560  Biso   1.000  C
  C285     1.0000 0.40930  0.16270  0.45560  Biso   1.000  C
  C286     1.0000 0.59070  0.16270  0.04440  Biso   1.000  C
  C287     1.0000 0.90930  0.66270  0.45560  Biso   1.000  C
  C288     1.0000 0.09070  0.66270  0.04440  Biso   1.000  C
  H369     1.0000 0.63230  0.86080  0.59320  Biso   1.000  H
  H370     1.0000 0.36770  0.86080  0.90680  Biso   1.000  H
  H371     1.0000 0.13230  0.36080  0.59320  Biso   1.000  H
  H372     1.0000 0.86770  0.36080  0.90680  Biso   1.000  H
  H373     1.0000 0.36770  0.13920  0.40680  Biso   1.000  H
  H374     1.0000 0.63230  0.13920  0.09320  Biso   1.000  H
  H375     1.0000 0.86770  0.63920  0.40680  Biso   1.000  H
  H376     1.0000 0.13230  0.63920  0.09320  Biso   1.000  H
  H377     1.0000 0.59000  0.79570  0.57000  Biso   1.000  H
  H378     1.0000 0.41000  0.79570  0.93000  Biso   1.000  H
  H379     1.0000 0.09000  0.29570  0.57000  Biso   1.000  H
  H380     1.0000 0.91000  0.29570  0.93000  Biso   1.000  H
  H381     1.0000 0.41000  0.20430  0.43000  Biso   1.000  H
  H382     1.0000 0.59000  0.20430  0.07000  Biso   1.000  H
  H383     1.0000 0.91000  0.70430  0.43000  Biso   1.000  H
  H384     1.0000 0.09000  0.70430  0.07000  Biso   1.000  H
  C289     1.0000 0.58950  0.82150  0.46860  Biso   1.000  C
  C290     1.0000 0.41050  0.82150  0.03140  Biso   1.000  C
  C291     1.0000 0.08950  0.32150  0.46860  Biso   1.000  C
  C292     1.0000 0.91050  0.32150  0.03140  Biso   1.000  C
  C293     1.0000 0.41050  0.17850  0.53140  Biso   1.000  C
  C294     1.0000 0.58950  0.17850  0.96860  Biso   1.000  C
  C295     1.0000 0.91050  0.67850  0.53140  Biso   1.000  C
  C296     1.0000 0.08950  0.67850  0.96860  Biso   1.000  C
  H385     1.0000 0.63130  0.79920  0.49380  Biso   1.000  H
  H386     1.0000 0.36870  0.79920  0.00620  Biso   1.000  H
  H387     1.0000 0.13130  0.29920  0.49380  Biso   1.000  H
  H388     1.0000 0.86870  0.29920  0.00620  Biso   1.000  H
  H389     1.0000 0.36870  0.20080  0.50620  Biso   1.000  H
  H390     1.0000 0.63130  0.20080  0.99380  Biso   1.000  H
  H391     1.0000 0.86870  0.70080  0.50620  Biso   1.000  H
  H392     1.0000 0.13130  0.70080  0.99380  Biso   1.000  H
  H393     1.0000 0.58620  0.86300  0.43930  Biso   1.000  H
  H394     1.0000 0.41380  0.86300  0.06070  Biso   1.000  H
  H395     1.0000 0.08620  0.36300  0.43930  Biso   1.000  H
  H396     1.0000 0.91380  0.36300  0.06070  Biso   1.000  H
  H397     1.0000 0.41380  0.13700  0.56070  Biso   1.000  H
  H398     1.0000 0.58620  0.13700  0.93930  Biso   1.000  H
  H399     1.0000 0.91380  0.63700  0.56070  Biso   1.000  H
  H400     1.0000 0.08620  0.63700  0.93930  Biso   1.000  H
  C297     1.0000 0.53130  0.77710  0.39850  Biso   1.000  C
  C298     1.0000 0.46870  0.77710  0.10150  Biso   1.000  C
  C299     1.0000 0.03130  0.27710  0.39850  Biso   1.000  C
  C300     1.0000 0.96870  0.27710  0.10150  Biso   1.000  C
  C301     1.0000 0.46870  0.22290  0.60150  Biso   1.000  C
  C302     1.0000 0.53130  0.22290  0.89850  Biso   1.000  C
  C303     1.0000 0.96870  0.72290  0.60150  Biso   1.000  C
  C304     1.0000 0.03130  0.72290  0.89850  Biso   1.000  C
  C305     1.0000 0.53660  0.70890  0.40870  Biso   1.000  C
  C306     1.0000 0.46340  0.70890  0.09130  Biso   1.000  C
  C307     1.0000 0.03660  0.20890  0.40870  Biso   1.000  C
  C308     1.0000 0.96340  0.20890  0.09130  Biso   1.000  C
  C309     1.0000 0.46340  0.29110  0.59130  Biso   1.000  C
  C310     1.0000 0.53660  0.29110  0.90870  Biso   1.000  C
  C311     1.0000 0.96340  0.79110  0.59130  Biso   1.000  C
  C312     1.0000 0.03660  0.79110  0.90870  Biso   1.000  C
  H401     1.0000 0.57860  0.68880  0.45360  Biso   1.000  H
  H402     1.0000 0.42140  0.68880  0.04640  Biso   1.000  H
  H403     1.0000 0.07860  0.18880  0.45360  Biso   1.000  H
  H404     1.0000 0.92140  0.18880  0.04640  Biso   1.000  H
  H405     1.0000 0.42140  0.31120  0.54640  Biso   1.000  H
  H406     1.0000 0.57860  0.31120  0.95360  Biso   1.000  H
  H407     1.0000 0.92140  0.81120  0.54640  Biso   1.000  H
  H408     1.0000 0.07860  0.81120  0.95360  Biso   1.000  H
  C313     1.0000 0.48010  0.67080  0.35300  Biso   1.000  C
  C314     1.0000 0.51990  0.67080  0.14700  Biso   1.000  C
  C315     1.0000 0.98010  0.17080  0.35300  Biso   1.000  C
  C316     1.0000 0.01990  0.17080  0.14700  Biso   1.000  C
  C317     1.0000 0.51990  0.32920  0.64700  Biso   1.000  C
  C318     1.0000 0.48010  0.32920  0.85300  Biso   1.000  C
  C319     1.0000 0.01990  0.82920  0.64700  Biso   1.000  C
  C320     1.0000 0.98010  0.82920  0.85300  Biso   1.000  C
  H409     1.0000 0.48510  0.62460  0.36380  Biso   1.000  H
  H410     1.0000 0.51490  0.62460  0.13620  Biso   1.000  H
  H411     1.0000 0.98510  0.12460  0.36380  Biso   1.000  H
  H412     1.0000 0.01490  0.12460  0.13620  Biso   1.000  H
  H413     1.0000 0.51490  0.37540  0.63620  Biso   1.000  H
  H414     1.0000 0.48510  0.37540  0.86380  Biso   1.000  H
  H415     1.0000 0.01490  0.87540  0.63620  Biso   1.000  H
  H416     1.0000 0.98510  0.87540  0.86380  Biso   1.000  H
  C321     1.0000 0.41510  0.76160  0.27670  Biso   1.000  C
  C322     1.0000 0.58490  0.76160  0.22330  Biso   1.000  C
  C323     1.0000 0.91510  0.26160  0.27670  Biso   1.000  C
  C324     1.0000 0.08490  0.26160  0.22330  Biso   1.000  C
  C325     1.0000 0.58490  0.23840  0.72330  Biso   1.000  C
  C326     1.0000 0.41510  0.23840  0.77670  Biso   1.000  C
  C327     1.0000 0.08490  0.73840  0.72330  Biso   1.000  C
  C328     1.0000 0.91510  0.73840  0.77670  Biso   1.000  C
  H417     1.0000 0.37330  0.78240  0.23350  Biso   1.000  H
  H418     1.0000 0.62670  0.78240  0.26650  Biso   1.000  H
  H419     1.0000 0.87330  0.28240  0.23350  Biso   1.000  H
  H420     1.0000 0.12670  0.28240  0.26650  Biso   1.000  H
  H421     1.0000 0.62670  0.21760  0.76650  Biso   1.000  H
  H422     1.0000 0.37330  0.21760  0.73350  Biso   1.000  H
  H423     1.0000 0.12670  0.71760  0.76650  Biso   1.000  H
  H424     1.0000 0.87330  0.71760  0.73350  Biso   1.000  H
  C329     1.0000 0.46920  0.80260  0.32890  Biso   1.000  C
  C330     1.0000 0.53080  0.80260  0.17110  Biso   1.000  C
  C331     1.0000 0.96920  0.30260  0.32890  Biso   1.000  C
  C332     1.0000 0.03080  0.30260  0.17110  Biso   1.000  C
  C333     1.0000 0.53080  0.19740  0.67110  Biso   1.000  C
  C334     1.0000 0.46920  0.19740  0.82890  Biso   1.000  C
  C335     1.0000 0.03080  0.69740  0.67110  Biso   1.000  C
  C336     1.0000 0.96920  0.69740  0.82890  Biso   1.000  C
  H425     1.0000 0.46390  0.84870  0.31690  Biso   1.000  H
  H426     1.0000 0.53610  0.84870  0.18310  Biso   1.000  H
  H427     1.0000 0.96390  0.34870  0.31690  Biso   1.000  H
  H428     1.0000 0.03610  0.34870  0.18310  Biso   1.000  H
  H429     1.0000 0.53610  0.15130  0.68310  Biso   1.000  H
  H430     1.0000 0.46390  0.15130  0.81690  Biso   1.000  H
  H431     1.0000 0.03610  0.65130  0.68310  Biso   1.000  H
  H432     1.0000 0.96390  0.65130  0.81690  Biso   1.000  H
  N33      1.0000 0.97240  0.16900  0.90460  Biso   1.000  N
  N34      1.0000 0.02760  0.16900  0.59540  Biso   1.000  N
  N35      1.0000 0.47240  0.66900  0.90460  Biso   1.000  N
  N36      1.0000 0.52760  0.66900  0.59540  Biso   1.000  N
  N37      1.0000 0.02760  0.83100  0.09540  Biso   1.000  N
  N38      1.0000 0.97240  0.83100  0.40460  Biso   1.000  N
  N39      1.0000 0.52760  0.33100  0.09540  Biso   1.000  N
  N40      1.0000 0.47240  0.33100  0.40460  Biso   1.000  N
  O17      1.0000 0.97721  0.12570  0.95470  Biso   1.000  O
  O18      1.0000 0.02279  0.12570  0.54530  Biso   1.000  O
  O19      1.0000 0.47721  0.62570  0.95470  Biso   1.000  O
  O20      1.0000 0.52279  0.62570  0.54530  Biso   1.000  O
  O21      1.0000 0.02279  0.87430  0.04530  Biso   1.000  O
  O22      1.0000 0.97721  0.87430  0.45470  Biso   1.000  O
  O23      1.0000 0.52279  0.37430  0.04530  Biso   1.000  O
  O24      1.0000 0.47721  0.37430  0.45470  Biso   1.000  O
  O25      1.0000 0.92192  0.17170  0.82300  Biso   1.000  O
  O26      1.0000 0.07808  0.17170  0.67700  Biso   1.000  O
  O27      1.0000 0.42192  0.67170  0.82300  Biso   1.000  O
  O28      1.0000 0.57808  0.67170  0.67700  Biso   1.000  O
  O29      1.0000 0.07808  0.82830  0.17700  Biso   1.000  O
  O30      1.0000 0.92192  0.82830  0.32300  Biso   1.000  O
  O31      1.0000 0.57808  0.32830  0.17700  Biso   1.000  O
  O32      1.0000 0.42192  0.32830  0.32300  Biso   1.000  O
  O33      1.0000 0.01900  0.20740  0.93650  Biso   1.000  O
  O34      1.0000 0.98100  0.20740  0.56350  Biso   1.000  O
  O35      1.0000 0.51900  0.70740  0.93650  Biso   1.000  O
  O36      1.0000 0.48100  0.70740  0.56350  Biso   1.000  O
  O37      1.0000 0.98100  0.79260  0.06350  Biso   1.000  O
  O38      1.0000 0.01900  0.79260  0.43650  Biso   1.000  O
  O39      1.0000 0.48100  0.29260  0.06350  Biso   1.000  O
  O40      1.0000 0.51900  0.29260  0.43650  Biso   1.000  O
  N41      1.0000 0.25770  0.37170  0.41250  Biso   1.000  N
  N42      1.0000 0.74230  0.37170  0.08750  Biso   1.000  N
  N43      1.0000 0.75770  0.87170  0.41250  Biso   1.000  N
  N44      1.0000 0.24230  0.87170  0.08750  Biso   1.000  N
  N45      1.0000 0.74230  0.62830  0.58750  Biso   1.000  N
  N46      1.0000 0.25770  0.62830  0.91250  Biso   1.000  N
  N47      1.0000 0.24230  0.12830  0.58750  Biso   1.000  N
  N48      1.0000 0.75770  0.12830  0.91250  Biso   1.000  N
  O41      1.0000 0.21487  0.37020  0.42130  Biso   1.000  O
  O42      1.0000 0.78513  0.37020  0.07870  Biso   1.000  O
  O43      1.0000 0.71487  0.87020  0.42130  Biso   1.000  O
  O44      1.0000 0.28513  0.87020  0.07870  Biso   1.000  O
  O45      1.0000 0.78513  0.62980  0.57870  Biso   1.000  O
  O46      1.0000 0.21487  0.62980  0.92130  Biso   1.000  O
  O47      1.0000 0.28513  0.12980  0.57870  Biso   1.000  O
  O48      1.0000 0.71487  0.12980  0.92130  Biso   1.000  O
  O49      1.0000 0.25920  0.42030  0.37540  Biso   1.000  O
  O50      1.0000 0.74080  0.42030  0.12460  Biso   1.000  O
  O51      1.0000 0.75920  0.92030  0.37540  Biso   1.000  O
  O52      1.0000 0.24080  0.92030  0.12460  Biso   1.000  O
  O53      1.0000 0.74080  0.57970  0.62460  Biso   1.000  O
  O54      1.0000 0.25920  0.57970  0.87540  Biso   1.000  O
  O55      1.0000 0.24080  0.07970  0.62460  Biso   1.000  O
  O56      1.0000 0.75920  0.07970  0.87540  Biso   1.000  O
  O57      1.0000 0.29780  0.32520  0.44320  Biso   1.000  O
  O58      1.0000 0.70220  0.32520  0.05680  Biso   1.000  O
  O59      1.0000 0.79780  0.82520  0.44320  Biso   1.000  O
  O60      1.0000 0.20220  0.82520  0.05680  Biso   1.000  O
  O61      1.0000 0.70220  0.67480  0.55680  Biso   1.000  O
  O62      1.0000 0.29780  0.67480  0.94320  Biso   1.000  O
  O63      1.0000 0.20220  0.17480  0.55680  Biso   1.000  O
  O64      1.0000 0.79780  0.17480  0.94320  Biso   1.000  O
  O65      1.0000 0.87110  0.04354  0.89290  Biso   1.000  O
  O66      1.0000 0.12890  0.04354  0.60710  Biso   1.000  O
  O67      1.0000 0.37110  0.54354  0.89290  Biso   1.000  O
  O68      1.0000 0.62890  0.54354  0.60710  Biso   1.000  O
  O69      1.0000 0.12890  0.95646  0.10710  Biso   1.000  O
  O70      1.0000 0.87110  0.95646  0.39290  Biso   1.000  O
  O71      1.0000 0.62890  0.45646  0.10710  Biso   1.000  O
  O72      1.0000 0.37110  0.45646  0.39290  Biso   1.000  O
  H433     1.0000 0.89630  0.07530  0.90260  Biso   1.000  H
  H434     1.0000 0.10370  0.07530  0.59740  Biso   1.000  H
  H435     1.0000 0.39630  0.57530  0.90260  Biso   1.000  H
  H436     1.0000 0.60370  0.57530  0.59740  Biso   1.000  H
  H437     1.0000 0.10370  0.92470  0.09740  Biso   1.000  H
  H438     1.0000 0.89630  0.92470  0.40260  Biso   1.000  H
  H439     1.0000 0.60370  0.42470  0.09740  Biso   1.000  H
  H440     1.0000 0.39630  0.42470  0.40260  Biso   1.000  H
  H441     1.0000 0.83930  0.06110  0.88460  Biso   1.000  H
  H442     1.0000 0.16070  0.06110  0.61540  Biso   1.000  H
  H443     1.0000 0.33930  0.56110  0.88460  Biso   1.000  H
  H444     1.0000 0.66070  0.56110  0.61540  Biso   1.000  H
  H445     1.0000 0.16070  0.93890  0.11540  Biso   1.000  H
  H446     1.0000 0.83930  0.93890  0.38460  Biso   1.000  H
  H447     1.0000 0.66070  0.43890  0.11540  Biso   1.000  H
  H448     1.0000 0.33930  0.43890  0.38460  Biso   1.000  H
  O73      1.0000 0.12150  0.47750  0.34130  Biso   1.000  O
  O74      1.0000 0.87850  0.47750  0.15870  Biso   1.000  O
  O75      1.0000 0.62150  0.97750  0.34130  Biso   1.000  O
  O76      1.0000 0.37850  0.97750  0.15870  Biso   1.000  O
  O77      1.0000 0.87850  0.52250  0.65870  Biso   1.000  O
  O78      1.0000 0.12150  0.52250  0.84130  Biso   1.000  O
  O79      1.0000 0.37850  0.02250  0.65870  Biso   1.000  O
  O80      1.0000 0.62150  0.02250  0.84130  Biso   1.000  O
  H449     1.0000 0.13310  0.43940  0.33700  Biso   1.000  H
  H450     1.0000 0.86690  0.43940  0.16300  Biso   1.000  H
  H451     1.0000 0.63310  0.93940  0.33700  Biso   1.000  H
  H452     1.0000 0.36690  0.93940  0.16300  Biso   1.000  H
  H453     1.0000 0.86690  0.56060  0.66300  Biso   1.000  H
  H454     1.0000 0.13310  0.56060  0.83700  Biso   1.000  H
  H455     1.0000 0.36690  0.06060  0.66300  Biso   1.000  H
  H456     1.0000 0.63310  0.06060  0.83700  Biso   1.000  H
  H457     1.0000 0.14620  0.50510  0.34470  Biso   1.000  H
  H458     1.0000 0.85380  0.50510  0.15530  Biso   1.000  H
  H459     1.0000 0.64620  0.00510  0.34470  Biso   1.000  H
  H460     1.0000 0.35380  0.00510  0.15530  Biso   1.000  H
  H461     1.0000 0.85380  0.49490  0.65530  Biso   1.000  H
  H462     1.0000 0.14620  0.49490  0.84470  Biso   1.000  H
  H463     1.0000 0.35380  0.99490  0.65530  Biso   1.000  H
  H464     1.0000 0.64620  0.99490  0.84470  Biso   1.000  H
  O81      1.0000 0.06440  0.29600  0.87170  Biso   1.000  O
  O82      1.0000 0.93560  0.29600  0.62830  Biso   1.000  O
  O83      1.0000 0.56440  0.79600  0.87170  Biso   1.000  O
  O84      1.0000 0.43560  0.79600  0.62830  Biso   1.000  O
  O85      1.0000 0.93560  0.70400  0.12830  Biso   1.000  O
  O86      1.0000 0.06440  0.70400  0.37170  Biso   1.000  O
  O87      1.0000 0.43560  0.20400  0.12830  Biso   1.000  O
  O88      1.0000 0.56440  0.20400  0.37170  Biso   1.000  O
  O89      1.0000 0.93050  0.29200  0.75600  Biso   1.000  O
  O90      1.0000 0.06950  0.29200  0.74400  Biso   1.000  O
  O91      1.0000 0.43050  0.79200  0.75600  Biso   1.000  O
  O92      1.0000 0.56950  0.79200  0.74400  Biso   1.000  O
  O93      1.0000 0.06950  0.70800  0.24400  Biso   1.000  O
  O94      1.0000 0.93050  0.70800  0.25600  Biso   1.000  O
  O95      1.0000 0.56950  0.20800  0.24400  Biso   1.000  O
  O96      1.0000 0.43050  0.20800  0.25600  Biso   1.000  O
  O97      1.0000 0.43950  0.91020  0.61610  Biso   1.000  O
  O98      1.0000 0.56050  0.91020  0.88390  Biso   1.000  O
  O99      1.0000 0.93950  0.41020  0.61610  Biso   1.000  O
  O100     1.0000 0.06050  0.41020  0.88390  Biso   1.000  O
  O101     1.0000 0.56050  0.08980  0.38390  Biso   1.000  O
  O102     1.0000 0.43950  0.08980  0.11610  Biso   1.000  O
  O103     1.0000 0.06050  0.58980  0.38390  Biso   1.000  O
  O104     1.0000 0.93950  0.58980  0.11610  Biso   1.000  O
  O105     1.0000 0.50520  0.97650  0.32760  Biso   1.000  O
  O106     1.0000 0.49480  0.97650  0.17240  Biso   1.000  O
  O107     1.0000 0.00520  0.47650  0.32760  Biso   1.000  O
  O108     1.0000 0.99480  0.47650  0.17240  Biso   1.000  O
  O109     1.0000 0.49480  0.02350  0.67240  Biso   1.000  O
  O110     1.0000 0.50520  0.02350  0.82760  Biso   1.000  O
  O111     1.0000 0.99480  0.52350  0.67240  Biso   1.000  O
  O112     1.0000 0.00520  0.52350  0.82760  Biso   1.000  O
  O113     1.0000 0.85130  0.38670  0.70230  Biso   1.000  O
  O114     1.0000 0.14870  0.38670  0.79770  Biso   1.000  O
  O115     1.0000 0.35130  0.88670  0.70230  Biso   1.000  O
  O116     1.0000 0.64870  0.88670  0.79770  Biso   1.000  O
  O117     1.0000 0.14870  0.61330  0.29770  Biso   1.000  O
  O118     1.0000 0.85130  0.61330  0.20230  Biso   1.000  O
  O119     1.0000 0.64870  0.11330  0.29770  Biso   1.000  O
  O120     1.0000 0.35130  0.11330  0.20230  Biso   1.000  O
