data_image0
_cell_length_a       28.484
_cell_length_b       28.484
_cell_length_c       18.219
_cell_angle_alpha    90
_cell_angle_beta     90
_cell_angle_gamma    90

_symmetry_space_group_name_H-M    "P 1"
_symmetry_int_tables_number       1

loop_
  _symmetry_equiv_pos_as_xyz
  'x, y, z'

loop_
  _atom_site_label
  _atom_site_occupancy
  _atom_site_fract_x
  _atom_site_fract_y
  _atom_site_fract_z
  _atom_site_thermal_displace_type
  _atom_site_B_iso_or_equiv
  _atom_site_type_symbol
  O1       1.0000 0.44780  0.26310  0.09400  Biso   1.000  O
  O2       1.0000 0.98690  0.80220  0.15600  Biso   1.000  O
  O3       1.0000 0.01310  0.69780  0.15600  Biso   1.000  O
  O4       1.0000 0.51310  0.80220  0.84400  Biso   1.000  O
  O5       1.0000 0.98690  0.19780  0.34400  Biso   1.000  O
  O6       1.0000 0.94780  0.76310  0.59400  Biso   1.000  O
  O7       1.0000 0.51310  0.19780  0.65600  Biso   1.000  O
  O8       1.0000 0.01310  0.30220  0.34400  Biso   1.000  O
  O9       1.0000 0.48690  0.69780  0.84400  Biso   1.000  O
  O10      1.0000 0.55220  0.23690  0.09400  Biso   1.000  O
  O11      1.0000 0.44780  0.73690  0.40600  Biso   1.000  O
  O12      1.0000 0.05220  0.26310  0.90600  Biso   1.000  O
  O13      1.0000 0.05220  0.73690  0.59400  Biso   1.000  O
  O14      1.0000 0.94780  0.23690  0.90600  Biso   1.000  O
  O15      1.0000 0.55220  0.76310  0.40600  Biso   1.000  O
  O16      1.0000 0.48690  0.30220  0.65600  Biso   1.000  O
  O17      1.0000 0.55220  0.73690  0.90600  Biso   1.000  O
  O18      1.0000 0.51310  0.69780  0.34400  Biso   1.000  O
  O19      1.0000 0.48690  0.80220  0.34400  Biso   1.000  O
  O20      1.0000 0.98690  0.69780  0.65600  Biso   1.000  O
  O21      1.0000 0.51310  0.30220  0.15600  Biso   1.000  O
  O22      1.0000 0.05220  0.23690  0.40600  Biso   1.000  O
  O23      1.0000 0.98690  0.30220  0.84400  Biso   1.000  O
  O24      1.0000 0.48690  0.19780  0.15600  Biso   1.000  O
  O25      1.0000 0.01310  0.80220  0.65600  Biso   1.000  O
  O26      1.0000 0.44780  0.76310  0.90600  Biso   1.000  O
  O27      1.0000 0.55220  0.26310  0.59400  Biso   1.000  O
  O28      1.0000 0.94780  0.73690  0.09400  Biso   1.000  O
  O29      1.0000 0.94780  0.26310  0.40600  Biso   1.000  O
  O30      1.0000 0.05220  0.76310  0.09400  Biso   1.000  O
  O31      1.0000 0.44780  0.23690  0.59400  Biso   1.000  O
  O32      1.0000 0.01310  0.19780  0.84400  Biso   1.000  O
  Cl1      1.0000 0.81390  0.43070  0.04620  Biso   1.000  Cl
  Cl2      1.0000 0.81930  0.43610  0.20380  Biso   1.000  Cl
  Cl3      1.0000 0.18070  0.06390  0.20380  Biso   1.000  Cl
  Cl4      1.0000 0.68070  0.43610  0.79620  Biso   1.000  Cl
  Cl5      1.0000 0.81930  0.56390  0.29620  Biso   1.000  Cl
  Cl6      1.0000 0.31390  0.93070  0.54620  Biso   1.000  Cl
  Cl7      1.0000 0.68070  0.56390  0.70380  Biso   1.000  Cl
  Cl8      1.0000 0.18070  0.93610  0.29620  Biso   1.000  Cl
  Cl9      1.0000 0.31930  0.06390  0.79620  Biso   1.000  Cl
  Cl10     1.0000 0.18610  0.06930  0.04620  Biso   1.000  Cl
  Cl11     1.0000 0.81390  0.56930  0.45380  Biso   1.000  Cl
  Cl12     1.0000 0.68610  0.43070  0.95380  Biso   1.000  Cl
  Cl13     1.0000 0.68610  0.56930  0.54620  Biso   1.000  Cl
  Cl14     1.0000 0.31390  0.06930  0.95380  Biso   1.000  Cl
  Cl15     1.0000 0.18610  0.93070  0.45380  Biso   1.000  Cl
  Cl16     1.0000 0.31930  0.93610  0.70380  Biso   1.000  Cl
  Cl17     1.0000 0.18610  0.56930  0.95380  Biso   1.000  Cl
  Cl18     1.0000 0.68070  0.06390  0.29620  Biso   1.000  Cl
  Cl19     1.0000 0.31930  0.43610  0.29620  Biso   1.000  Cl
  Cl20     1.0000 0.81930  0.06390  0.70380  Biso   1.000  Cl
  Cl21     1.0000 0.68070  0.93610  0.20380  Biso   1.000  Cl
  Cl22     1.0000 0.68610  0.06930  0.45380  Biso   1.000  Cl
  Cl23     1.0000 0.81930  0.93610  0.79620  Biso   1.000  Cl
  Cl24     1.0000 0.31930  0.56390  0.20380  Biso   1.000  Cl
  Cl25     1.0000 0.18070  0.43610  0.70380  Biso   1.000  Cl
  Cl26     1.0000 0.81390  0.93070  0.95380  Biso   1.000  Cl
  Cl27     1.0000 0.18610  0.43070  0.54620  Biso   1.000  Cl
  Cl28     1.0000 0.31390  0.56930  0.04620  Biso   1.000  Cl
  Cl29     1.0000 0.31390  0.43070  0.45380  Biso   1.000  Cl
  Cl30     1.0000 0.68610  0.93070  0.04620  Biso   1.000  Cl
  Cl31     1.0000 0.81390  0.06930  0.54620  Biso   1.000  Cl
  Cl32     1.0000 0.18070  0.56390  0.79620  Biso   1.000  Cl
  C1       1.0000 0.84300  0.40700  0.12500  Biso   1.000  C
  C2       1.0000 0.15700  0.09300  0.12500  Biso   1.000  C
  C3       1.0000 0.65700  0.40700  0.87500  Biso   1.000  C
  C4       1.0000 0.84300  0.59300  0.37500  Biso   1.000  C
  C5       1.0000 0.34300  0.90700  0.62500  Biso   1.000  C
  C6       1.0000 0.65700  0.59300  0.62500  Biso   1.000  C
  C7       1.0000 0.15700  0.90700  0.37500  Biso   1.000  C
  C8       1.0000 0.34300  0.09300  0.87500  Biso   1.000  C
  C9       1.0000 0.15700  0.59300  0.87500  Biso   1.000  C
  C10      1.0000 0.65700  0.09300  0.37500  Biso   1.000  C
  C11      1.0000 0.34300  0.40700  0.37500  Biso   1.000  C
  C12      1.0000 0.84300  0.09300  0.62500  Biso   1.000  C
  C13      1.0000 0.65700  0.90700  0.12500  Biso   1.000  C
  C14      1.0000 0.84300  0.90700  0.87500  Biso   1.000  C
  C15      1.0000 0.34300  0.59300  0.12500  Biso   1.000  C
  C16      1.0000 0.15700  0.40700  0.62500  Biso   1.000  C
  H1       1.0000 0.83760  0.37340  0.12830  Biso   1.000  H
  H2       1.0000 0.87660  0.41240  0.12170  Biso   1.000  H
  H3       1.0000 0.12340  0.08760  0.12170  Biso   1.000  H
  H4       1.0000 0.62340  0.41240  0.87830  Biso   1.000  H
  H5       1.0000 0.87660  0.58760  0.37830  Biso   1.000  H
  H6       1.0000 0.33760  0.87340  0.62830  Biso   1.000  H
  H7       1.0000 0.62340  0.58760  0.62170  Biso   1.000  H
  H8       1.0000 0.12340  0.91240  0.37830  Biso   1.000  H
  H9       1.0000 0.37660  0.08760  0.87830  Biso   1.000  H
  H10      1.0000 0.16240  0.12660  0.12830  Biso   1.000  H
  H11      1.0000 0.83760  0.62660  0.37170  Biso   1.000  H
  H12      1.0000 0.66240  0.37340  0.87170  Biso   1.000  H
  H13      1.0000 0.66240  0.62660  0.62830  Biso   1.000  H
  H14      1.0000 0.33760  0.12660  0.87170  Biso   1.000  H
  H15      1.0000 0.16240  0.87340  0.37170  Biso   1.000  H
  H16      1.0000 0.37660  0.91240  0.62170  Biso   1.000  H
  H17      1.0000 0.16240  0.62660  0.87170  Biso   1.000  H
  H18      1.0000 0.62340  0.08760  0.37830  Biso   1.000  H
  H19      1.0000 0.37660  0.41240  0.37830  Biso   1.000  H
  H20      1.0000 0.87660  0.08760  0.62170  Biso   1.000  H
  H21      1.0000 0.62340  0.91240  0.12170  Biso   1.000  H
  H22      1.0000 0.66240  0.12660  0.37170  Biso   1.000  H
  H23      1.0000 0.87660  0.91240  0.87830  Biso   1.000  H
  H24      1.0000 0.37660  0.58760  0.12170  Biso   1.000  H
  H25      1.0000 0.12340  0.41240  0.62170  Biso   1.000  H
  H26      1.0000 0.83760  0.87340  0.87170  Biso   1.000  H
  H27      1.0000 0.16240  0.37340  0.62830  Biso   1.000  H
  H28      1.0000 0.33760  0.62660  0.12830  Biso   1.000  H
  H29      1.0000 0.33760  0.37340  0.37170  Biso   1.000  H
  H30      1.0000 0.66240  0.87340  0.12830  Biso   1.000  H
  H31      1.0000 0.83760  0.12660  0.62830  Biso   1.000  H
  H32      1.0000 0.12340  0.58760  0.87830  Biso   1.000  H
  Cu1      1.0000 0.49243  0.00000  0.25000  Biso   1.000  Cu
  Cu2      1.0000 0.25000  0.75757  0.00000  Biso   1.000  Cu
  Cu3      1.0000 0.75000  0.74243  0.00000  Biso   1.000  Cu
  Cu4      1.0000 0.25000  0.24243  0.50000  Biso   1.000  Cu
  Cu5      1.0000 0.99243  0.50000  0.75000  Biso   1.000  Cu
  Cu6      1.0000 0.75000  0.25757  0.50000  Biso   1.000  Cu
  Cu7      1.0000 0.50757  0.50000  0.25000  Biso   1.000  Cu
  Cu8      1.0000 0.00757  0.00000  0.75000  Biso   1.000  Cu
  Cu9      1.0000 0.50757  0.00000  0.75000  Biso   1.000  Cu
  Cu10     1.0000 0.25000  0.74243  0.50000  Biso   1.000  Cu
  Cu11     1.0000 0.75000  0.75757  0.50000  Biso   1.000  Cu
  Cu12     1.0000 0.25000  0.25757  0.00000  Biso   1.000  Cu
  Cu13     1.0000 0.00757  0.50000  0.25000  Biso   1.000  Cu
  Cu14     1.0000 0.75000  0.24243  0.00000  Biso   1.000  Cu
  Cu15     1.0000 0.49243  0.50000  0.75000  Biso   1.000  Cu
  Cu16     1.0000 0.99243  0.00000  0.25000  Biso   1.000  Cu
  O33      1.0000 0.49010  0.94630  0.00630  Biso   1.000  O
  O34      1.0000 0.30370  0.75990  0.24370  Biso   1.000  O
  O35      1.0000 0.69630  0.74010  0.24370  Biso   1.000  O
  O36      1.0000 0.19630  0.75990  0.75630  Biso   1.000  O
  O37      1.0000 0.30370  0.24010  0.25630  Biso   1.000  O
  O38      1.0000 0.99010  0.44630  0.50630  Biso   1.000  O
  O39      1.0000 0.19630  0.24010  0.74370  Biso   1.000  O
  O40      1.0000 0.69630  0.25990  0.25630  Biso   1.000  O
  O41      1.0000 0.80370  0.74010  0.75630  Biso   1.000  O
  O42      1.0000 0.50990  0.55370  0.00630  Biso   1.000  O
  O43      1.0000 0.49010  0.05370  0.49370  Biso   1.000  O
  O44      1.0000 0.00990  0.94630  0.99370  Biso   1.000  O
  O45      1.0000 0.00990  0.05370  0.50630  Biso   1.000  O
  O46      1.0000 0.99010  0.55370  0.99370  Biso   1.000  O
  O47      1.0000 0.50990  0.44630  0.49370  Biso   1.000  O
  O48      1.0000 0.80370  0.25990  0.74370  Biso   1.000  O
  O49      1.0000 0.50990  0.05370  0.99370  Biso   1.000  O
  O50      1.0000 0.19630  0.74010  0.25630  Biso   1.000  O
  O51      1.0000 0.80370  0.75990  0.25630  Biso   1.000  O
  O52      1.0000 0.30370  0.74010  0.74370  Biso   1.000  O
  O53      1.0000 0.19630  0.25990  0.24370  Biso   1.000  O
  O54      1.0000 0.00990  0.55370  0.49370  Biso   1.000  O
  O55      1.0000 0.30370  0.25990  0.75630  Biso   1.000  O
  O56      1.0000 0.80370  0.24010  0.24370  Biso   1.000  O
  O57      1.0000 0.69630  0.75990  0.74370  Biso   1.000  O
  O58      1.0000 0.49010  0.44630  0.99370  Biso   1.000  O
  O59      1.0000 0.50990  0.94630  0.50630  Biso   1.000  O
  O60      1.0000 0.99010  0.05370  0.00630  Biso   1.000  O
  O61      1.0000 0.99010  0.94630  0.49370  Biso   1.000  O
  O62      1.0000 0.00990  0.44630  0.00630  Biso   1.000  O
  O63      1.0000 0.49010  0.55370  0.50630  Biso   1.000  O
  O64      1.0000 0.69630  0.24010  0.75630  Biso   1.000  O
  O65      1.0000 0.49024  0.94901  0.13940  Biso   1.000  O
  O66      1.0000 0.30099  0.75976  0.11060  Biso   1.000  O
  O67      1.0000 0.69901  0.74024  0.11060  Biso   1.000  O
  O68      1.0000 0.19901  0.75976  0.88940  Biso   1.000  O
  O69      1.0000 0.30099  0.24024  0.38940  Biso   1.000  O
  O70      1.0000 0.99024  0.44901  0.63940  Biso   1.000  O
  O71      1.0000 0.19901  0.24024  0.61060  Biso   1.000  O
  O72      1.0000 0.69901  0.25976  0.38940  Biso   1.000  O
  O73      1.0000 0.80099  0.74024  0.88940  Biso   1.000  O
  O74      1.0000 0.50976  0.55099  0.13940  Biso   1.000  O
  O75      1.0000 0.49024  0.05099  0.36060  Biso   1.000  O
  O76      1.0000 0.00976  0.94901  0.86060  Biso   1.000  O
  O77      1.0000 0.00976  0.05099  0.63940  Biso   1.000  O
  O78      1.0000 0.99024  0.55099  0.86060  Biso   1.000  O
  O79      1.0000 0.50976  0.44901  0.36060  Biso   1.000  O
  O80      1.0000 0.80099  0.25976  0.61060  Biso   1.000  O
  O81      1.0000 0.50976  0.05099  0.86060  Biso   1.000  O
  O82      1.0000 0.19901  0.74024  0.38940  Biso   1.000  O
  O83      1.0000 0.80099  0.75976  0.38940  Biso   1.000  O
  O84      1.0000 0.30099  0.74024  0.61060  Biso   1.000  O
  O85      1.0000 0.19901  0.25976  0.11060  Biso   1.000  O
  O86      1.0000 0.00976  0.55099  0.36060  Biso   1.000  O
  O87      1.0000 0.30099  0.25976  0.88940  Biso   1.000  O
  O88      1.0000 0.80099  0.24024  0.11060  Biso   1.000  O
  O89      1.0000 0.69901  0.75976  0.61060  Biso   1.000  O
  O90      1.0000 0.49024  0.44901  0.86060  Biso   1.000  O
  O91      1.0000 0.50976  0.94901  0.63940  Biso   1.000  O
  O92      1.0000 0.99024  0.05099  0.13940  Biso   1.000  O
  O93      1.0000 0.99024  0.94901  0.36060  Biso   1.000  O
  O94      1.0000 0.00976  0.44901  0.13940  Biso   1.000  O
  O95      1.0000 0.49024  0.55099  0.63940  Biso   1.000  O
  O96      1.0000 0.69901  0.24024  0.88940  Biso   1.000  O
  S1       1.0000 0.50388  0.92587  0.07380  Biso   1.000  S
  S2       1.0000 0.32413  0.74612  0.17620  Biso   1.000  S
  S3       1.0000 0.67587  0.75388  0.17620  Biso   1.000  S
  S4       1.0000 0.17587  0.74612  0.82380  Biso   1.000  S
  S5       1.0000 0.32413  0.25388  0.32380  Biso   1.000  S
  S6       1.0000 0.00388  0.42587  0.57380  Biso   1.000  S
  S7       1.0000 0.17587  0.25388  0.67620  Biso   1.000  S
  S8       1.0000 0.67587  0.24612  0.32380  Biso   1.000  S
  S9       1.0000 0.82413  0.75388  0.82380  Biso   1.000  S
  S10      1.0000 0.49612  0.57413  0.07380  Biso   1.000  S
  S11      1.0000 0.50388  0.07413  0.42620  Biso   1.000  S
  S12      1.0000 0.99612  0.92587  0.92620  Biso   1.000  S
  S13      1.0000 0.99612  0.07413  0.57380  Biso   1.000  S
  S14      1.0000 0.00388  0.57413  0.92620  Biso   1.000  S
  S15      1.0000 0.49612  0.42587  0.42620  Biso   1.000  S
  S16      1.0000 0.82413  0.24612  0.67620  Biso   1.000  S
  S17      1.0000 0.49612  0.07413  0.92620  Biso   1.000  S
  S18      1.0000 0.17587  0.75388  0.32380  Biso   1.000  S
  S19      1.0000 0.82413  0.74612  0.32380  Biso   1.000  S
  S20      1.0000 0.32413  0.75388  0.67620  Biso   1.000  S
  S21      1.0000 0.17587  0.24612  0.17620  Biso   1.000  S
  S22      1.0000 0.99612  0.57413  0.42620  Biso   1.000  S
  S23      1.0000 0.32413  0.24612  0.82380  Biso   1.000  S
  S24      1.0000 0.82413  0.25388  0.17620  Biso   1.000  S
  S25      1.0000 0.67587  0.74612  0.67620  Biso   1.000  S
  S26      1.0000 0.50388  0.42587  0.92620  Biso   1.000  S
  S27      1.0000 0.49612  0.92587  0.57380  Biso   1.000  S
  S28      1.0000 0.00388  0.07413  0.07380  Biso   1.000  S
  S29      1.0000 0.00388  0.92587  0.42620  Biso   1.000  S
  S30      1.0000 0.99612  0.42587  0.07380  Biso   1.000  S
  S31      1.0000 0.50388  0.57413  0.57380  Biso   1.000  S
  S32      1.0000 0.67587  0.25388  0.82380  Biso   1.000  S
  O97      1.0000 0.55320  0.91530  0.07380  Biso   1.000  O
  O98      1.0000 0.33470  0.69680  0.17620  Biso   1.000  O
  O99      1.0000 0.66530  0.80320  0.17620  Biso   1.000  O
  O100     1.0000 0.16530  0.69680  0.82380  Biso   1.000  O
  O101     1.0000 0.33470  0.30320  0.32380  Biso   1.000  O
  O102     1.0000 0.05320  0.41530  0.57380  Biso   1.000  O
  O103     1.0000 0.16530  0.30320  0.67620  Biso   1.000  O
  O104     1.0000 0.66530  0.19680  0.32380  Biso   1.000  O
  O105     1.0000 0.83470  0.80320  0.82380  Biso   1.000  O
  O106     1.0000 0.44680  0.58470  0.07380  Biso   1.000  O
  O107     1.0000 0.55320  0.08470  0.42620  Biso   1.000  O
  O108     1.0000 0.94680  0.91530  0.92620  Biso   1.000  O
  O109     1.0000 0.94680  0.08470  0.57380  Biso   1.000  O
  O110     1.0000 0.05320  0.58470  0.92620  Biso   1.000  O
  O111     1.0000 0.44680  0.41530  0.42620  Biso   1.000  O
  O112     1.0000 0.83470  0.19680  0.67620  Biso   1.000  O
  O113     1.0000 0.44680  0.08470  0.92620  Biso   1.000  O
  O114     1.0000 0.16530  0.80320  0.32380  Biso   1.000  O
  O115     1.0000 0.83470  0.69680  0.32380  Biso   1.000  O
  O116     1.0000 0.33470  0.80320  0.67620  Biso   1.000  O
  O117     1.0000 0.16530  0.19680  0.17620  Biso   1.000  O
  O118     1.0000 0.94680  0.58470  0.42620  Biso   1.000  O
  O119     1.0000 0.33470  0.19680  0.82380  Biso   1.000  O
  O120     1.0000 0.83470  0.30320  0.17620  Biso   1.000  O
  O121     1.0000 0.66530  0.69680  0.67620  Biso   1.000  O
  O122     1.0000 0.55320  0.41530  0.92620  Biso   1.000  O
  O123     1.0000 0.44680  0.91530  0.57380  Biso   1.000  O
  O124     1.0000 0.05320  0.08470  0.07380  Biso   1.000  O
  O125     1.0000 0.05320  0.91530  0.42620  Biso   1.000  O
  O126     1.0000 0.94680  0.41530  0.07380  Biso   1.000  O
  O127     1.0000 0.55320  0.58470  0.57380  Biso   1.000  O
  O128     1.0000 0.66530  0.30320  0.82380  Biso   1.000  O
  C17      1.0000 0.47540  0.86870  0.07700  Biso   1.000  C
  C18      1.0000 0.38130  0.77460  0.17300  Biso   1.000  C
  C19      1.0000 0.61870  0.72540  0.17300  Biso   1.000  C
  C20      1.0000 0.11870  0.77460  0.82700  Biso   1.000  C
  C21      1.0000 0.38130  0.22540  0.32700  Biso   1.000  C
  C22      1.0000 0.97540  0.36870  0.57700  Biso   1.000  C
  C23      1.0000 0.11870  0.22540  0.67300  Biso   1.000  C
  C24      1.0000 0.61870  0.27460  0.32700  Biso   1.000  C
  C25      1.0000 0.88130  0.72540  0.82700  Biso   1.000  C
  C26      1.0000 0.52460  0.63130  0.07700  Biso   1.000  C
  C27      1.0000 0.47540  0.13130  0.42300  Biso   1.000  C
  C28      1.0000 0.02460  0.86870  0.92300  Biso   1.000  C
  C29      1.0000 0.02460  0.13130  0.57700  Biso   1.000  C
  C30      1.0000 0.97540  0.63130  0.92300  Biso   1.000  C
  C31      1.0000 0.52460  0.36870  0.42300  Biso   1.000  C
  C32      1.0000 0.88130  0.27460  0.67300  Biso   1.000  C
  C33      1.0000 0.52460  0.13130  0.92300  Biso   1.000  C
  C34      1.0000 0.11870  0.72540  0.32700  Biso   1.000  C
  C35      1.0000 0.88130  0.77460  0.32700  Biso   1.000  C
  C36      1.0000 0.38130  0.72540  0.67300  Biso   1.000  C
  C37      1.0000 0.11870  0.27460  0.17300  Biso   1.000  C
  C38      1.0000 0.02460  0.63130  0.42300  Biso   1.000  C
  C39      1.0000 0.38130  0.27460  0.82700  Biso   1.000  C
  C40      1.0000 0.88130  0.22540  0.17300  Biso   1.000  C
  C41      1.0000 0.61870  0.77460  0.67300  Biso   1.000  C
  C42      1.0000 0.47540  0.36870  0.92300  Biso   1.000  C
  C43      1.0000 0.52460  0.86870  0.57700  Biso   1.000  C
  C44      1.0000 0.97540  0.13130  0.07700  Biso   1.000  C
  C45      1.0000 0.97540  0.86870  0.42300  Biso   1.000  C
  C46      1.0000 0.02460  0.36870  0.07700  Biso   1.000  C
  C47      1.0000 0.47540  0.63130  0.57700  Biso   1.000  C
  C48      1.0000 0.61870  0.22540  0.82700  Biso   1.000  C
  F1       1.0000 0.48870  0.85200  0.01110  Biso   1.000  F
  F2       1.0000 0.39800  0.76130  0.23890  Biso   1.000  F
  F3       1.0000 0.60200  0.73870  0.23890  Biso   1.000  F
  F4       1.0000 0.10200  0.76130  0.76110  Biso   1.000  F
  F5       1.0000 0.39800  0.23870  0.26110  Biso   1.000  F
  F6       1.0000 0.98870  0.35200  0.51110  Biso   1.000  F
  F7       1.0000 0.10200  0.23870  0.73890  Biso   1.000  F
  F8       1.0000 0.60200  0.26130  0.26110  Biso   1.000  F
  F9       1.0000 0.89800  0.73870  0.76110  Biso   1.000  F
  F10      1.0000 0.51130  0.64800  0.01110  Biso   1.000  F
  F11      1.0000 0.48870  0.14800  0.48890  Biso   1.000  F
  F12      1.0000 0.01130  0.85200  0.98890  Biso   1.000  F
  F13      1.0000 0.01130  0.14800  0.51110  Biso   1.000  F
  F14      1.0000 0.98870  0.64800  0.98890  Biso   1.000  F
  F15      1.0000 0.51130  0.35200  0.48890  Biso   1.000  F
  F16      1.0000 0.89800  0.26130  0.73890  Biso   1.000  F
  F17      1.0000 0.51130  0.14800  0.98890  Biso   1.000  F
  F18      1.0000 0.10200  0.73870  0.26110  Biso   1.000  F
  F19      1.0000 0.89800  0.76130  0.26110  Biso   1.000  F
  F20      1.0000 0.39800  0.73870  0.73890  Biso   1.000  F
  F21      1.0000 0.10200  0.26130  0.23890  Biso   1.000  F
  F22      1.0000 0.01130  0.64800  0.48890  Biso   1.000  F
  F23      1.0000 0.39800  0.26130  0.76110  Biso   1.000  F
  F24      1.0000 0.89800  0.23870  0.23890  Biso   1.000  F
  F25      1.0000 0.60200  0.76130  0.73890  Biso   1.000  F
  F26      1.0000 0.48870  0.35200  0.98890  Biso   1.000  F
  F27      1.0000 0.51130  0.85200  0.51110  Biso   1.000  F
  F28      1.0000 0.98870  0.14800  0.01110  Biso   1.000  F
  F29      1.0000 0.98870  0.85200  0.48890  Biso   1.000  F
  F30      1.0000 0.01130  0.35200  0.01110  Biso   1.000  F
  F31      1.0000 0.48870  0.64800  0.51110  Biso   1.000  F
  F32      1.0000 0.60200  0.23870  0.76110  Biso   1.000  F
  F33      1.0000 0.49570  0.84690  0.13430  Biso   1.000  F
  F34      1.0000 0.40310  0.75430  0.11570  Biso   1.000  F
  F35      1.0000 0.59690  0.74570  0.11570  Biso   1.000  F
  F36      1.0000 0.09690  0.75430  0.88430  Biso   1.000  F
  F37      1.0000 0.40310  0.24570  0.38430  Biso   1.000  F
  F38      1.0000 0.99570  0.34690  0.63430  Biso   1.000  F
  F39      1.0000 0.09690  0.24570  0.61570  Biso   1.000  F
  F40      1.0000 0.59690  0.25430  0.38430  Biso   1.000  F
  F41      1.0000 0.90310  0.74570  0.88430  Biso   1.000  F
  F42      1.0000 0.50430  0.65310  0.13430  Biso   1.000  F
  F43      1.0000 0.49570  0.15310  0.36570  Biso   1.000  F
  F44      1.0000 0.00430  0.84690  0.86570  Biso   1.000  F
  F45      1.0000 0.00430  0.15310  0.63430  Biso   1.000  F
  F46      1.0000 0.99570  0.65310  0.86570  Biso   1.000  F
  F47      1.0000 0.50430  0.34690  0.36570  Biso   1.000  F
  F48      1.0000 0.90310  0.25430  0.61570  Biso   1.000  F
  F49      1.0000 0.50430  0.15310  0.86570  Biso   1.000  F
  F50      1.0000 0.09690  0.74570  0.38430  Biso   1.000  F
  F51      1.0000 0.90310  0.75430  0.38430  Biso   1.000  F
  F52      1.0000 0.40310  0.74570  0.61570  Biso   1.000  F
  F53      1.0000 0.09690  0.25430  0.11570  Biso   1.000  F
  F54      1.0000 0.00430  0.65310  0.36570  Biso   1.000  F
  F55      1.0000 0.40310  0.25430  0.88430  Biso   1.000  F
  F56      1.0000 0.90310  0.24570  0.11570  Biso   1.000  F
  F57      1.0000 0.59690  0.75430  0.61570  Biso   1.000  F
  F58      1.0000 0.49570  0.34690  0.86570  Biso   1.000  F
  F59      1.0000 0.50430  0.84690  0.63430  Biso   1.000  F
  F60      1.0000 0.99570  0.15310  0.13430  Biso   1.000  F
  F61      1.0000 0.99570  0.84690  0.36570  Biso   1.000  F
  F62      1.0000 0.00430  0.34690  0.13430  Biso   1.000  F
  F63      1.0000 0.49570  0.65310  0.63430  Biso   1.000  F
  F64      1.0000 0.59690  0.24570  0.88430  Biso   1.000  F
  F65      1.0000 0.42870  0.87430  0.08400  Biso   1.000  F
  F66      1.0000 0.37570  0.82130  0.16600  Biso   1.000  F
  F67      1.0000 0.62430  0.67870  0.16600  Biso   1.000  F
  F68      1.0000 0.12430  0.82130  0.83400  Biso   1.000  F
  F69      1.0000 0.37570  0.17870  0.33400  Biso   1.000  F
  F70      1.0000 0.92870  0.37430  0.58400  Biso   1.000  F
  F71      1.0000 0.12430  0.17870  0.66600  Biso   1.000  F
  F72      1.0000 0.62430  0.32130  0.33400  Biso   1.000  F
  F73      1.0000 0.87570  0.67870  0.83400  Biso   1.000  F
  F74      1.0000 0.57130  0.62570  0.08400  Biso   1.000  F
  F75      1.0000 0.42870  0.12570  0.41600  Biso   1.000  F
  F76      1.0000 0.07130  0.87430  0.91600  Biso   1.000  F
  F77      1.0000 0.07130  0.12570  0.58400  Biso   1.000  F
  F78      1.0000 0.92870  0.62570  0.91600  Biso   1.000  F
  F79      1.0000 0.57130  0.37430  0.41600  Biso   1.000  F
  F80      1.0000 0.87570  0.32130  0.66600  Biso   1.000  F
  F81      1.0000 0.57130  0.12570  0.91600  Biso   1.000  F
  F82      1.0000 0.12430  0.67870  0.33400  Biso   1.000  F
  F83      1.0000 0.87570  0.82130  0.33400  Biso   1.000  F
  F84      1.0000 0.37570  0.67870  0.66600  Biso   1.000  F
  F85      1.0000 0.12430  0.32130  0.16600  Biso   1.000  F
  F86      1.0000 0.07130  0.62570  0.41600  Biso   1.000  F
  F87      1.0000 0.37570  0.32130  0.83400  Biso   1.000  F
  F88      1.0000 0.87570  0.17870  0.16600  Biso   1.000  F
  F89      1.0000 0.62430  0.82130  0.66600  Biso   1.000  F
  F90      1.0000 0.42870  0.37430  0.91600  Biso   1.000  F
  F91      1.0000 0.57130  0.87430  0.58400  Biso   1.000  F
  F92      1.0000 0.92870  0.12570  0.08400  Biso   1.000  F
  F93      1.0000 0.92870  0.87430  0.41600  Biso   1.000  F
  F94      1.0000 0.07130  0.37430  0.08400  Biso   1.000  F
  F95      1.0000 0.42870  0.62570  0.58400  Biso   1.000  F
  F96      1.0000 0.62430  0.17870  0.83400  Biso   1.000  F
  N1       1.0000 0.44318  0.95865  0.29560  Biso   1.000  N
  N2       1.0000 0.29135  0.80682  0.95440  Biso   1.000  N
  N3       1.0000 0.70865  0.69318  0.95440  Biso   1.000  N
  N4       1.0000 0.20865  0.80682  0.04560  Biso   1.000  N
  N5       1.0000 0.29135  0.19318  0.54560  Biso   1.000  N
  N6       1.0000 0.94318  0.45865  0.79560  Biso   1.000  N
  N7       1.0000 0.20865  0.19318  0.45440  Biso   1.000  N
  N8       1.0000 0.70865  0.30682  0.54560  Biso   1.000  N
  N9       1.0000 0.79135  0.69318  0.04560  Biso   1.000  N
  N10      1.0000 0.55682  0.54135  0.29560  Biso   1.000  N
  N11      1.0000 0.44318  0.04135  0.20440  Biso   1.000  N
  N12      1.0000 0.05682  0.95865  0.70440  Biso   1.000  N
  N13      1.0000 0.05682  0.04135  0.79560  Biso   1.000  N
  N14      1.0000 0.94318  0.54135  0.70440  Biso   1.000  N
  N15      1.0000 0.55682  0.45865  0.20440  Biso   1.000  N
  N16      1.0000 0.79135  0.30682  0.45440  Biso   1.000  N
  N17      1.0000 0.55682  0.04135  0.70440  Biso   1.000  N
  N18      1.0000 0.20865  0.69318  0.54560  Biso   1.000  N
  N19      1.0000 0.79135  0.80682  0.54560  Biso   1.000  N
  N20      1.0000 0.29135  0.69318  0.45440  Biso   1.000  N
  N21      1.0000 0.20865  0.30682  0.95440  Biso   1.000  N
  N22      1.0000 0.05682  0.54135  0.20440  Biso   1.000  N
  N23      1.0000 0.29135  0.30682  0.04560  Biso   1.000  N
  N24      1.0000 0.79135  0.19318  0.95440  Biso   1.000  N
  N25      1.0000 0.70865  0.80682  0.45440  Biso   1.000  N
  N26      1.0000 0.44318  0.45865  0.70440  Biso   1.000  N
  N27      1.0000 0.55682  0.95865  0.79560  Biso   1.000  N
  N28      1.0000 0.94318  0.04135  0.29560  Biso   1.000  N
  N29      1.0000 0.94318  0.95865  0.20440  Biso   1.000  N
  N30      1.0000 0.05682  0.45865  0.29560  Biso   1.000  N
  N31      1.0000 0.44318  0.54135  0.79560  Biso   1.000  N
  N32      1.0000 0.70865  0.19318  0.04560  Biso   1.000  N
  N33      1.0000 0.29136  0.79248  0.45510  Biso   1.000  N
  N34      1.0000 0.45752  0.95864  0.79490  Biso   1.000  N
  N35      1.0000 0.54248  0.54136  0.79490  Biso   1.000  N
  N36      1.0000 0.04248  0.95864  0.20510  Biso   1.000  N
  N37      1.0000 0.45752  0.04136  0.70510  Biso   1.000  N
  N38      1.0000 0.79136  0.29248  0.95510  Biso   1.000  N
  N39      1.0000 0.04248  0.04136  0.29490  Biso   1.000  N
  N40      1.0000 0.54248  0.45864  0.70510  Biso   1.000  N
  N41      1.0000 0.95752  0.54136  0.20510  Biso   1.000  N
  N42      1.0000 0.70864  0.70752  0.45510  Biso   1.000  N
  N43      1.0000 0.29136  0.20752  0.04490  Biso   1.000  N
  N44      1.0000 0.20864  0.79248  0.54490  Biso   1.000  N
  N45      1.0000 0.20864  0.20752  0.95510  Biso   1.000  N
  N46      1.0000 0.79136  0.70752  0.54490  Biso   1.000  N
  N47      1.0000 0.70864  0.29248  0.04490  Biso   1.000  N
  N48      1.0000 0.95752  0.45864  0.29490  Biso   1.000  N
  N49      1.0000 0.70864  0.20752  0.54490  Biso   1.000  N
  N50      1.0000 0.04248  0.54136  0.70510  Biso   1.000  N
  N51      1.0000 0.95752  0.95864  0.70510  Biso   1.000  N
  N52      1.0000 0.45752  0.54136  0.29490  Biso   1.000  N
  N53      1.0000 0.04248  0.45864  0.79490  Biso   1.000  N
  N54      1.0000 0.20864  0.70752  0.04490  Biso   1.000  N
  N55      1.0000 0.45752  0.45864  0.20510  Biso   1.000  N
  N56      1.0000 0.95752  0.04136  0.79490  Biso   1.000  N
  N57      1.0000 0.54248  0.95864  0.29490  Biso   1.000  N
  N58      1.0000 0.29136  0.29248  0.54490  Biso   1.000  N
  N59      1.0000 0.70864  0.79248  0.95510  Biso   1.000  N
  N60      1.0000 0.79136  0.20752  0.45510  Biso   1.000  N
  N61      1.0000 0.79136  0.79248  0.04490  Biso   1.000  N
  N62      1.0000 0.20864  0.29248  0.45510  Biso   1.000  N
  N63      1.0000 0.29136  0.70752  0.95510  Biso   1.000  N
  N64      1.0000 0.54248  0.04136  0.20510  Biso   1.000  N
  C49      1.0000 0.27530  0.82210  0.40440  Biso   1.000  C
  C50      1.0000 0.42790  0.97470  0.84560  Biso   1.000  C
  C51      1.0000 0.57210  0.52530  0.84560  Biso   1.000  C
  C52      1.0000 0.07210  0.97470  0.15440  Biso   1.000  C
  C53      1.0000 0.42790  0.02530  0.65440  Biso   1.000  C
  C54      1.0000 0.77530  0.32210  0.90440  Biso   1.000  C
  C55      1.0000 0.07210  0.02530  0.34560  Biso   1.000  C
  C56      1.0000 0.57210  0.47470  0.65440  Biso   1.000  C
  C57      1.0000 0.92790  0.52530  0.15440  Biso   1.000  C
  C58      1.0000 0.72470  0.67790  0.40440  Biso   1.000  C
  C59      1.0000 0.27530  0.17790  0.09560  Biso   1.000  C
  C60      1.0000 0.22470  0.82210  0.59560  Biso   1.000  C
  C61      1.0000 0.22470  0.17790  0.90440  Biso   1.000  C
  C62      1.0000 0.77530  0.67790  0.59560  Biso   1.000  C
  C63      1.0000 0.72470  0.32210  0.09560  Biso   1.000  C
  C64      1.0000 0.92790  0.47470  0.34560  Biso   1.000  C
  C65      1.0000 0.72470  0.17790  0.59560  Biso   1.000  C
  C66      1.0000 0.07210  0.52530  0.65440  Biso   1.000  C
  C67      1.0000 0.92790  0.97470  0.65440  Biso   1.000  C
  C68      1.0000 0.42790  0.52530  0.34560  Biso   1.000  C
  C69      1.0000 0.07210  0.47470  0.84560  Biso   1.000  C
  C70      1.0000 0.22470  0.67790  0.09560  Biso   1.000  C
  C71      1.0000 0.42790  0.47470  0.15440  Biso   1.000  C
  C72      1.0000 0.92790  0.02530  0.84560  Biso   1.000  C
  C73      1.0000 0.57210  0.97470  0.34560  Biso   1.000  C
  C74      1.0000 0.27530  0.32210  0.59560  Biso   1.000  C
  C75      1.0000 0.72470  0.82210  0.90440  Biso   1.000  C
  C76      1.0000 0.77530  0.17790  0.40440  Biso   1.000  C
  C77      1.0000 0.77530  0.82210  0.09560  Biso   1.000  C
  C78      1.0000 0.22470  0.32210  0.40440  Biso   1.000  C
  C79      1.0000 0.27530  0.67790  0.90440  Biso   1.000  C
  C80      1.0000 0.57210  0.02530  0.15440  Biso   1.000  C
  H33      1.0000 0.24400  0.82020  0.39060  Biso   1.000  H
  H34      1.0000 0.42980  0.00600  0.85940  Biso   1.000  H
  H35      1.0000 0.57020  0.49400  0.85940  Biso   1.000  H
  H36      1.0000 0.07020  0.00600  0.14060  Biso   1.000  H
  H37      1.0000 0.42980  0.99400  0.64060  Biso   1.000  H
  H38      1.0000 0.74400  0.32020  0.89060  Biso   1.000  H
  H39      1.0000 0.07020  0.99400  0.35940  Biso   1.000  H
  H40      1.0000 0.57020  0.50600  0.64060  Biso   1.000  H
  H41      1.0000 0.92980  0.49400  0.14060  Biso   1.000  H
  H42      1.0000 0.75600  0.67980  0.39060  Biso   1.000  H
  H43      1.0000 0.24400  0.17980  0.10940  Biso   1.000  H
  H44      1.0000 0.25600  0.82020  0.60940  Biso   1.000  H
  H45      1.0000 0.25600  0.17980  0.89060  Biso   1.000  H
  H46      1.0000 0.74400  0.67980  0.60940  Biso   1.000  H
  H47      1.0000 0.75600  0.32020  0.10940  Biso   1.000  H
  H48      1.0000 0.92980  0.50600  0.35940  Biso   1.000  H
  H49      1.0000 0.75600  0.17980  0.60940  Biso   1.000  H
  H50      1.0000 0.07020  0.49400  0.64060  Biso   1.000  H
  H51      1.0000 0.92980  0.00600  0.64060  Biso   1.000  H
  H52      1.0000 0.42980  0.49400  0.35940  Biso   1.000  H
  H53      1.0000 0.07020  0.50600  0.85940  Biso   1.000  H
  H54      1.0000 0.25600  0.67980  0.10940  Biso   1.000  H
  H55      1.0000 0.42980  0.50600  0.14060  Biso   1.000  H
  H56      1.0000 0.92980  0.99400  0.85940  Biso   1.000  H
  H57      1.0000 0.57020  0.00600  0.35940  Biso   1.000  H
  H58      1.0000 0.24400  0.32020  0.60940  Biso   1.000  H
  H59      1.0000 0.75600  0.82020  0.89060  Biso   1.000  H
  H60      1.0000 0.74400  0.17980  0.39060  Biso   1.000  H
  H61      1.0000 0.74400  0.82020  0.10940  Biso   1.000  H
  H62      1.0000 0.25600  0.32020  0.39060  Biso   1.000  H
  H63      1.0000 0.24400  0.67980  0.89060  Biso   1.000  H
  H64      1.0000 0.57020  0.99400  0.14060  Biso   1.000  H
  C81      1.0000 0.38137  0.89460  0.35840  Biso   1.000  C
  C82      1.0000 0.35540  0.86863  0.89160  Biso   1.000  C
  C83      1.0000 0.64460  0.63137  0.89160  Biso   1.000  C
  C84      1.0000 0.14460  0.86863  0.10840  Biso   1.000  C
  C85      1.0000 0.35540  0.13137  0.60840  Biso   1.000  C
  C86      1.0000 0.88137  0.39460  0.85840  Biso   1.000  C
  C87      1.0000 0.14460  0.13137  0.39160  Biso   1.000  C
  C88      1.0000 0.64460  0.36863  0.60840  Biso   1.000  C
  C89      1.0000 0.85540  0.63137  0.10840  Biso   1.000  C
  C90      1.0000 0.61863  0.60540  0.35840  Biso   1.000  C
  C91      1.0000 0.38137  0.10540  0.14160  Biso   1.000  C
  C92      1.0000 0.11863  0.89460  0.64160  Biso   1.000  C
  C93      1.0000 0.11863  0.10540  0.85840  Biso   1.000  C
  C94      1.0000 0.88137  0.60540  0.64160  Biso   1.000  C
  C95      1.0000 0.61863  0.39460  0.14160  Biso   1.000  C
  C96      1.0000 0.85540  0.36863  0.39160  Biso   1.000  C
  C97      1.0000 0.61863  0.10540  0.64160  Biso   1.000  C
  C98      1.0000 0.14460  0.63137  0.60840  Biso   1.000  C
  C99      1.0000 0.85540  0.86863  0.60840  Biso   1.000  C
  C100     1.0000 0.35540  0.63137  0.39160  Biso   1.000  C
  C101     1.0000 0.14460  0.36863  0.89160  Biso   1.000  C
  C102     1.0000 0.11863  0.60540  0.14160  Biso   1.000  C
  C103     1.0000 0.35540  0.36863  0.10840  Biso   1.000  C
  C104     1.0000 0.85540  0.13137  0.89160  Biso   1.000  C
  C105     1.0000 0.64460  0.86863  0.39160  Biso   1.000  C
  C106     1.0000 0.38137  0.39460  0.64160  Biso   1.000  C
  C107     1.0000 0.61863  0.89460  0.85840  Biso   1.000  C
  C108     1.0000 0.88137  0.10540  0.35840  Biso   1.000  C
  C109     1.0000 0.88137  0.89460  0.14160  Biso   1.000  C
  C110     1.0000 0.11863  0.39460  0.35840  Biso   1.000  C
  C111     1.0000 0.38137  0.60540  0.85840  Biso   1.000  C
  C112     1.0000 0.64460  0.13137  0.10840  Biso   1.000  C
  C113     1.0000 0.34950  0.85940  0.39160  Biso   1.000  C
  C114     1.0000 0.39060  0.90050  0.85840  Biso   1.000  C
  C115     1.0000 0.60940  0.59950  0.85840  Biso   1.000  C
  C116     1.0000 0.10940  0.90050  0.14160  Biso   1.000  C
  C117     1.0000 0.39060  0.09950  0.64160  Biso   1.000  C
  C118     1.0000 0.84950  0.35940  0.89160  Biso   1.000  C
  C119     1.0000 0.10940  0.09950  0.35840  Biso   1.000  C
  C120     1.0000 0.60940  0.40050  0.64160  Biso   1.000  C
  C121     1.0000 0.89060  0.59950  0.14160  Biso   1.000  C
  C122     1.0000 0.65050  0.64060  0.39160  Biso   1.000  C
  C123     1.0000 0.34950  0.14060  0.10840  Biso   1.000  C
  C124     1.0000 0.15050  0.85940  0.60840  Biso   1.000  C
  C125     1.0000 0.15050  0.14060  0.89160  Biso   1.000  C
  C126     1.0000 0.84950  0.64060  0.60840  Biso   1.000  C
  C127     1.0000 0.65050  0.35940  0.10840  Biso   1.000  C
  C128     1.0000 0.89060  0.40050  0.35840  Biso   1.000  C
  C129     1.0000 0.65050  0.14060  0.60840  Biso   1.000  C
  C130     1.0000 0.10940  0.59950  0.64160  Biso   1.000  C
  C131     1.0000 0.89060  0.90050  0.64160  Biso   1.000  C
  C132     1.0000 0.39060  0.59950  0.35840  Biso   1.000  C
  C133     1.0000 0.10940  0.40050  0.85840  Biso   1.000  C
  C134     1.0000 0.15050  0.64060  0.10840  Biso   1.000  C
  C135     1.0000 0.39060  0.40050  0.14160  Biso   1.000  C
  C136     1.0000 0.89060  0.09950  0.85840  Biso   1.000  C
  C137     1.0000 0.60940  0.90050  0.35840  Biso   1.000  C
  C138     1.0000 0.34950  0.35940  0.60840  Biso   1.000  C
  C139     1.0000 0.65050  0.85940  0.89160  Biso   1.000  C
  C140     1.0000 0.84950  0.14060  0.39160  Biso   1.000  C
  C141     1.0000 0.84950  0.85940  0.10840  Biso   1.000  C
  C142     1.0000 0.15050  0.35940  0.39160  Biso   1.000  C
  C143     1.0000 0.34950  0.64060  0.89160  Biso   1.000  C
  C144     1.0000 0.60940  0.09950  0.14160  Biso   1.000  C
  C145     1.0000 0.44500  0.94840  0.36780  Biso   1.000  C
  C146     1.0000 0.30160  0.80500  0.88220  Biso   1.000  C
  C147     1.0000 0.69840  0.69500  0.88220  Biso   1.000  C
  C148     1.0000 0.19840  0.80500  0.11780  Biso   1.000  C
  C149     1.0000 0.30160  0.19500  0.61780  Biso   1.000  C
  C150     1.0000 0.94500  0.44840  0.86780  Biso   1.000  C
  C151     1.0000 0.19840  0.19500  0.38220  Biso   1.000  C
  C152     1.0000 0.69840  0.30500  0.61780  Biso   1.000  C
  C153     1.0000 0.80160  0.69500  0.11780  Biso   1.000  C
  C154     1.0000 0.55500  0.55160  0.36780  Biso   1.000  C
  C155     1.0000 0.44500  0.05160  0.13220  Biso   1.000  C
  C156     1.0000 0.05500  0.94840  0.63220  Biso   1.000  C
  C157     1.0000 0.05500  0.05160  0.86780  Biso   1.000  C
  C158     1.0000 0.94500  0.55160  0.63220  Biso   1.000  C
  C159     1.0000 0.55500  0.44840  0.13220  Biso   1.000  C
  C160     1.0000 0.80160  0.30500  0.38220  Biso   1.000  C
  C161     1.0000 0.55500  0.05160  0.63220  Biso   1.000  C
  C162     1.0000 0.19840  0.69500  0.61780  Biso   1.000  C
  C163     1.0000 0.80160  0.80500  0.61780  Biso   1.000  C
  C164     1.0000 0.30160  0.69500  0.38220  Biso   1.000  C
  C165     1.0000 0.19840  0.30500  0.88220  Biso   1.000  C
  C166     1.0000 0.05500  0.55160  0.13220  Biso   1.000  C
  C167     1.0000 0.30160  0.30500  0.11780  Biso   1.000  C
  C168     1.0000 0.80160  0.19500  0.88220  Biso   1.000  C
  C169     1.0000 0.69840  0.80500  0.38220  Biso   1.000  C
  C170     1.0000 0.44500  0.44840  0.63220  Biso   1.000  C
  C171     1.0000 0.55500  0.94840  0.86780  Biso   1.000  C
  C172     1.0000 0.94500  0.05160  0.36780  Biso   1.000  C
  C173     1.0000 0.94500  0.94840  0.13220  Biso   1.000  C
  C174     1.0000 0.05500  0.44840  0.36780  Biso   1.000  C
  C175     1.0000 0.44500  0.55160  0.86780  Biso   1.000  C
  C176     1.0000 0.69840  0.19500  0.11780  Biso   1.000  C
  H65      1.0000 0.46730  0.96340  0.39680  Biso   1.000  H
  H66      1.0000 0.28660  0.78270  0.85320  Biso   1.000  H
  H67      1.0000 0.71340  0.71730  0.85320  Biso   1.000  H
  H68      1.0000 0.21340  0.78270  0.14680  Biso   1.000  H
  H69      1.0000 0.28660  0.21730  0.64680  Biso   1.000  H
  H70      1.0000 0.96730  0.46340  0.89680  Biso   1.000  H
  H71      1.0000 0.21340  0.21730  0.35320  Biso   1.000  H
  H72      1.0000 0.71340  0.28270  0.64680  Biso   1.000  H
  H73      1.0000 0.78660  0.71730  0.14680  Biso   1.000  H
  H74      1.0000 0.53270  0.53660  0.39680  Biso   1.000  H
  H75      1.0000 0.46730  0.03660  0.10320  Biso   1.000  H
  H76      1.0000 0.03270  0.96340  0.60320  Biso   1.000  H
  H77      1.0000 0.03270  0.03660  0.89680  Biso   1.000  H
  H78      1.0000 0.96730  0.53660  0.60320  Biso   1.000  H
  H79      1.0000 0.53270  0.46340  0.10320  Biso   1.000  H
  H80      1.0000 0.78660  0.28270  0.35320  Biso   1.000  H
  H81      1.0000 0.53270  0.03660  0.60320  Biso   1.000  H
  H82      1.0000 0.21340  0.71730  0.64680  Biso   1.000  H
  H83      1.0000 0.78660  0.78270  0.64680  Biso   1.000  H
  H84      1.0000 0.28660  0.71730  0.35320  Biso   1.000  H
  H85      1.0000 0.21340  0.28270  0.85320  Biso   1.000  H
  H86      1.0000 0.03270  0.53660  0.10320  Biso   1.000  H
  H87      1.0000 0.28660  0.28270  0.14680  Biso   1.000  H
  H88      1.0000 0.78660  0.21730  0.85320  Biso   1.000  H
  H89      1.0000 0.71340  0.78270  0.35320  Biso   1.000  H
  H90      1.0000 0.46730  0.46340  0.60320  Biso   1.000  H
  H91      1.0000 0.53270  0.96340  0.89680  Biso   1.000  H
  H92      1.0000 0.96730  0.03660  0.39680  Biso   1.000  H
  H93      1.0000 0.96730  0.96340  0.10320  Biso   1.000  H
  H94      1.0000 0.03270  0.46340  0.39680  Biso   1.000  H
  H95      1.0000 0.46730  0.53660  0.89680  Biso   1.000  H
  H96      1.0000 0.71340  0.21730  0.14680  Biso   1.000  H
  C177     1.0000 0.33630  0.79570  0.47360  Biso   1.000  C
  C178     1.0000 0.45430  0.91370  0.77640  Biso   1.000  C
  C179     1.0000 0.54570  0.58630  0.77640  Biso   1.000  C
  C180     1.0000 0.04570  0.91370  0.22360  Biso   1.000  C
  C181     1.0000 0.45430  0.08630  0.72360  Biso   1.000  C
  C182     1.0000 0.83630  0.29570  0.97360  Biso   1.000  C
  C183     1.0000 0.04570  0.08630  0.27640  Biso   1.000  C
  C184     1.0000 0.54570  0.41370  0.72360  Biso   1.000  C
  C185     1.0000 0.95430  0.58630  0.22360  Biso   1.000  C
  C186     1.0000 0.66370  0.70430  0.47360  Biso   1.000  C
  C187     1.0000 0.33630  0.20430  0.02640  Biso   1.000  C
  C188     1.0000 0.16370  0.79570  0.52640  Biso   1.000  C
  C189     1.0000 0.16370  0.20430  0.97360  Biso   1.000  C
  C190     1.0000 0.83630  0.70430  0.52640  Biso   1.000  C
  C191     1.0000 0.66370  0.29570  0.02640  Biso   1.000  C
  C192     1.0000 0.95430  0.41370  0.27640  Biso   1.000  C
  C193     1.0000 0.66370  0.20430  0.52640  Biso   1.000  C
  C194     1.0000 0.04570  0.58630  0.72360  Biso   1.000  C
  C195     1.0000 0.95430  0.91370  0.72360  Biso   1.000  C
  C196     1.0000 0.45430  0.58630  0.27640  Biso   1.000  C
  C197     1.0000 0.04570  0.41370  0.77640  Biso   1.000  C
  C198     1.0000 0.16370  0.70430  0.02640  Biso   1.000  C
  C199     1.0000 0.45430  0.41370  0.22360  Biso   1.000  C
  C200     1.0000 0.95430  0.08630  0.77640  Biso   1.000  C
  C201     1.0000 0.54570  0.91370  0.27640  Biso   1.000  C
  C202     1.0000 0.33630  0.29570  0.52640  Biso   1.000  C
  C203     1.0000 0.66370  0.79570  0.97360  Biso   1.000  C
  C204     1.0000 0.83630  0.20430  0.47360  Biso   1.000  C
  C205     1.0000 0.83630  0.79570  0.02640  Biso   1.000  C
  C206     1.0000 0.16370  0.29570  0.47360  Biso   1.000  C
  C207     1.0000 0.33630  0.70430  0.97360  Biso   1.000  C
  C208     1.0000 0.54570  0.08630  0.22360  Biso   1.000  C
  H97      1.0000 0.34800  0.77490  0.50850  Biso   1.000  H
  H98      1.0000 0.47510  0.90200  0.74150  Biso   1.000  H
  H99      1.0000 0.52490  0.59800  0.74150  Biso   1.000  H
  H100     1.0000 0.02490  0.90200  0.25850  Biso   1.000  H
  H101     1.0000 0.47510  0.09800  0.75850  Biso   1.000  H
  H102     1.0000 0.84800  0.27490  0.00850  Biso   1.000  H
  H103     1.0000 0.02490  0.09800  0.24150  Biso   1.000  H
  H104     1.0000 0.52490  0.40200  0.75850  Biso   1.000  H
  H105     1.0000 0.97510  0.59800  0.25850  Biso   1.000  H
  H106     1.0000 0.65200  0.72510  0.50850  Biso   1.000  H
  H107     1.0000 0.34800  0.22510  0.99150  Biso   1.000  H
  H108     1.0000 0.15200  0.77490  0.49150  Biso   1.000  H
  H109     1.0000 0.15200  0.22510  0.00850  Biso   1.000  H
  H110     1.0000 0.84800  0.72510  0.49150  Biso   1.000  H
  H111     1.0000 0.65200  0.27490  0.99150  Biso   1.000  H
  H112     1.0000 0.97510  0.40200  0.24150  Biso   1.000  H
  H113     1.0000 0.65200  0.22510  0.49150  Biso   1.000  H
  H114     1.0000 0.02490  0.59800  0.75850  Biso   1.000  H
  H115     1.0000 0.97510  0.90200  0.75850  Biso   1.000  H
  H116     1.0000 0.47510  0.59800  0.24150  Biso   1.000  H
  H117     1.0000 0.02490  0.40200  0.74150  Biso   1.000  H
  H118     1.0000 0.15200  0.72510  0.99150  Biso   1.000  H
  H119     1.0000 0.47510  0.40200  0.25850  Biso   1.000  H
  H120     1.0000 0.97510  0.09800  0.74150  Biso   1.000  H
  H121     1.0000 0.52490  0.90200  0.24150  Biso   1.000  H
  H122     1.0000 0.34800  0.27490  0.49150  Biso   1.000  H
  H123     1.0000 0.65200  0.77490  0.00850  Biso   1.000  H
  H124     1.0000 0.84800  0.22510  0.50850  Biso   1.000  H
  H125     1.0000 0.84800  0.77490  0.99150  Biso   1.000  H
  H126     1.0000 0.15200  0.27490  0.50850  Biso   1.000  H
  H127     1.0000 0.34800  0.72510  0.00850  Biso   1.000  H
  H128     1.0000 0.52490  0.09800  0.25850  Biso   1.000  H
  C209     1.0000 0.40990  0.93810  0.25560  Biso   1.000  C
  C210     1.0000 0.31190  0.84010  0.99440  Biso   1.000  C
  C211     1.0000 0.68810  0.65990  0.99440  Biso   1.000  C
  C212     1.0000 0.18810  0.84010  0.00560  Biso   1.000  C
  C213     1.0000 0.31190  0.15990  0.50560  Biso   1.000  C
  C214     1.0000 0.90990  0.43810  0.75560  Biso   1.000  C
  C215     1.0000 0.18810  0.15990  0.49440  Biso   1.000  C
  C216     1.0000 0.68810  0.34010  0.50560  Biso   1.000  C
  C217     1.0000 0.81190  0.65990  0.00560  Biso   1.000  C
  C218     1.0000 0.59010  0.56190  0.25560  Biso   1.000  C
  C219     1.0000 0.40990  0.06190  0.24440  Biso   1.000  C
  C220     1.0000 0.09010  0.93810  0.74440  Biso   1.000  C
  C221     1.0000 0.09010  0.06190  0.75560  Biso   1.000  C
  C222     1.0000 0.90990  0.56190  0.74440  Biso   1.000  C
  C223     1.0000 0.59010  0.43810  0.24440  Biso   1.000  C
  C224     1.0000 0.81190  0.34010  0.49440  Biso   1.000  C
  C225     1.0000 0.59010  0.06190  0.74440  Biso   1.000  C
  C226     1.0000 0.18810  0.65990  0.50560  Biso   1.000  C
  C227     1.0000 0.81190  0.84010  0.50560  Biso   1.000  C
  C228     1.0000 0.31190  0.65990  0.49440  Biso   1.000  C
  C229     1.0000 0.18810  0.34010  0.99440  Biso   1.000  C
  C230     1.0000 0.09010  0.56190  0.24440  Biso   1.000  C
  C231     1.0000 0.31190  0.34010  0.00560  Biso   1.000  C
  C232     1.0000 0.81190  0.15990  0.99440  Biso   1.000  C
  C233     1.0000 0.68810  0.84010  0.49440  Biso   1.000  C
  C234     1.0000 0.40990  0.43810  0.74440  Biso   1.000  C
  C235     1.0000 0.59010  0.93810  0.75560  Biso   1.000  C
  C236     1.0000 0.90990  0.06190  0.25560  Biso   1.000  C
  C237     1.0000 0.90990  0.93810  0.24440  Biso   1.000  C
  C238     1.0000 0.09010  0.43810  0.25560  Biso   1.000  C
  C239     1.0000 0.40990  0.56190  0.75560  Biso   1.000  C
  C240     1.0000 0.68810  0.15990  0.00560  Biso   1.000  C
  H129     1.0000 0.40770  0.94580  0.20610  Biso   1.000  H
  H130     1.0000 0.30420  0.84230  0.04390  Biso   1.000  H
  H131     1.0000 0.69580  0.65770  0.04390  Biso   1.000  H
  H132     1.0000 0.19580  0.84230  0.95610  Biso   1.000  H
  H133     1.0000 0.30420  0.15770  0.45610  Biso   1.000  H
  H134     1.0000 0.90770  0.44580  0.70610  Biso   1.000  H
  H135     1.0000 0.19580  0.15770  0.54390  Biso   1.000  H
  H136     1.0000 0.69580  0.34230  0.45610  Biso   1.000  H
  H137     1.0000 0.80420  0.65770  0.95610  Biso   1.000  H
  H138     1.0000 0.59230  0.55420  0.20610  Biso   1.000  H
  H139     1.0000 0.40770  0.05420  0.29390  Biso   1.000  H
  H140     1.0000 0.09230  0.94580  0.79390  Biso   1.000  H
  H141     1.0000 0.09230  0.05420  0.70610  Biso   1.000  H
  H142     1.0000 0.90770  0.55420  0.79390  Biso   1.000  H
  H143     1.0000 0.59230  0.44580  0.29390  Biso   1.000  H
  H144     1.0000 0.80420  0.34230  0.54390  Biso   1.000  H
  H145     1.0000 0.59230  0.05420  0.79390  Biso   1.000  H
  H146     1.0000 0.19580  0.65770  0.45610  Biso   1.000  H
  H147     1.0000 0.80420  0.84230  0.45610  Biso   1.000  H
  H148     1.0000 0.30420  0.65770  0.54390  Biso   1.000  H
  H149     1.0000 0.19580  0.34230  0.04390  Biso   1.000  H
  H150     1.0000 0.09230  0.55420  0.29390  Biso   1.000  H
  H151     1.0000 0.30420  0.34230  0.95610  Biso   1.000  H
  H152     1.0000 0.80420  0.15770  0.04390  Biso   1.000  H
  H153     1.0000 0.69580  0.84230  0.54390  Biso   1.000  H
  H154     1.0000 0.40770  0.44580  0.79390  Biso   1.000  H
  H155     1.0000 0.59230  0.94580  0.70610  Biso   1.000  H
  H156     1.0000 0.90770  0.05420  0.20610  Biso   1.000  H
  H157     1.0000 0.90770  0.94580  0.29390  Biso   1.000  H
  H158     1.0000 0.09230  0.44580  0.20610  Biso   1.000  H
  H159     1.0000 0.40770  0.55420  0.70610  Biso   1.000  H
  H160     1.0000 0.69580  0.15770  0.95610  Biso   1.000  H
  C241     1.0000 0.36610  0.82820  0.44380  Biso   1.000  C
  C242     1.0000 0.42180  0.88390  0.80620  Biso   1.000  C
  C243     1.0000 0.57820  0.61610  0.80620  Biso   1.000  C
  C244     1.0000 0.07820  0.88390  0.19380  Biso   1.000  C
  C245     1.0000 0.42180  0.11610  0.69380  Biso   1.000  C
  C246     1.0000 0.86610  0.32820  0.94380  Biso   1.000  C
  C247     1.0000 0.07820  0.11610  0.30620  Biso   1.000  C
  C248     1.0000 0.57820  0.38390  0.69380  Biso   1.000  C
  C249     1.0000 0.92180  0.61610  0.19380  Biso   1.000  C
  C250     1.0000 0.63390  0.67180  0.44380  Biso   1.000  C
  C251     1.0000 0.36610  0.17180  0.05620  Biso   1.000  C
  C252     1.0000 0.13390  0.82820  0.55620  Biso   1.000  C
  C253     1.0000 0.13390  0.17180  0.94380  Biso   1.000  C
  C254     1.0000 0.86610  0.67180  0.55620  Biso   1.000  C
  C255     1.0000 0.63390  0.32820  0.05620  Biso   1.000  C
  C256     1.0000 0.92180  0.38390  0.30620  Biso   1.000  C
  C257     1.0000 0.63390  0.17180  0.55620  Biso   1.000  C
  C258     1.0000 0.07820  0.61610  0.69380  Biso   1.000  C
  C259     1.0000 0.92180  0.88390  0.69380  Biso   1.000  C
  C260     1.0000 0.42180  0.61610  0.30620  Biso   1.000  C
  C261     1.0000 0.07820  0.38390  0.80620  Biso   1.000  C
  C262     1.0000 0.13390  0.67180  0.05620  Biso   1.000  C
  C263     1.0000 0.42180  0.38390  0.19380  Biso   1.000  C
  C264     1.0000 0.92180  0.11610  0.80620  Biso   1.000  C
  C265     1.0000 0.57820  0.88390  0.30620  Biso   1.000  C
  C266     1.0000 0.36610  0.32820  0.55620  Biso   1.000  C
  C267     1.0000 0.63390  0.82820  0.94380  Biso   1.000  C
  C268     1.0000 0.86610  0.17180  0.44380  Biso   1.000  C
  C269     1.0000 0.86610  0.82820  0.05620  Biso   1.000  C
  C270     1.0000 0.13390  0.32820  0.44380  Biso   1.000  C
  C271     1.0000 0.36610  0.67180  0.94380  Biso   1.000  C
  C272     1.0000 0.57820  0.11610  0.19380  Biso   1.000  C
  H161     1.0000 0.39740  0.82930  0.45840  Biso   1.000  H
  H162     1.0000 0.42070  0.85260  0.79160  Biso   1.000  H
  H163     1.0000 0.57930  0.64740  0.79160  Biso   1.000  H
  H164     1.0000 0.07930  0.85260  0.20840  Biso   1.000  H
  H165     1.0000 0.42070  0.14740  0.70840  Biso   1.000  H
  H166     1.0000 0.89740  0.32930  0.95840  Biso   1.000  H
  H167     1.0000 0.07930  0.14740  0.29160  Biso   1.000  H
  H168     1.0000 0.57930  0.35260  0.70840  Biso   1.000  H
  H169     1.0000 0.92070  0.64740  0.20840  Biso   1.000  H
  H170     1.0000 0.60260  0.67070  0.45840  Biso   1.000  H
  H171     1.0000 0.39740  0.17070  0.04160  Biso   1.000  H
  H172     1.0000 0.10260  0.82930  0.54160  Biso   1.000  H
  H173     1.0000 0.10260  0.17070  0.95840  Biso   1.000  H
  H174     1.0000 0.89740  0.67070  0.54160  Biso   1.000  H
  H175     1.0000 0.60260  0.32930  0.04160  Biso   1.000  H
  H176     1.0000 0.92070  0.35260  0.29160  Biso   1.000  H
  H177     1.0000 0.60260  0.17070  0.54160  Biso   1.000  H
  H178     1.0000 0.07930  0.64740  0.70840  Biso   1.000  H
  H179     1.0000 0.92070  0.85260  0.70840  Biso   1.000  H
  H180     1.0000 0.42070  0.64740  0.29160  Biso   1.000  H
  H181     1.0000 0.07930  0.35260  0.79160  Biso   1.000  H
  H182     1.0000 0.10260  0.67070  0.04160  Biso   1.000  H
  H183     1.0000 0.42070  0.35260  0.20840  Biso   1.000  H
  H184     1.0000 0.92070  0.14740  0.79160  Biso   1.000  H
  H185     1.0000 0.57930  0.85260  0.29160  Biso   1.000  H
  H186     1.0000 0.39740  0.32930  0.54160  Biso   1.000  H
  H187     1.0000 0.60260  0.82930  0.95840  Biso   1.000  H
  H188     1.0000 0.89740  0.17070  0.45840  Biso   1.000  H
  H189     1.0000 0.89740  0.82930  0.04160  Biso   1.000  H
  H190     1.0000 0.10260  0.32930  0.45840  Biso   1.000  H
  H191     1.0000 0.39740  0.67070  0.95840  Biso   1.000  H
  H192     1.0000 0.57930  0.14740  0.20840  Biso   1.000  H
  C273     1.0000 0.41560  0.91670  0.40010  Biso   1.000  C
  C274     1.0000 0.33330  0.83440  0.84990  Biso   1.000  C
  C275     1.0000 0.66670  0.66560  0.84990  Biso   1.000  C
  C276     1.0000 0.16670  0.83440  0.15010  Biso   1.000  C
  C277     1.0000 0.33330  0.16560  0.65010  Biso   1.000  C
  C278     1.0000 0.91560  0.41670  0.90010  Biso   1.000  C
  C279     1.0000 0.16670  0.16560  0.34990  Biso   1.000  C
  C280     1.0000 0.66670  0.33440  0.65010  Biso   1.000  C
  C281     1.0000 0.83330  0.66560  0.15010  Biso   1.000  C
  C282     1.0000 0.58440  0.58330  0.40010  Biso   1.000  C
  C283     1.0000 0.41560  0.08330  0.09990  Biso   1.000  C
  C284     1.0000 0.08440  0.91670  0.59990  Biso   1.000  C
  C285     1.0000 0.08440  0.08330  0.90010  Biso   1.000  C
  C286     1.0000 0.91560  0.58330  0.59990  Biso   1.000  C
  C287     1.0000 0.58440  0.41670  0.09990  Biso   1.000  C
  C288     1.0000 0.83330  0.33440  0.34990  Biso   1.000  C
  C289     1.0000 0.58440  0.08330  0.59990  Biso   1.000  C
  C290     1.0000 0.16670  0.66560  0.65010  Biso   1.000  C
  C291     1.0000 0.83330  0.83440  0.65010  Biso   1.000  C
  C292     1.0000 0.33330  0.66560  0.34990  Biso   1.000  C
  C293     1.0000 0.16670  0.33440  0.84990  Biso   1.000  C
  C294     1.0000 0.08440  0.58330  0.09990  Biso   1.000  C
  C295     1.0000 0.33330  0.33440  0.15010  Biso   1.000  C
  C296     1.0000 0.83330  0.16560  0.84990  Biso   1.000  C
  C297     1.0000 0.66670  0.83440  0.34990  Biso   1.000  C
  C298     1.0000 0.41560  0.41670  0.59990  Biso   1.000  C
  C299     1.0000 0.58440  0.91670  0.90010  Biso   1.000  C
  C300     1.0000 0.91560  0.08330  0.40010  Biso   1.000  C
  C301     1.0000 0.91560  0.91670  0.09990  Biso   1.000  C
  C302     1.0000 0.08440  0.41670  0.40010  Biso   1.000  C
  C303     1.0000 0.41560  0.58330  0.90010  Biso   1.000  C
  C304     1.0000 0.66670  0.16560  0.15010  Biso   1.000  C
  H193     1.0000 0.41840  0.91010  0.44990  Biso   1.000  H
  H194     1.0000 0.33990  0.83160  0.80010  Biso   1.000  H
  H195     1.0000 0.66010  0.66840  0.80010  Biso   1.000  H
  H196     1.0000 0.16010  0.83160  0.19990  Biso   1.000  H
  H197     1.0000 0.33990  0.16840  0.69990  Biso   1.000  H
  H198     1.0000 0.91840  0.41010  0.94990  Biso   1.000  H
  H199     1.0000 0.16010  0.16840  0.30010  Biso   1.000  H
  H200     1.0000 0.66010  0.33160  0.69990  Biso   1.000  H
  H201     1.0000 0.83990  0.66840  0.19990  Biso   1.000  H
  H202     1.0000 0.58160  0.58990  0.44990  Biso   1.000  H
  H203     1.0000 0.41840  0.08990  0.05010  Biso   1.000  H
  H204     1.0000 0.08160  0.91010  0.55010  Biso   1.000  H
  H205     1.0000 0.08160  0.08990  0.94990  Biso   1.000  H
  H206     1.0000 0.91840  0.58990  0.55010  Biso   1.000  H
  H207     1.0000 0.58160  0.41010  0.05010  Biso   1.000  H
  H208     1.0000 0.83990  0.33160  0.30010  Biso   1.000  H
  H209     1.0000 0.58160  0.08990  0.55010  Biso   1.000  H
  H210     1.0000 0.16010  0.66840  0.69990  Biso   1.000  H
  H211     1.0000 0.83990  0.83160  0.69990  Biso   1.000  H
  H212     1.0000 0.33990  0.66840  0.30010  Biso   1.000  H
  H213     1.0000 0.16010  0.33160  0.80010  Biso   1.000  H
  H214     1.0000 0.08160  0.58990  0.05010  Biso   1.000  H
  H215     1.0000 0.33990  0.33160  0.19990  Biso   1.000  H
  H216     1.0000 0.83990  0.16840  0.80010  Biso   1.000  H
  H217     1.0000 0.66010  0.83160  0.30010  Biso   1.000  H
  H218     1.0000 0.41840  0.41010  0.55010  Biso   1.000  H
  H219     1.0000 0.58160  0.91010  0.94990  Biso   1.000  H
  H220     1.0000 0.91840  0.08990  0.44990  Biso   1.000  H
  H221     1.0000 0.91840  0.91010  0.05010  Biso   1.000  H
  H222     1.0000 0.08160  0.41010  0.44990  Biso   1.000  H
  H223     1.0000 0.41840  0.58990  0.94990  Biso   1.000  H
  H224     1.0000 0.66010  0.16840  0.19990  Biso   1.000  H
  C305     1.0000 0.37860  0.90590  0.28430  Biso   1.000  C
  C306     1.0000 0.34410  0.87140  0.96570  Biso   1.000  C
  C307     1.0000 0.65590  0.62860  0.96570  Biso   1.000  C
  C308     1.0000 0.15590  0.87140  0.03430  Biso   1.000  C
  C309     1.0000 0.34410  0.12860  0.53430  Biso   1.000  C
  C310     1.0000 0.87860  0.40590  0.78430  Biso   1.000  C
  C311     1.0000 0.15590  0.12860  0.46570  Biso   1.000  C
  C312     1.0000 0.65590  0.37140  0.53430  Biso   1.000  C
  C313     1.0000 0.84410  0.62860  0.03430  Biso   1.000  C
  C314     1.0000 0.62140  0.59410  0.28430  Biso   1.000  C
  C315     1.0000 0.37860  0.09410  0.21570  Biso   1.000  C
  C316     1.0000 0.12140  0.90590  0.71570  Biso   1.000  C
  C317     1.0000 0.12140  0.09410  0.78430  Biso   1.000  C
  C318     1.0000 0.87860  0.59410  0.71570  Biso   1.000  C
  C319     1.0000 0.62140  0.40590  0.21570  Biso   1.000  C
  C320     1.0000 0.84410  0.37140  0.46570  Biso   1.000  C
  C321     1.0000 0.62140  0.09410  0.71570  Biso   1.000  C
  C322     1.0000 0.15590  0.62860  0.53430  Biso   1.000  C
  C323     1.0000 0.84410  0.87140  0.53430  Biso   1.000  C
  C324     1.0000 0.34410  0.62860  0.46570  Biso   1.000  C
  C325     1.0000 0.15590  0.37140  0.96570  Biso   1.000  C
  C326     1.0000 0.12140  0.59410  0.21570  Biso   1.000  C
  C327     1.0000 0.34410  0.37140  0.03430  Biso   1.000  C
  C328     1.0000 0.84410  0.12860  0.96570  Biso   1.000  C
  C329     1.0000 0.65590  0.87140  0.46570  Biso   1.000  C
  C330     1.0000 0.37860  0.40590  0.71570  Biso   1.000  C
  C331     1.0000 0.62140  0.90590  0.78430  Biso   1.000  C
  C332     1.0000 0.87860  0.09410  0.28430  Biso   1.000  C
  C333     1.0000 0.87860  0.90590  0.21570  Biso   1.000  C
  C334     1.0000 0.12140  0.40590  0.28430  Biso   1.000  C
  C335     1.0000 0.37860  0.59410  0.78430  Biso   1.000  C
  C336     1.0000 0.65590  0.12860  0.03430  Biso   1.000  C
  H225     1.0000 0.35610  0.89200  0.25450  Biso   1.000  H
  H226     1.0000 0.35800  0.89390  0.99550  Biso   1.000  H
  H227     1.0000 0.64200  0.60610  0.99550  Biso   1.000  H
  H228     1.0000 0.14200  0.89390  0.00450  Biso   1.000  H
  H229     1.0000 0.35800  0.10610  0.50450  Biso   1.000  H
  H230     1.0000 0.85610  0.39200  0.75450  Biso   1.000  H
  H231     1.0000 0.14200  0.10610  0.49550  Biso   1.000  H
  H232     1.0000 0.64200  0.39390  0.50450  Biso   1.000  H
  H233     1.0000 0.85800  0.60610  0.00450  Biso   1.000  H
  H234     1.0000 0.64390  0.60800  0.25450  Biso   1.000  H
  H235     1.0000 0.35610  0.10800  0.24550  Biso   1.000  H
  H236     1.0000 0.14390  0.89200  0.74550  Biso   1.000  H
  H237     1.0000 0.14390  0.10800  0.75450  Biso   1.000  H
  H238     1.0000 0.85610  0.60800  0.74550  Biso   1.000  H
  H239     1.0000 0.64390  0.39200  0.24550  Biso   1.000  H
  H240     1.0000 0.85800  0.39390  0.49550  Biso   1.000  H
  H241     1.0000 0.64390  0.10800  0.74550  Biso   1.000  H
  H242     1.0000 0.14200  0.60610  0.50450  Biso   1.000  H
  H243     1.0000 0.85800  0.89390  0.50450  Biso   1.000  H
  H244     1.0000 0.35800  0.60610  0.49550  Biso   1.000  H
  H245     1.0000 0.14200  0.39390  0.99550  Biso   1.000  H
  H246     1.0000 0.14390  0.60800  0.24550  Biso   1.000  H
  H247     1.0000 0.35800  0.39390  0.00450  Biso   1.000  H
  H248     1.0000 0.85800  0.10610  0.99550  Biso   1.000  H
  H249     1.0000 0.64200  0.89390  0.49550  Biso   1.000  H
  H250     1.0000 0.35610  0.39200  0.74550  Biso   1.000  H
  H251     1.0000 0.64390  0.89200  0.75450  Biso   1.000  H
  H252     1.0000 0.85610  0.10800  0.25450  Biso   1.000  H
  H253     1.0000 0.85610  0.89200  0.24550  Biso   1.000  H
  H254     1.0000 0.14390  0.39200  0.25450  Biso   1.000  H
  H255     1.0000 0.35610  0.60800  0.75450  Biso   1.000  H
  H256     1.0000 0.64200  0.10610  0.00450  Biso   1.000  H
  C337     1.0000 0.30310  0.85530  0.37160  Biso   1.000  C
  C338     1.0000 0.39470  0.94690  0.87840  Biso   1.000  C
  C339     1.0000 0.60530  0.55310  0.87840  Biso   1.000  C
  C340     1.0000 0.10530  0.94690  0.12160  Biso   1.000  C
  C341     1.0000 0.39470  0.05310  0.62160  Biso   1.000  C
  C342     1.0000 0.80310  0.35530  0.87160  Biso   1.000  C
  C343     1.0000 0.10530  0.05310  0.37840  Biso   1.000  C
  C344     1.0000 0.60530  0.44690  0.62160  Biso   1.000  C
  C345     1.0000 0.89470  0.55310  0.12160  Biso   1.000  C
  C346     1.0000 0.69690  0.64470  0.37160  Biso   1.000  C
  C347     1.0000 0.30310  0.14470  0.12840  Biso   1.000  C
  C348     1.0000 0.19690  0.85530  0.62840  Biso   1.000  C
  C349     1.0000 0.19690  0.14470  0.87160  Biso   1.000  C
  C350     1.0000 0.80310  0.64470  0.62840  Biso   1.000  C
  C351     1.0000 0.69690  0.35530  0.12840  Biso   1.000  C
  C352     1.0000 0.89470  0.44690  0.37840  Biso   1.000  C
  C353     1.0000 0.69690  0.14470  0.62840  Biso   1.000  C
  C354     1.0000 0.10530  0.55310  0.62160  Biso   1.000  C
  C355     1.0000 0.89470  0.94690  0.62160  Biso   1.000  C
  C356     1.0000 0.39470  0.55310  0.37840  Biso   1.000  C
  C357     1.0000 0.10530  0.44690  0.87840  Biso   1.000  C
  C358     1.0000 0.19690  0.64470  0.12840  Biso   1.000  C
  C359     1.0000 0.39470  0.44690  0.12160  Biso   1.000  C
  C360     1.0000 0.89470  0.05310  0.87840  Biso   1.000  C
  C361     1.0000 0.60530  0.94690  0.37840  Biso   1.000  C
  C362     1.0000 0.30310  0.35530  0.62840  Biso   1.000  C
  C363     1.0000 0.69690  0.85530  0.87160  Biso   1.000  C
  C364     1.0000 0.80310  0.14470  0.37160  Biso   1.000  C
  C365     1.0000 0.80310  0.85530  0.12840  Biso   1.000  C
  C366     1.0000 0.19690  0.35530  0.37160  Biso   1.000  C
  C367     1.0000 0.30310  0.64470  0.87160  Biso   1.000  C
  C368     1.0000 0.60530  0.05310  0.12160  Biso   1.000  C
  H257     1.0000 0.29060  0.87500  0.33590  Biso   1.000  H
  H258     1.0000 0.37500  0.95940  0.91410  Biso   1.000  H
  H259     1.0000 0.62500  0.54060  0.91410  Biso   1.000  H
  H260     1.0000 0.12500  0.95940  0.08590  Biso   1.000  H
  H261     1.0000 0.37500  0.04060  0.58590  Biso   1.000  H
  H262     1.0000 0.79060  0.37500  0.83590  Biso   1.000  H
  H263     1.0000 0.12500  0.04060  0.41410  Biso   1.000  H
  H264     1.0000 0.62500  0.45940  0.58590  Biso   1.000  H
  H265     1.0000 0.87500  0.54060  0.08590  Biso   1.000  H
  H266     1.0000 0.70940  0.62500  0.33590  Biso   1.000  H
  H267     1.0000 0.29060  0.12500  0.16410  Biso   1.000  H
  H268     1.0000 0.20940  0.87500  0.66410  Biso   1.000  H
  H269     1.0000 0.20940  0.12500  0.83590  Biso   1.000  H
  H270     1.0000 0.79060  0.62500  0.66410  Biso   1.000  H
  H271     1.0000 0.70940  0.37500  0.16410  Biso   1.000  H
  H272     1.0000 0.87500  0.45940  0.41410  Biso   1.000  H
  H273     1.0000 0.70940  0.12500  0.66410  Biso   1.000  H
  H274     1.0000 0.12500  0.54060  0.58590  Biso   1.000  H
  H275     1.0000 0.87500  0.95940  0.58590  Biso   1.000  H
  H276     1.0000 0.37500  0.54060  0.41410  Biso   1.000  H
  H277     1.0000 0.12500  0.45940  0.91410  Biso   1.000  H
  H278     1.0000 0.20940  0.62500  0.16410  Biso   1.000  H
  H279     1.0000 0.37500  0.45940  0.08590  Biso   1.000  H
  H280     1.0000 0.87500  0.04060  0.91410  Biso   1.000  H
  H281     1.0000 0.62500  0.95940  0.41410  Biso   1.000  H
  H282     1.0000 0.29060  0.37500  0.66410  Biso   1.000  H
  H283     1.0000 0.70940  0.87500  0.83590  Biso   1.000  H
  H284     1.0000 0.79060  0.12500  0.33590  Biso   1.000  H
  H285     1.0000 0.79060  0.87500  0.16410  Biso   1.000  H
  H286     1.0000 0.20940  0.37500  0.33590  Biso   1.000  H
  H287     1.0000 0.29060  0.62500  0.83590  Biso   1.000  H
  H288     1.0000 0.62500  0.04060  0.08590  Biso   1.000  H
  C369     1.0000 0.28320  0.97180  0.14980  Biso   1.000  C
  C370     1.0000 0.27820  0.96680  0.10020  Biso   1.000  C
  C371     1.0000 0.72180  0.53320  0.10020  Biso   1.000  C
  C372     1.0000 0.22180  0.96680  0.89980  Biso   1.000  C
  C373     1.0000 0.27820  0.03320  0.39980  Biso   1.000  C
  C374     1.0000 0.78320  0.47180  0.64980  Biso   1.000  C
  C375     1.0000 0.22180  0.03320  0.60020  Biso   1.000  C
  C376     1.0000 0.72180  0.46680  0.39980  Biso   1.000  C
  C377     1.0000 0.77820  0.53320  0.89980  Biso   1.000  C
  C378     1.0000 0.71680  0.52820  0.14980  Biso   1.000  C
  C379     1.0000 0.28320  0.02820  0.35020  Biso   1.000  C
  C380     1.0000 0.21680  0.97180  0.85020  Biso   1.000  C
  C381     1.0000 0.21680  0.02820  0.64980  Biso   1.000  C
  C382     1.0000 0.78320  0.52820  0.85020  Biso   1.000  C
  C383     1.0000 0.71680  0.47180  0.35020  Biso   1.000  C
  C384     1.0000 0.77820  0.46680  0.60020  Biso   1.000  C
  C385     1.0000 0.71680  0.02820  0.85020  Biso   1.000  C
  C386     1.0000 0.22180  0.53320  0.39980  Biso   1.000  C
  C387     1.0000 0.77820  0.96680  0.39980  Biso   1.000  C
  C388     1.0000 0.27820  0.53320  0.60020  Biso   1.000  C
  C389     1.0000 0.22180  0.46680  0.10020  Biso   1.000  C
  C390     1.0000 0.21680  0.52820  0.35020  Biso   1.000  C
  C391     1.0000 0.27820  0.46680  0.89980  Biso   1.000  C
  C392     1.0000 0.77820  0.03320  0.10020  Biso   1.000  C
  C393     1.0000 0.72180  0.96680  0.60020  Biso   1.000  C
  C394     1.0000 0.28320  0.47180  0.85020  Biso   1.000  C
  C395     1.0000 0.71680  0.97180  0.64980  Biso   1.000  C
  C396     1.0000 0.78320  0.02820  0.14980  Biso   1.000  C
  C397     1.0000 0.78320  0.97180  0.35020  Biso   1.000  C
  C398     1.0000 0.21680  0.47180  0.14980  Biso   1.000  C
  C399     1.0000 0.28320  0.52820  0.64980  Biso   1.000  C
  C400     1.0000 0.72180  0.03320  0.89980  Biso   1.000  C
  Cl33     1.0000 0.33560  0.98230  0.09710  Biso   1.000  Cl
  Cl34     1.0000 0.26770  0.91440  0.15290  Biso   1.000  Cl
  Cl35     1.0000 0.73230  0.58560  0.15290  Biso   1.000  Cl
  Cl36     1.0000 0.23230  0.91440  0.84710  Biso   1.000  Cl
  Cl37     1.0000 0.26770  0.08560  0.34710  Biso   1.000  Cl
  Cl38     1.0000 0.83560  0.48230  0.59710  Biso   1.000  Cl
  Cl39     1.0000 0.23230  0.08560  0.65290  Biso   1.000  Cl
  Cl40     1.0000 0.73230  0.41440  0.34710  Biso   1.000  Cl
  Cl41     1.0000 0.76770  0.58560  0.84710  Biso   1.000  Cl
  Cl42     1.0000 0.66440  0.51770  0.09710  Biso   1.000  Cl
  Cl43     1.0000 0.33560  0.01770  0.40290  Biso   1.000  Cl
  Cl44     1.0000 0.16440  0.98230  0.90290  Biso   1.000  Cl
  Cl45     1.0000 0.16440  0.01770  0.59710  Biso   1.000  Cl
  Cl46     1.0000 0.83560  0.51770  0.90290  Biso   1.000  Cl
  Cl47     1.0000 0.66440  0.48230  0.40290  Biso   1.000  Cl
  Cl48     1.0000 0.76770  0.41440  0.65290  Biso   1.000  Cl
  Cl49     1.0000 0.66440  0.01770  0.90290  Biso   1.000  Cl
  Cl50     1.0000 0.23230  0.58560  0.34710  Biso   1.000  Cl
  Cl51     1.0000 0.76770  0.91440  0.34710  Biso   1.000  Cl
  Cl52     1.0000 0.26770  0.58560  0.65290  Biso   1.000  Cl
  Cl53     1.0000 0.23230  0.41440  0.15290  Biso   1.000  Cl
  Cl54     1.0000 0.16440  0.51770  0.40290  Biso   1.000  Cl
  Cl55     1.0000 0.26770  0.41440  0.84710  Biso   1.000  Cl
  Cl56     1.0000 0.76770  0.08560  0.15290  Biso   1.000  Cl
  Cl57     1.0000 0.73230  0.91440  0.65290  Biso   1.000  Cl
  Cl58     1.0000 0.33560  0.48230  0.90290  Biso   1.000  Cl
  Cl59     1.0000 0.66440  0.98230  0.59710  Biso   1.000  Cl
  Cl60     1.0000 0.83560  0.01770  0.09710  Biso   1.000  Cl
  Cl61     1.0000 0.83560  0.98230  0.40290  Biso   1.000  Cl
  Cl62     1.0000 0.16440  0.48230  0.09710  Biso   1.000  Cl
  Cl63     1.0000 0.33560  0.51770  0.59710  Biso   1.000  Cl
  Cl64     1.0000 0.73230  0.08560  0.84710  Biso   1.000  Cl
  Cl65     1.0000 0.31010  0.00660  0.15810  Biso   1.000  Cl
  Cl66     1.0000 0.24340  0.93990  0.09190  Biso   1.000  Cl
  Cl67     1.0000 0.75660  0.56010  0.09190  Biso   1.000  Cl
  Cl68     1.0000 0.25660  0.93990  0.90810  Biso   1.000  Cl
  Cl69     1.0000 0.24340  0.06010  0.40810  Biso   1.000  Cl
  Cl70     1.0000 0.81010  0.50660  0.65810  Biso   1.000  Cl
  Cl71     1.0000 0.25660  0.06010  0.59190  Biso   1.000  Cl
  Cl72     1.0000 0.75660  0.43990  0.40810  Biso   1.000  Cl
  Cl73     1.0000 0.74340  0.56010  0.90810  Biso   1.000  Cl
  Cl74     1.0000 0.68990  0.49340  0.15810  Biso   1.000  Cl
  Cl75     1.0000 0.31010  0.99340  0.34190  Biso   1.000  Cl
  Cl76     1.0000 0.18990  0.00660  0.84190  Biso   1.000  Cl
  Cl77     1.0000 0.18990  0.99340  0.65810  Biso   1.000  Cl
  Cl78     1.0000 0.81010  0.49340  0.84190  Biso   1.000  Cl
  Cl79     1.0000 0.68990  0.50660  0.34190  Biso   1.000  Cl
  Cl80     1.0000 0.74340  0.43990  0.59190  Biso   1.000  Cl
  Cl81     1.0000 0.68990  0.99340  0.84190  Biso   1.000  Cl
  Cl82     1.0000 0.25660  0.56010  0.40810  Biso   1.000  Cl
  Cl83     1.0000 0.74340  0.93990  0.40810  Biso   1.000  Cl
  Cl84     1.0000 0.24340  0.56010  0.59190  Biso   1.000  Cl
  Cl85     1.0000 0.25660  0.43990  0.09190  Biso   1.000  Cl
  Cl86     1.0000 0.18990  0.49340  0.34190  Biso   1.000  Cl
  Cl87     1.0000 0.24340  0.43990  0.90810  Biso   1.000  Cl
  Cl88     1.0000 0.74340  0.06010  0.09190  Biso   1.000  Cl
  Cl89     1.0000 0.75660  0.93990  0.59190  Biso   1.000  Cl
  Cl90     1.0000 0.31010  0.50660  0.84190  Biso   1.000  Cl
  Cl91     1.0000 0.68990  0.00660  0.65810  Biso   1.000  Cl
  Cl92     1.0000 0.81010  0.99340  0.15810  Biso   1.000  Cl
  Cl93     1.0000 0.81010  0.00660  0.34190  Biso   1.000  Cl
  Cl94     1.0000 0.18990  0.50660  0.15810  Biso   1.000  Cl
  Cl95     1.0000 0.31010  0.49340  0.65810  Biso   1.000  Cl
  Cl96     1.0000 0.75660  0.06010  0.90810  Biso   1.000  Cl
  S33      1.0000 0.47270  0.92939  0.07280  Biso   1.000  S
  S34      1.0000 0.32061  0.77730  0.17720  Biso   1.000  S
  S35      1.0000 0.67939  0.72270  0.17720  Biso   1.000  S
  S36      1.0000 0.17939  0.77730  0.82280  Biso   1.000  S
  S37      1.0000 0.32061  0.22270  0.32280  Biso   1.000  S
  S38      1.0000 0.97270  0.42939  0.57280  Biso   1.000  S
  S39      1.0000 0.17939  0.22270  0.67720  Biso   1.000  S
  S40      1.0000 0.67939  0.27730  0.32280  Biso   1.000  S
  S41      1.0000 0.82061  0.72270  0.82280  Biso   1.000  S
  S42      1.0000 0.52730  0.57061  0.07280  Biso   1.000  S
  S43      1.0000 0.47270  0.07061  0.42720  Biso   1.000  S
  S44      1.0000 0.02730  0.92939  0.92720  Biso   1.000  S
  S45      1.0000 0.02730  0.07061  0.57280  Biso   1.000  S
  S46      1.0000 0.97270  0.57061  0.92720  Biso   1.000  S
  S47      1.0000 0.52730  0.42939  0.42720  Biso   1.000  S
  S48      1.0000 0.82061  0.27730  0.67720  Biso   1.000  S
  S49      1.0000 0.52730  0.07061  0.92720  Biso   1.000  S
  S50      1.0000 0.17939  0.72270  0.32280  Biso   1.000  S
  S51      1.0000 0.82061  0.77730  0.32280  Biso   1.000  S
  S52      1.0000 0.32061  0.72270  0.67720  Biso   1.000  S
  S53      1.0000 0.17939  0.27730  0.17720  Biso   1.000  S
  S54      1.0000 0.02730  0.57061  0.42720  Biso   1.000  S
  S55      1.0000 0.32061  0.27730  0.82280  Biso   1.000  S
  S56      1.0000 0.82061  0.22270  0.17720  Biso   1.000  S
  S57      1.0000 0.67939  0.77730  0.67720  Biso   1.000  S
  S58      1.0000 0.47270  0.42939  0.92720  Biso   1.000  S
  S59      1.0000 0.52730  0.92939  0.57280  Biso   1.000  S
  S60      1.0000 0.97270  0.07061  0.07280  Biso   1.000  S
  S61      1.0000 0.97270  0.92939  0.42720  Biso   1.000  S
  S62      1.0000 0.02730  0.42939  0.07280  Biso   1.000  S
  S63      1.0000 0.47270  0.57061  0.57280  Biso   1.000  S
  S64      1.0000 0.67939  0.22270  0.82280  Biso   1.000  S
  O129     1.0000 0.42190  0.92940  0.07280  Biso   1.000  O
  O130     1.0000 0.32060  0.82810  0.17720  Biso   1.000  O
  O131     1.0000 0.67940  0.67190  0.17720  Biso   1.000  O
  O132     1.0000 0.17940  0.82810  0.82280  Biso   1.000  O
  O133     1.0000 0.32060  0.17190  0.32280  Biso   1.000  O
  O134     1.0000 0.92190  0.42940  0.57280  Biso   1.000  O
  O135     1.0000 0.17940  0.17190  0.67720  Biso   1.000  O
  O136     1.0000 0.67940  0.32810  0.32280  Biso   1.000  O
  O137     1.0000 0.82060  0.67190  0.82280  Biso   1.000  O
  O138     1.0000 0.57810  0.57060  0.07280  Biso   1.000  O
  O139     1.0000 0.42190  0.07060  0.42720  Biso   1.000  O
  O140     1.0000 0.07810  0.92940  0.92720  Biso   1.000  O
  O141     1.0000 0.07810  0.07060  0.57280  Biso   1.000  O
  O142     1.0000 0.92190  0.57060  0.92720  Biso   1.000  O
  O143     1.0000 0.57810  0.42940  0.42720  Biso   1.000  O
  O144     1.0000 0.82060  0.32810  0.67720  Biso   1.000  O
  O145     1.0000 0.57810  0.07060  0.92720  Biso   1.000  O
  O146     1.0000 0.17940  0.67190  0.32280  Biso   1.000  O
  O147     1.0000 0.82060  0.82810  0.32280  Biso   1.000  O
  O148     1.0000 0.32060  0.67190  0.67720  Biso   1.000  O
  O149     1.0000 0.17940  0.32810  0.17720  Biso   1.000  O
  O150     1.0000 0.07810  0.57060  0.42720  Biso   1.000  O
  O151     1.0000 0.32060  0.32810  0.82280  Biso   1.000  O
  O152     1.0000 0.82060  0.17190  0.17720  Biso   1.000  O
  O153     1.0000 0.67940  0.82810  0.67720  Biso   1.000  O
  O154     1.0000 0.42190  0.42940  0.92720  Biso   1.000  O
  O155     1.0000 0.57810  0.92940  0.57280  Biso   1.000  O
  O156     1.0000 0.92190  0.07060  0.07280  Biso   1.000  O
  O157     1.0000 0.92190  0.92940  0.42720  Biso   1.000  O
  O158     1.0000 0.07810  0.42940  0.07280  Biso   1.000  O
  O159     1.0000 0.42190  0.57060  0.57280  Biso   1.000  O
  O160     1.0000 0.67940  0.17190  0.82280  Biso   1.000  O
  C401     1.0000 0.48840  0.86720  0.07750  Biso   1.000  C
  C402     1.0000 0.38280  0.76160  0.17250  Biso   1.000  C
  C403     1.0000 0.61720  0.73840  0.17250  Biso   1.000  C
  C404     1.0000 0.11720  0.76160  0.82750  Biso   1.000  C
  C405     1.0000 0.38280  0.23840  0.32750  Biso   1.000  C
  C406     1.0000 0.98840  0.36720  0.57750  Biso   1.000  C
  C407     1.0000 0.11720  0.23840  0.67250  Biso   1.000  C
  C408     1.0000 0.61720  0.26160  0.32750  Biso   1.000  C
  C409     1.0000 0.88280  0.73840  0.82750  Biso   1.000  C
  C410     1.0000 0.51160  0.63280  0.07750  Biso   1.000  C
  C411     1.0000 0.48840  0.13280  0.42250  Biso   1.000  C
  C412     1.0000 0.01160  0.86720  0.92250  Biso   1.000  C
  C413     1.0000 0.01160  0.13280  0.57750  Biso   1.000  C
  C414     1.0000 0.98840  0.63280  0.92250  Biso   1.000  C
  C415     1.0000 0.51160  0.36720  0.42250  Biso   1.000  C
  C416     1.0000 0.88280  0.26160  0.67250  Biso   1.000  C
  C417     1.0000 0.51160  0.13280  0.92250  Biso   1.000  C
  C418     1.0000 0.11720  0.73840  0.32750  Biso   1.000  C
  C419     1.0000 0.88280  0.76160  0.32750  Biso   1.000  C
  C420     1.0000 0.38280  0.73840  0.67250  Biso   1.000  C
  C421     1.0000 0.11720  0.26160  0.17250  Biso   1.000  C
  C422     1.0000 0.01160  0.63280  0.42250  Biso   1.000  C
  C423     1.0000 0.38280  0.26160  0.82750  Biso   1.000  C
  C424     1.0000 0.88280  0.23840  0.17250  Biso   1.000  C
  C425     1.0000 0.61720  0.76160  0.67250  Biso   1.000  C
  C426     1.0000 0.48840  0.36720  0.92250  Biso   1.000  C
  C427     1.0000 0.51160  0.86720  0.57750  Biso   1.000  C
  C428     1.0000 0.98840  0.13280  0.07750  Biso   1.000  C
  C429     1.0000 0.98840  0.86720  0.42250  Biso   1.000  C
  C430     1.0000 0.01160  0.36720  0.07750  Biso   1.000  C
  C431     1.0000 0.48840  0.63280  0.57750  Biso   1.000  C
  C432     1.0000 0.61720  0.23840  0.82750  Biso   1.000  C
  F97      1.0000 0.47510  0.85120  0.14510  Biso   1.000  F
  F98      1.0000 0.39880  0.77490  0.10490  Biso   1.000  F
  F99      1.0000 0.60120  0.72510  0.10490  Biso   1.000  F
  F100     1.0000 0.10120  0.77490  0.89510  Biso   1.000  F
  F101     1.0000 0.39880  0.22510  0.39510  Biso   1.000  F
  F102     1.0000 0.97510  0.35120  0.64510  Biso   1.000  F
  F103     1.0000 0.10120  0.22510  0.60490  Biso   1.000  F
  F104     1.0000 0.60120  0.27490  0.39510  Biso   1.000  F
  F105     1.0000 0.89880  0.72510  0.89510  Biso   1.000  F
  F106     1.0000 0.52490  0.64880  0.14510  Biso   1.000  F
  F107     1.0000 0.47510  0.14880  0.35490  Biso   1.000  F
  F108     1.0000 0.02490  0.85120  0.85490  Biso   1.000  F
  F109     1.0000 0.02490  0.14880  0.64510  Biso   1.000  F
  F110     1.0000 0.97510  0.64880  0.85490  Biso   1.000  F
  F111     1.0000 0.52490  0.35120  0.35490  Biso   1.000  F
  F112     1.0000 0.89880  0.27490  0.60490  Biso   1.000  F
  F113     1.0000 0.52490  0.14880  0.85490  Biso   1.000  F
  F114     1.0000 0.10120  0.72510  0.39510  Biso   1.000  F
  F115     1.0000 0.89880  0.77490  0.39510  Biso   1.000  F
  F116     1.0000 0.39880  0.72510  0.60490  Biso   1.000  F
  F117     1.0000 0.10120  0.27490  0.10490  Biso   1.000  F
  F118     1.0000 0.02490  0.64880  0.35490  Biso   1.000  F
  F119     1.0000 0.39880  0.27490  0.89510  Biso   1.000  F
  F120     1.0000 0.89880  0.22510  0.10490  Biso   1.000  F
  F121     1.0000 0.60120  0.77490  0.60490  Biso   1.000  F
  F122     1.0000 0.47510  0.35120  0.85490  Biso   1.000  F
  F123     1.0000 0.52490  0.85120  0.64510  Biso   1.000  F
  F124     1.0000 0.97510  0.14880  0.14510  Biso   1.000  F
  F125     1.0000 0.97510  0.85120  0.35490  Biso   1.000  F
  F126     1.0000 0.02490  0.35120  0.14510  Biso   1.000  F
  F127     1.0000 0.47510  0.64880  0.64510  Biso   1.000  F
  F128     1.0000 0.60120  0.22510  0.89510  Biso   1.000  F
  F129     1.0000 0.46740  0.84180  0.02330  Biso   1.000  F
  F130     1.0000 0.40820  0.78260  0.22670  Biso   1.000  F
  F131     1.0000 0.59180  0.71740  0.22670  Biso   1.000  F
  F132     1.0000 0.09180  0.78260  0.77330  Biso   1.000  F
  F133     1.0000 0.40820  0.21740  0.27330  Biso   1.000  F
  F134     1.0000 0.96740  0.34180  0.52330  Biso   1.000  F
  F135     1.0000 0.09180  0.21740  0.72670  Biso   1.000  F
  F136     1.0000 0.59180  0.28260  0.27330  Biso   1.000  F
  F137     1.0000 0.90820  0.71740  0.77330  Biso   1.000  F
  F138     1.0000 0.53260  0.65820  0.02330  Biso   1.000  F
  F139     1.0000 0.46740  0.15820  0.47670  Biso   1.000  F
  F140     1.0000 0.03260  0.84180  0.97670  Biso   1.000  F
  F141     1.0000 0.03260  0.15820  0.52330  Biso   1.000  F
  F142     1.0000 0.96740  0.65820  0.97670  Biso   1.000  F
  F143     1.0000 0.53260  0.34180  0.47670  Biso   1.000  F
  F144     1.0000 0.90820  0.28260  0.72670  Biso   1.000  F
  F145     1.0000 0.53260  0.15820  0.97670  Biso   1.000  F
  F146     1.0000 0.09180  0.71740  0.27330  Biso   1.000  F
  F147     1.0000 0.90820  0.78260  0.27330  Biso   1.000  F
  F148     1.0000 0.40820  0.71740  0.72670  Biso   1.000  F
  F149     1.0000 0.09180  0.28260  0.22670  Biso   1.000  F
  F150     1.0000 0.03260  0.65820  0.47670  Biso   1.000  F
  F151     1.0000 0.40820  0.28260  0.77330  Biso   1.000  F
  F152     1.0000 0.90820  0.21740  0.22670  Biso   1.000  F
  F153     1.0000 0.59180  0.78260  0.72670  Biso   1.000  F
  F154     1.0000 0.46740  0.34180  0.97670  Biso   1.000  F
  F155     1.0000 0.53260  0.84180  0.52330  Biso   1.000  F
  F156     1.0000 0.96740  0.15820  0.02330  Biso   1.000  F
  F157     1.0000 0.96740  0.84180  0.47670  Biso   1.000  F
  F158     1.0000 0.03260  0.34180  0.02330  Biso   1.000  F
  F159     1.0000 0.46740  0.65820  0.52330  Biso   1.000  F
  F160     1.0000 0.59180  0.21740  0.77330  Biso   1.000  F
  F161     1.0000 0.53610  0.86590  0.07060  Biso   1.000  F
  F162     1.0000 0.38410  0.71390  0.17940  Biso   1.000  F
  F163     1.0000 0.61590  0.78610  0.17940  Biso   1.000  F
  F164     1.0000 0.11590  0.71390  0.82060  Biso   1.000  F
  F165     1.0000 0.38410  0.28610  0.32060  Biso   1.000  F
  F166     1.0000 0.03610  0.36590  0.57060  Biso   1.000  F
  F167     1.0000 0.11590  0.28610  0.67940  Biso   1.000  F
  F168     1.0000 0.61590  0.21390  0.32060  Biso   1.000  F
  F169     1.0000 0.88410  0.78610  0.82060  Biso   1.000  F
  F170     1.0000 0.46390  0.63410  0.07060  Biso   1.000  F
  F171     1.0000 0.53610  0.13410  0.42940  Biso   1.000  F
  F172     1.0000 0.96390  0.86590  0.92940  Biso   1.000  F
  F173     1.0000 0.96390  0.13410  0.57060  Biso   1.000  F
  F174     1.0000 0.03610  0.63410  0.92940  Biso   1.000  F
  F175     1.0000 0.46390  0.36590  0.42940  Biso   1.000  F
  F176     1.0000 0.88410  0.21390  0.67940  Biso   1.000  F
  F177     1.0000 0.46390  0.13410  0.92940  Biso   1.000  F
  F178     1.0000 0.11590  0.78610  0.32060  Biso   1.000  F
  F179     1.0000 0.88410  0.71390  0.32060  Biso   1.000  F
  F180     1.0000 0.38410  0.78610  0.67940  Biso   1.000  F
  F181     1.0000 0.11590  0.21390  0.17940  Biso   1.000  F
  F182     1.0000 0.96390  0.63410  0.42940  Biso   1.000  F
  F183     1.0000 0.38410  0.21390  0.82060  Biso   1.000  F
  F184     1.0000 0.88410  0.28610  0.17940  Biso   1.000  F
  F185     1.0000 0.61590  0.71390  0.67940  Biso   1.000  F
  F186     1.0000 0.53610  0.36590  0.92940  Biso   1.000  F
  F187     1.0000 0.46390  0.86590  0.57060  Biso   1.000  F
  F188     1.0000 0.03610  0.13410  0.07060  Biso   1.000  F
  F189     1.0000 0.03610  0.86590  0.42940  Biso   1.000  F
  F190     1.0000 0.96390  0.36590  0.07060  Biso   1.000  F
  F191     1.0000 0.53610  0.63410  0.57060  Biso   1.000  F
  F192     1.0000 0.61590  0.28610  0.82060  Biso   1.000  F
