data_image0
_cell_length_a       10.4406
_cell_length_b       42.203
_cell_length_c       22.4208
_cell_angle_alpha    90
_cell_angle_beta     101.374
_cell_angle_gamma    90

_symmetry_space_group_name_H-M    "P 1"
_symmetry_int_tables_number       1

loop_
  _symmetry_equiv_pos_as_xyz
  'x, y, z'

loop_
  _atom_site_label
  _atom_site_occupancy
  _atom_site_fract_x
  _atom_site_fract_y
  _atom_site_fract_z
  _atom_site_thermal_displace_type
  _atom_site_B_iso_or_equiv
  _atom_site_type_symbol
  Cu1      1.0000 0.34428  0.33132  0.37899  Biso   1.000  Cu
  Cu2      1.0000 0.15572  0.83132  0.12101  Biso   1.000  Cu
  Cu3      1.0000 0.65572  0.66868  0.62101  Biso   1.000  Cu
  Cu4      1.0000 0.84428  0.16868  0.87899  Biso   1.000  Cu
  S1       1.0000 0.11402  0.42139  0.09791  Biso   1.000  S
  S2       1.0000 0.38598  0.92139  0.40209  Biso   1.000  S
  S3       1.0000 0.88598  0.57861  0.90209  Biso   1.000  S
  S4       1.0000 0.61402  0.07861  0.59791  Biso   1.000  S
  O1       1.0000 0.49010  0.28122  0.53316  Biso   1.000  O
  O2       1.0000 0.00990  0.78122  0.96684  Biso   1.000  O
  O3       1.0000 0.50990  0.71878  0.46684  Biso   1.000  O
  O4       1.0000 0.99010  0.21878  0.03316  Biso   1.000  O
  O5       1.0000 0.20480  0.28237  0.22279  Biso   1.000  O
  O6       1.0000 0.29520  0.78237  0.27721  Biso   1.000  O
  O7       1.0000 0.79520  0.71763  0.77721  Biso   1.000  O
  O8       1.0000 0.70480  0.21763  0.72279  Biso   1.000  O
  O9       1.0000 0.34170  0.37466  0.37869  Biso   1.000  O
  O10      1.0000 0.15830  0.87466  0.12131  Biso   1.000  O
  O11      1.0000 0.65830  0.62534  0.62131  Biso   1.000  O
  O12      1.0000 0.84170  0.12534  0.87869  Biso   1.000  O
  H1       1.0000 0.29850  0.38120  0.40410  Biso   1.000  H
  H2       1.0000 0.20150  0.88120  0.09590  Biso   1.000  H
  H3       1.0000 0.70150  0.61880  0.59590  Biso   1.000  H
  H4       1.0000 0.79850  0.11880  0.90410  Biso   1.000  H
  O13      1.0000 0.19700  0.41417  0.05389  Biso   1.000  O
  O14      1.0000 0.30300  0.91417  0.44611  Biso   1.000  O
  O15      1.0000 0.80300  0.58583  0.94611  Biso   1.000  O
  O16      1.0000 0.69700  0.08583  0.55389  Biso   1.000  O
  O17      1.0000 0.97910  0.41542  0.07400  Biso   1.000  O
  O18      1.0000 0.52090  0.91542  0.42600  Biso   1.000  O
  O19      1.0000 0.02090  0.58458  0.92600  Biso   1.000  O
  O20      1.0000 0.47910  0.08458  0.57400  Biso   1.000  O
  O21      1.0000 0.14510  0.45169  0.12420  Biso   1.000  O
  O22      1.0000 0.35490  0.95169  0.37580  Biso   1.000  O
  O23      1.0000 0.85490  0.54831  0.87580  Biso   1.000  O
  O24      1.0000 0.64510  0.04831  0.62420  Biso   1.000  O
  S5       1.0000 0.56620  0.42332  0.65450  Biso   1.000  S
  S6       1.0000 0.93380  0.92332  0.84550  Biso   1.000  S
  S7       1.0000 0.43380  0.57668  0.34550  Biso   1.000  S
  S8       1.0000 0.06620  0.07668  0.15450  Biso   1.000  S
  O25      1.0000 0.44800  0.43150  0.67320  Biso   1.000  O
  O26      1.0000 0.05200  0.93150  0.82680  Biso   1.000  O
  O27      1.0000 0.55200  0.56850  0.32680  Biso   1.000  O
  O28      1.0000 0.94800  0.06850  0.17320  Biso   1.000  O
  O29      1.0000 0.63170  0.44950  0.62960  Biso   1.000  O
  O30      1.0000 0.86830  0.94950  0.87040  Biso   1.000  O
  O31      1.0000 0.36830  0.55050  0.37040  Biso   1.000  O
  O32      1.0000 0.13170  0.05050  0.12960  Biso   1.000  O
  O33      1.0000 0.65840  0.40560  0.70160  Biso   1.000  O
  O34      1.0000 0.84160  0.90560  0.79840  Biso   1.000  O
  O35      1.0000 0.34160  0.59440  0.29840  Biso   1.000  O
  O36      1.0000 0.15840  0.09440  0.20160  Biso   1.000  O
  N1       1.0000 0.26830  0.32326  0.29143  Biso   1.000  N
  N2       1.0000 0.23170  0.82326  0.20857  Biso   1.000  N
  N3       1.0000 0.73170  0.67674  0.70857  Biso   1.000  N
  N4       1.0000 0.76830  0.17674  0.79143  Biso   1.000  N
  N5       1.0000 0.34670  0.28594  0.37827  Biso   1.000  N
  N6       1.0000 0.15330  0.78594  0.12173  Biso   1.000  N
  N7       1.0000 0.65330  0.71406  0.62173  Biso   1.000  N
  N8       1.0000 0.84670  0.21406  0.87827  Biso   1.000  N
  N9       1.0000 0.42450  0.32267  0.46663  Biso   1.000  N
  N10      1.0000 0.07550  0.82267  0.03337  Biso   1.000  N
  N11      1.0000 0.57550  0.67733  0.53337  Biso   1.000  N
  N12      1.0000 0.92450  0.17733  0.96663  Biso   1.000  N
  C1       1.0000 0.15240  0.35100  0.49570  Biso   1.000  C
  C2       1.0000 0.34760  0.85100  0.00430  Biso   1.000  C
  C3       1.0000 0.84760  0.64900  0.50430  Biso   1.000  C
  C4       1.0000 0.65240  0.14900  0.99570  Biso   1.000  C
  H5       1.0000 0.06870  0.34010  0.49410  Biso   1.000  H
  H6       1.0000 0.43130  0.84010  0.00590  Biso   1.000  H
  H7       1.0000 0.93130  0.65990  0.50590  Biso   1.000  H
  H8       1.0000 0.56870  0.15990  0.99410  Biso   1.000  H
  H9       1.0000 0.18230  0.34750  0.45750  Biso   1.000  H
  H10      1.0000 0.31770  0.84750  0.04250  Biso   1.000  H
  H11      1.0000 0.81770  0.65250  0.54250  Biso   1.000  H
  H12      1.0000 0.68230  0.15250  0.95750  Biso   1.000  H
  H13      1.0000 0.14130  0.37370  0.50170  Biso   1.000  H
  H14      1.0000 0.35870  0.87370  0.99830  Biso   1.000  H
  H15      1.0000 0.85870  0.62630  0.49830  Biso   1.000  H
  H16      1.0000 0.64130  0.12630  0.00170  Biso   1.000  H
  C5       1.0000 0.25220  0.33790  0.54800  Biso   1.000  C
  C6       1.0000 0.24780  0.83790  0.95200  Biso   1.000  C
  C7       1.0000 0.74780  0.66210  0.45200  Biso   1.000  C
  C8       1.0000 0.75220  0.16210  0.04800  Biso   1.000  C
  H17      1.0000 0.26590  0.31520  0.53850  Biso   1.000  H
  H18      1.0000 0.23410  0.81520  0.96150  Biso   1.000  H
  H19      1.0000 0.73410  0.68480  0.46150  Biso   1.000  H
  H20      1.0000 0.76590  0.18480  0.03850  Biso   1.000  H
  C9       1.0000 0.19890  0.33850  0.60580  Biso   1.000  C
  C10      1.0000 0.30110  0.83850  0.89420  Biso   1.000  C
  C11      1.0000 0.80110  0.66150  0.39420  Biso   1.000  C
  C12      1.0000 0.69890  0.16150  0.10580  Biso   1.000  C
  H21      1.0000 0.26220  0.32880  0.63880  Biso   1.000  H
  H22      1.0000 0.23780  0.82880  0.86120  Biso   1.000  H
  H23      1.0000 0.73780  0.67120  0.36120  Biso   1.000  H
  H24      1.0000 0.76220  0.17120  0.13880  Biso   1.000  H
  H25      1.0000 0.11670  0.32660  0.59960  Biso   1.000  H
  H26      1.0000 0.38330  0.82660  0.90040  Biso   1.000  H
  H27      1.0000 0.88330  0.67340  0.40040  Biso   1.000  H
  H28      1.0000 0.61670  0.17340  0.09960  Biso   1.000  H
  H29      1.0000 0.18290  0.36040  0.61640  Biso   1.000  H
  H30      1.0000 0.31710  0.86040  0.88360  Biso   1.000  H
  H31      1.0000 0.81710  0.63960  0.38360  Biso   1.000  H
  H32      1.0000 0.68290  0.13960  0.11640  Biso   1.000  H
  C13      1.0000 0.38330  0.35452  0.55210  Biso   1.000  C
  C14      1.0000 0.11670  0.85452  0.94790  Biso   1.000  C
  C15      1.0000 0.61670  0.64548  0.44790  Biso   1.000  C
  C16      1.0000 0.88330  0.14548  0.05210  Biso   1.000  C
  C17      1.0000 0.42540  0.37790  0.59460  Biso   1.000  C
  C18      1.0000 0.07460  0.87790  0.90540  Biso   1.000  C
  C19      1.0000 0.57460  0.62210  0.40540  Biso   1.000  C
  C20      1.0000 0.92540  0.12210  0.09460  Biso   1.000  C
  H33      1.0000 0.37300  0.38310  0.62340  Biso   1.000  H
  H34      1.0000 0.12700  0.88310  0.87660  Biso   1.000  H
  H35      1.0000 0.62700  0.61690  0.37660  Biso   1.000  H
  H36      1.0000 0.87300  0.11690  0.12340  Biso   1.000  H
  C21      1.0000 0.54190  0.39393  0.59650  Biso   1.000  C
  C22      1.0000 0.95810  0.89393  0.90350  Biso   1.000  C
  C23      1.0000 0.45810  0.60607  0.40350  Biso   1.000  C
  C24      1.0000 0.04190  0.10607  0.09650  Biso   1.000  C
  C25      1.0000 0.61520  0.38653  0.55540  Biso   1.000  C
  C26      1.0000 0.88480  0.88653  0.94460  Biso   1.000  C
  C27      1.0000 0.38480  0.61347  0.44460  Biso   1.000  C
  C28      1.0000 0.11520  0.11347  0.05540  Biso   1.000  C
  H37      1.0000 0.69410  0.39790  0.55630  Biso   1.000  H
  H38      1.0000 0.80590  0.89790  0.94370  Biso   1.000  H
  H39      1.0000 0.30590  0.60210  0.44370  Biso   1.000  H
  H40      1.0000 0.19410  0.10210  0.05630  Biso   1.000  H
  C29      1.0000 0.58030  0.36275  0.51130  Biso   1.000  C
  C30      1.0000 0.91970  0.86275  0.98870  Biso   1.000  C
  C31      1.0000 0.41970  0.63725  0.48870  Biso   1.000  C
  C32      1.0000 0.08030  0.13725  0.01130  Biso   1.000  C
  C33      1.0000 0.66610  0.35433  0.46680  Biso   1.000  C
  C34      1.0000 0.83390  0.85433  0.03320  Biso   1.000  C
  C35      1.0000 0.33390  0.64567  0.53320  Biso   1.000  C
  C36      1.0000 0.16610  0.14567  0.96680  Biso   1.000  C
  H41      1.0000 0.61360  0.34050  0.43480  Biso   1.000  H
  H42      1.0000 0.88640  0.84050  0.06520  Biso   1.000  H
  H43      1.0000 0.38640  0.65950  0.56520  Biso   1.000  H
  H44      1.0000 0.11360  0.15950  0.93480  Biso   1.000  H
  C37      1.0000 0.70620  0.38340  0.43500  Biso   1.000  C
  C38      1.0000 0.79380  0.88340  0.06500  Biso   1.000  C
  C39      1.0000 0.29380  0.61660  0.56500  Biso   1.000  C
  C40      1.0000 0.20620  0.11660  0.93500  Biso   1.000  C
  H45      1.0000 0.76940  0.39580  0.46380  Biso   1.000  H
  H46      1.0000 0.73060  0.89580  0.03620  Biso   1.000  H
  H47      1.0000 0.23060  0.60420  0.53620  Biso   1.000  H
  H48      1.0000 0.26940  0.10420  0.96380  Biso   1.000  H
  H49      1.0000 0.62890  0.39640  0.41960  Biso   1.000  H
  H50      1.0000 0.87110  0.89640  0.08040  Biso   1.000  H
  H51      1.0000 0.37110  0.60360  0.58040  Biso   1.000  H
  H52      1.0000 0.12890  0.10360  0.91960  Biso   1.000  H
  H53      1.0000 0.74600  0.37670  0.40090  Biso   1.000  H
  H54      1.0000 0.75400  0.87670  0.09910  Biso   1.000  H
  H55      1.0000 0.25400  0.62330  0.59910  Biso   1.000  H
  H56      1.0000 0.24600  0.12330  0.90090  Biso   1.000  H
  C41      1.0000 0.78150  0.33520  0.49830  Biso   1.000  C
  C42      1.0000 0.71850  0.83520  0.00170  Biso   1.000  C
  C43      1.0000 0.21850  0.66480  0.50170  Biso   1.000  C
  C44      1.0000 0.28150  0.16480  0.99830  Biso   1.000  C
  H57      1.0000 0.82660  0.34670  0.53440  Biso   1.000  H
  H58      1.0000 0.67340  0.84670  0.96560  Biso   1.000  H
  H59      1.0000 0.17340  0.65330  0.46560  Biso   1.000  H
  H60      1.0000 0.32660  0.15330  0.03440  Biso   1.000  H
  H61      1.0000 0.84170  0.33190  0.47040  Biso   1.000  H
  H62      1.0000 0.65830  0.83190  0.02960  Biso   1.000  H
  H63      1.0000 0.15830  0.66810  0.52960  Biso   1.000  H
  H64      1.0000 0.34170  0.16810  0.97040  Biso   1.000  H
  H65      1.0000 0.75130  0.31470  0.51060  Biso   1.000  H
  H66      1.0000 0.74870  0.81470  0.98940  Biso   1.000  H
  H67      1.0000 0.24870  0.68530  0.48940  Biso   1.000  H
  H68      1.0000 0.25130  0.18530  0.01060  Biso   1.000  H
  C45      1.0000 0.46410  0.34648  0.51160  Biso   1.000  C
  C46      1.0000 0.03590  0.84648  0.98840  Biso   1.000  C
  C47      1.0000 0.53590  0.65352  0.48840  Biso   1.000  C
  C48      1.0000 0.96410  0.15352  0.01160  Biso   1.000  C
  C49      1.0000 0.44270  0.29215  0.48230  Biso   1.000  C
  C50      1.0000 0.05730  0.79215  0.01770  Biso   1.000  C
  C51      1.0000 0.55730  0.70785  0.51770  Biso   1.000  C
  C52      1.0000 0.94270  0.20785  0.98230  Biso   1.000  C
  C53      1.0000 0.39600  0.27066  0.42950  Biso   1.000  C
  C54      1.0000 0.10400  0.77066  0.07050  Biso   1.000  C
  C55      1.0000 0.60400  0.72934  0.57050  Biso   1.000  C
  C56      1.0000 0.89600  0.22934  0.92950  Biso   1.000  C
  C57      1.0000 0.40160  0.23774  0.43000  Biso   1.000  C
  C58      1.0000 0.09840  0.73774  0.07000  Biso   1.000  C
  C59      1.0000 0.59840  0.76226  0.57000  Biso   1.000  C
  C60      1.0000 0.90160  0.26226  0.93000  Biso   1.000  C
  H69      1.0000 0.43840  0.22660  0.46620  Biso   1.000  H
  H70      1.0000 0.06160  0.72660  0.03380  Biso   1.000  H
  H71      1.0000 0.56160  0.77340  0.53380  Biso   1.000  H
  H72      1.0000 0.93840  0.27340  0.96620  Biso   1.000  H
  C61      1.0000 0.35230  0.22161  0.37650  Biso   1.000  C
  C62      1.0000 0.14770  0.72161  0.12350  Biso   1.000  C
  C63      1.0000 0.64770  0.77839  0.62350  Biso   1.000  C
  C64      1.0000 0.85230  0.27839  0.87650  Biso   1.000  C
  H73      1.0000 0.35400  0.19910  0.37600  Biso   1.000  H
  H74      1.0000 0.14600  0.69910  0.12400  Biso   1.000  H
  H75      1.0000 0.64600  0.80090  0.62400  Biso   1.000  H
  H76      1.0000 0.85400  0.30090  0.87600  Biso   1.000  H
  C65      1.0000 0.30000  0.23818  0.32310  Biso   1.000  C
  C66      1.0000 0.20000  0.73818  0.17690  Biso   1.000  C
  C67      1.0000 0.70000  0.76182  0.67690  Biso   1.000  C
  C68      1.0000 0.80000  0.26182  0.82310  Biso   1.000  C
  H77      1.0000 0.26650  0.22740  0.28620  Biso   1.000  H
  H78      1.0000 0.23350  0.72740  0.21380  Biso   1.000  H
  H79      1.0000 0.73350  0.77260  0.71380  Biso   1.000  H
  H80      1.0000 0.76650  0.27260  0.78620  Biso   1.000  H
  C69      1.0000 0.29910  0.27080  0.32610  Biso   1.000  C
  C70      1.0000 0.20090  0.77080  0.17390  Biso   1.000  C
  C71      1.0000 0.70090  0.72920  0.67390  Biso   1.000  C
  C72      1.0000 0.79910  0.22920  0.82610  Biso   1.000  C
  C73      1.0000 0.25130  0.29340  0.27330  Biso   1.000  C
  C74      1.0000 0.24870  0.79340  0.22670  Biso   1.000  C
  C75      1.0000 0.74870  0.70660  0.72670  Biso   1.000  C
  C76      1.0000 0.75130  0.20660  0.77330  Biso   1.000  C
  C77      1.0000 0.23210  0.34748  0.24570  Biso   1.000  C
  C78      1.0000 0.26790  0.84748  0.25430  Biso   1.000  C
  C79      1.0000 0.76790  0.65252  0.75430  Biso   1.000  C
  C80      1.0000 0.73210  0.15252  0.74570  Biso   1.000  C
  C81      1.0000 0.11210  0.36237  0.24020  Biso   1.000  C
  C82      1.0000 0.38790  0.86237  0.25980  Biso   1.000  C
  C83      1.0000 0.88790  0.63763  0.75980  Biso   1.000  C
  C84      1.0000 0.61210  0.13763  0.74020  Biso   1.000  C
  C85      1.0000 0.01670  0.35338  0.28090  Biso   1.000  C
  C86      1.0000 0.48330  0.85338  0.21910  Biso   1.000  C
  C87      1.0000 0.98330  0.64662  0.71910  Biso   1.000  C
  C88      1.0000 0.51670  0.14662  0.78090  Biso   1.000  C
  H81      1.0000 0.06320  0.33840  0.31260  Biso   1.000  H
  H82      1.0000 0.43680  0.83840  0.18740  Biso   1.000  H
  H83      1.0000 0.93680  0.66160  0.68740  Biso   1.000  H
  H84      1.0000 0.56320  0.16160  0.81260  Biso   1.000  H
  C89      1.0000 0.97700  0.38160  0.31350  Biso   1.000  C
  C90      1.0000 0.52300  0.88160  0.18650  Biso   1.000  C
  C91      1.0000 0.02300  0.61840  0.68650  Biso   1.000  C
  C92      1.0000 0.47700  0.11840  0.81350  Biso   1.000  C
  H85      1.0000 0.05510  0.39310  0.33360  Biso   1.000  H
  H86      1.0000 0.44490  0.89310  0.16640  Biso   1.000  H
  H87      1.0000 0.94490  0.60690  0.66640  Biso   1.000  H
  H88      1.0000 0.55510  0.10690  0.83360  Biso   1.000  H
  H89      1.0000 0.92780  0.37450  0.34410  Biso   1.000  H
  H90      1.0000 0.57220  0.87450  0.15590  Biso   1.000  H
  H91      1.0000 0.07220  0.62550  0.65590  Biso   1.000  H
  H92      1.0000 0.42780  0.12550  0.84410  Biso   1.000  H
  H93      1.0000 0.92200  0.39560  0.28420  Biso   1.000  H
  H94      1.0000 0.57800  0.89560  0.21580  Biso   1.000  H
  H95      1.0000 0.07800  0.60440  0.71580  Biso   1.000  H
  H96      1.0000 0.42200  0.10440  0.78420  Biso   1.000  H
  C93      1.0000 0.90010  0.33640  0.24650  Biso   1.000  C
  C94      1.0000 0.59990  0.83640  0.25350  Biso   1.000  C
  C95      1.0000 0.09990  0.66360  0.75350  Biso   1.000  C
  C96      1.0000 0.40010  0.16360  0.74650  Biso   1.000  C
  H97      1.0000 0.84520  0.32940  0.27470  Biso   1.000  H
  H98      1.0000 0.65480  0.82940  0.22530  Biso   1.000  H
  H99      1.0000 0.15480  0.67060  0.72530  Biso   1.000  H
  H100     1.0000 0.34520  0.17060  0.77470  Biso   1.000  H
  H101     1.0000 0.92860  0.31800  0.22590  Biso   1.000  H
  H102     1.0000 0.57140  0.81800  0.27410  Biso   1.000  H
  H103     1.0000 0.07140  0.68200  0.77410  Biso   1.000  H
  H104     1.0000 0.42860  0.18200  0.72590  Biso   1.000  H
  H105     1.0000 0.84990  0.35070  0.21620  Biso   1.000  H
  H106     1.0000 0.65010  0.85070  0.28380  Biso   1.000  H
  H107     1.0000 0.15010  0.64930  0.78380  Biso   1.000  H
  H108     1.0000 0.34990  0.14930  0.71620  Biso   1.000  H
  C97      1.0000 0.07810  0.38522  0.19480  Biso   1.000  C
  C98      1.0000 0.42190  0.88522  0.30520  Biso   1.000  C
  C99      1.0000 0.92190  0.61478  0.80520  Biso   1.000  C
  C100     1.0000 0.57810  0.11478  0.69480  Biso   1.000  C
  H109     1.0000 0.99500  0.39520  0.18950  Biso   1.000  H
  H110     1.0000 0.50500  0.89520  0.31050  Biso   1.000  H
  H111     1.0000 0.00500  0.60480  0.81050  Biso   1.000  H
  H112     1.0000 0.49500  0.10480  0.68950  Biso   1.000  H
  C101     1.0000 0.16210  0.39352  0.15790  Biso   1.000  C
  C102     1.0000 0.33790  0.89352  0.34210  Biso   1.000  C
  C103     1.0000 0.83790  0.60648  0.84210  Biso   1.000  C
  C104     1.0000 0.66210  0.10648  0.65790  Biso   1.000  C
  C105     1.0000 0.28380  0.37978  0.16590  Biso   1.000  C
  C106     1.0000 0.21620  0.87978  0.33410  Biso   1.000  C
  C107     1.0000 0.71620  0.62022  0.83410  Biso   1.000  C
  C108     1.0000 0.78380  0.12022  0.66590  Biso   1.000  C
  H113     1.0000 0.34260  0.38620  0.14080  Biso   1.000  H
  H114     1.0000 0.15740  0.88620  0.35920  Biso   1.000  H
  H115     1.0000 0.65740  0.61380  0.85920  Biso   1.000  H
  H116     1.0000 0.84260  0.11380  0.64080  Biso   1.000  H
  C109     1.0000 0.32230  0.35655  0.21040  Biso   1.000  C
  C110     1.0000 0.17770  0.85655  0.28960  Biso   1.000  C
  C111     1.0000 0.67770  0.64345  0.78960  Biso   1.000  C
  C112     1.0000 0.82230  0.14345  0.71040  Biso   1.000  C
  C113     1.0000 0.45620  0.34162  0.22120  Biso   1.000  C
  C114     1.0000 0.04380  0.84162  0.27880  Biso   1.000  C
  C115     1.0000 0.54380  0.65838  0.77880  Biso   1.000  C
  C116     1.0000 0.95620  0.15838  0.72120  Biso   1.000  C
  H117     1.0000 0.44730  0.31980  0.23750  Biso   1.000  H
  H118     1.0000 0.05270  0.81980  0.26250  Biso   1.000  H
  H119     1.0000 0.55270  0.68020  0.76250  Biso   1.000  H
  H120     1.0000 0.94730  0.18020  0.73750  Biso   1.000  H
  C117     1.0000 0.54820  0.35970  0.27000  Biso   1.000  C
  C118     1.0000 0.95180  0.85970  0.23000  Biso   1.000  C
  C119     1.0000 0.45180  0.64030  0.73000  Biso   1.000  C
  C120     1.0000 0.04820  0.14030  0.77000  Biso   1.000  C
  H121     1.0000 0.63370  0.34930  0.27830  Biso   1.000  H
  H122     1.0000 0.86630  0.84930  0.22170  Biso   1.000  H
  H123     1.0000 0.36630  0.65070  0.72170  Biso   1.000  H
  H124     1.0000 0.13370  0.15070  0.77830  Biso   1.000  H
  H125     1.0000 0.51250  0.36030  0.30720  Biso   1.000  H
  H126     1.0000 0.98750  0.86030  0.19280  Biso   1.000  H
  H127     1.0000 0.48750  0.63970  0.69280  Biso   1.000  H
  H128     1.0000 0.01250  0.13970  0.80720  Biso   1.000  H
  H129     1.0000 0.55810  0.38140  0.25600  Biso   1.000  H
  H130     1.0000 0.94190  0.88140  0.24400  Biso   1.000  H
  H131     1.0000 0.44190  0.61860  0.74400  Biso   1.000  H
  H132     1.0000 0.05810  0.11860  0.75600  Biso   1.000  H
  C121     1.0000 0.51040  0.33793  0.16340  Biso   1.000  C
  C122     1.0000 0.98960  0.83793  0.33660  Biso   1.000  C
  C123     1.0000 0.48960  0.66207  0.83660  Biso   1.000  C
  C124     1.0000 0.01040  0.16207  0.66340  Biso   1.000  C
  H133     1.0000 0.59060  0.32530  0.17200  Biso   1.000  H
  H134     1.0000 0.90940  0.82530  0.32800  Biso   1.000  H
  H135     1.0000 0.40940  0.67470  0.82800  Biso   1.000  H
  H136     1.0000 0.09060  0.17470  0.67200  Biso   1.000  H
  H137     1.0000 0.52980  0.35890  0.14850  Biso   1.000  H
  H138     1.0000 0.97020  0.85890  0.35150  Biso   1.000  H
  H139     1.0000 0.47020  0.64110  0.85150  Biso   1.000  H
  H140     1.0000 0.02980  0.14110  0.64850  Biso   1.000  H
  H141     1.0000 0.44560  0.32730  0.13230  Biso   1.000  H
  H142     1.0000 0.05440  0.82730  0.36770  Biso   1.000  H
  H143     1.0000 0.55440  0.67270  0.86770  Biso   1.000  H
  H144     1.0000 0.94560  0.17270  0.63230  Biso   1.000  H
  K1       1.0000 0.09822  0.25421  0.12358  Biso   1.000  K
  K2       1.0000 0.40178  0.75421  0.37642  Biso   1.000  K
  K3       1.0000 0.90178  0.74579  0.87642  Biso   1.000  K
  K4       1.0000 0.59822  0.24579  0.62358  Biso   1.000  K
  O37      1.0000 0.90750  0.22467  0.17592  Biso   1.000  O
  O38      1.0000 0.59250  0.72467  0.32408  Biso   1.000  O
  O39      1.0000 0.09250  0.77533  0.82408  Biso   1.000  O
  O40      1.0000 0.40750  0.27533  0.67592  Biso   1.000  O
  C125     1.0000 0.81200  0.24483  0.18710  Biso   1.000  C
  C126     1.0000 0.68800  0.74483  0.31290  Biso   1.000  C
  C127     1.0000 0.18800  0.75517  0.81290  Biso   1.000  C
  C128     1.0000 0.31200  0.25517  0.68710  Biso   1.000  C
  H145     1.0000 0.84830  0.25890  0.22160  Biso   1.000  H
  H146     1.0000 0.65170  0.75890  0.27840  Biso   1.000  H
  H147     1.0000 0.15170  0.74110  0.77840  Biso   1.000  H
  H148     1.0000 0.34830  0.24110  0.72160  Biso   1.000  H
  H149     1.0000 0.73990  0.23240  0.19840  Biso   1.000  H
  H150     1.0000 0.76010  0.73240  0.30160  Biso   1.000  H
  H151     1.0000 0.26010  0.76760  0.80160  Biso   1.000  H
  H152     1.0000 0.23990  0.26760  0.69840  Biso   1.000  H
  C129     1.0000 0.76070  0.26425  0.13220  Biso   1.000  C
  C130     1.0000 0.73930  0.76425  0.36780  Biso   1.000  C
  C131     1.0000 0.23930  0.73575  0.86780  Biso   1.000  C
  C132     1.0000 0.26070  0.23575  0.63220  Biso   1.000  C
  H153     1.0000 0.73340  0.25030  0.09630  Biso   1.000  H
  H154     1.0000 0.76660  0.75030  0.40370  Biso   1.000  H
  H155     1.0000 0.26660  0.74970  0.90370  Biso   1.000  H
  H156     1.0000 0.23340  0.24970  0.59630  Biso   1.000  H
  H157     1.0000 0.68400  0.27670  0.13840  Biso   1.000  H
  H158     1.0000 0.81600  0.77670  0.36160  Biso   1.000  H
  H159     1.0000 0.31600  0.72330  0.86160  Biso   1.000  H
  H160     1.0000 0.18400  0.22330  0.63840  Biso   1.000  H
  O41      1.0000 0.86120  0.28473  0.12260  Biso   1.000  O
  O42      1.0000 0.63880  0.78473  0.37740  Biso   1.000  O
  O43      1.0000 0.13880  0.71527  0.87740  Biso   1.000  O
  O44      1.0000 0.36120  0.21527  0.62260  Biso   1.000  O
  C133     1.0000 0.82240  0.30712  0.07610  Biso   1.000  C
  C134     1.0000 0.67760  0.80712  0.42390  Biso   1.000  C
  C135     1.0000 0.17760  0.69288  0.92390  Biso   1.000  C
  C136     1.0000 0.32240  0.19288  0.57610  Biso   1.000  C
  H161     1.0000 0.75160  0.32050  0.08600  Biso   1.000  H
  H162     1.0000 0.74840  0.82050  0.41400  Biso   1.000  H
  H163     1.0000 0.24840  0.67950  0.91400  Biso   1.000  H
  H164     1.0000 0.25160  0.17950  0.58600  Biso   1.000  H
  H165     1.0000 0.78870  0.29610  0.03720  Biso   1.000  H
  H166     1.0000 0.71130  0.79610  0.46280  Biso   1.000  H
  H167     1.0000 0.21130  0.70390  0.96280  Biso   1.000  H
  H168     1.0000 0.28870  0.20390  0.53720  Biso   1.000  H
  C137     1.0000 0.93780  0.32754  0.07000  Biso   1.000  C
  C138     1.0000 0.56220  0.82754  0.43000  Biso   1.000  C
  C139     1.0000 0.06220  0.67246  0.93000  Biso   1.000  C
  C140     1.0000 0.43780  0.17246  0.57000  Biso   1.000  C
  H169     1.0000 0.90910  0.34520  0.04130  Biso   1.000  H
  H170     1.0000 0.59090  0.84520  0.45870  Biso   1.000  H
  H171     1.0000 0.09090  0.65480  0.95870  Biso   1.000  H
  H172     1.0000 0.40910  0.15480  0.54130  Biso   1.000  H
  H173     1.0000 0.97800  0.33670  0.11000  Biso   1.000  H
  H174     1.0000 0.52200  0.83670  0.39000  Biso   1.000  H
  H175     1.0000 0.02200  0.66330  0.89000  Biso   1.000  H
  H176     1.0000 0.47800  0.16330  0.61000  Biso   1.000  H
  O45      1.0000 0.02770  0.30876  0.04844  Biso   1.000  O
  O46      1.0000 0.47230  0.80876  0.45156  Biso   1.000  O
  O47      1.0000 0.97230  0.69124  0.95156  Biso   1.000  O
  O48      1.0000 0.52770  0.19124  0.54844  Biso   1.000  O
  C141     1.0000 0.14550  0.32627  0.04620  Biso   1.000  C
  C142     1.0000 0.35450  0.82627  0.45380  Biso   1.000  C
  C143     1.0000 0.85450  0.67373  0.95380  Biso   1.000  C
  C144     1.0000 0.64550  0.17373  0.54620  Biso   1.000  C
  H177     1.0000 0.18520  0.33400  0.08740  Biso   1.000  H
  H178     1.0000 0.31480  0.83400  0.41260  Biso   1.000  H
  H179     1.0000 0.81480  0.66600  0.91260  Biso   1.000  H
  H180     1.0000 0.68520  0.16600  0.58740  Biso   1.000  H
  H181     1.0000 0.12460  0.34480  0.01890  Biso   1.000  H
  H182     1.0000 0.37540  0.84480  0.48110  Biso   1.000  H
  H183     1.0000 0.87540  0.65520  0.98110  Biso   1.000  H
  H184     1.0000 0.62460  0.15520  0.51890  Biso   1.000  H
  C145     1.0000 0.23800  0.30530  0.02340  Biso   1.000  C
  C146     1.0000 0.26200  0.80530  0.47660  Biso   1.000  C
  C147     1.0000 0.76200  0.69470  0.97660  Biso   1.000  C
  C148     1.0000 0.73800  0.19470  0.52340  Biso   1.000  C
  H185     1.0000 0.19350  0.29450  0.98570  Biso   1.000  H
  H186     1.0000 0.30650  0.79450  0.51430  Biso   1.000  H
  H187     1.0000 0.80650  0.70550  0.01430  Biso   1.000  H
  H188     1.0000 0.69350  0.20550  0.48570  Biso   1.000  H
  H189     1.0000 0.31150  0.31780  0.01380  Biso   1.000  H
  H190     1.0000 0.18850  0.81780  0.48620  Biso   1.000  H
  H191     1.0000 0.68850  0.68220  0.98620  Biso   1.000  H
  H192     1.0000 0.81150  0.18220  0.51380  Biso   1.000  H
  O49      1.0000 0.28530  0.28268  0.06869  Biso   1.000  O
  O50      1.0000 0.21470  0.78268  0.43131  Biso   1.000  O
  O51      1.0000 0.71470  0.71732  0.93131  Biso   1.000  O
  O52      1.0000 0.78530  0.21732  0.56869  Biso   1.000  O
  C149     1.0000 0.37700  0.26090  0.05220  Biso   1.000  C
  C150     1.0000 0.12300  0.76090  0.44780  Biso   1.000  C
  C151     1.0000 0.62300  0.73910  0.94780  Biso   1.000  C
  C152     1.0000 0.87700  0.23910  0.55220  Biso   1.000  C
  H193     1.0000 0.45110  0.27250  0.04110  Biso   1.000  H
  H194     1.0000 0.04890  0.77250  0.45890  Biso   1.000  H
  H195     1.0000 0.54890  0.72750  0.95890  Biso   1.000  H
  H196     1.0000 0.95110  0.22750  0.54110  Biso   1.000  H
  H197     1.0000 0.33450  0.24820  0.01660  Biso   1.000  H
  H198     1.0000 0.16550  0.74820  0.48340  Biso   1.000  H
  H199     1.0000 0.66550  0.75180  0.98340  Biso   1.000  H
  H200     1.0000 0.83450  0.25180  0.51660  Biso   1.000  H
  C153     1.0000 0.42440  0.24000  0.10380  Biso   1.000  C
  C154     1.0000 0.07560  0.74000  0.39620  Biso   1.000  C
  C155     1.0000 0.57560  0.76000  0.89620  Biso   1.000  C
  C156     1.0000 0.92440  0.26000  0.60380  Biso   1.000  C
  H201     1.0000 0.49620  0.22650  0.09510  Biso   1.000  H
  H202     1.0000 0.00380  0.72650  0.40490  Biso   1.000  H
  H203     1.0000 0.50380  0.77350  0.90490  Biso   1.000  H
  H204     1.0000 0.99620  0.27350  0.59510  Biso   1.000  H
  H205     1.0000 0.45840  0.25270  0.14050  Biso   1.000  H
  H206     1.0000 0.04160  0.75270  0.35950  Biso   1.000  H
  H207     1.0000 0.54160  0.74730  0.85950  Biso   1.000  H
  H208     1.0000 0.95840  0.24730  0.64050  Biso   1.000  H
  O53      1.0000 0.32000  0.22059  0.11410  Biso   1.000  O
  O54      1.0000 0.18000  0.72059  0.38590  Biso   1.000  O
  O55      1.0000 0.68000  0.77941  0.88590  Biso   1.000  O
  O56      1.0000 0.82000  0.27941  0.61410  Biso   1.000  O
  C157     1.0000 0.35940  0.19825  0.15970  Biso   1.000  C
  C158     1.0000 0.14060  0.69825  0.34030  Biso   1.000  C
  C159     1.0000 0.64060  0.80175  0.84030  Biso   1.000  C
  C160     1.0000 0.85940  0.30175  0.65970  Biso   1.000  C
  H209     1.0000 0.39780  0.20900  0.19830  Biso   1.000  H
  H210     1.0000 0.10220  0.70900  0.30170  Biso   1.000  H
  H211     1.0000 0.60220  0.79100  0.80170  Biso   1.000  H
  H212     1.0000 0.89780  0.29100  0.69830  Biso   1.000  H
  H213     1.0000 0.42650  0.18410  0.14840  Biso   1.000  H
  H214     1.0000 0.07350  0.68410  0.35160  Biso   1.000  H
  H215     1.0000 0.57350  0.81590  0.85160  Biso   1.000  H
  H216     1.0000 0.92650  0.31590  0.64840  Biso   1.000  H
  C161     1.0000 0.24250  0.17919  0.16760  Biso   1.000  C
  C162     1.0000 0.25750  0.67919  0.33240  Biso   1.000  C
  C163     1.0000 0.75750  0.82081  0.83240  Biso   1.000  C
  C164     1.0000 0.74250  0.32081  0.66760  Biso   1.000  C
  H217     1.0000 0.19380  0.17170  0.12770  Biso   1.000  H
  H218     1.0000 0.30620  0.67170  0.37230  Biso   1.000  H
  H219     1.0000 0.80620  0.82830  0.87230  Biso   1.000  H
  H220     1.0000 0.69380  0.32830  0.62770  Biso   1.000  H
  H221     1.0000 0.27000  0.16050  0.19370  Biso   1.000  H
  H222     1.0000 0.23000  0.66050  0.30630  Biso   1.000  H
  H223     1.0000 0.73000  0.83950  0.80630  Biso   1.000  H
  H224     1.0000 0.77000  0.33950  0.69370  Biso   1.000  H
  O57      1.0000 0.16300  0.19939  0.19527  Biso   1.000  O
  O58      1.0000 0.33700  0.69939  0.30473  Biso   1.000  O
  O59      1.0000 0.83700  0.80061  0.80473  Biso   1.000  O
  O60      1.0000 0.66300  0.30061  0.69527  Biso   1.000  O
  C165     1.0000 0.05250  0.18282  0.20610  Biso   1.000  C
  C166     1.0000 0.44750  0.68282  0.29390  Biso   1.000  C
  C167     1.0000 0.94750  0.81718  0.79390  Biso   1.000  C
  C168     1.0000 0.55250  0.31718  0.70610  Biso   1.000  C
  H225     1.0000 0.07960  0.16650  0.23780  Biso   1.000  H
  H226     1.0000 0.42040  0.66650  0.26220  Biso   1.000  H
  H227     1.0000 0.92040  0.83350  0.76220  Biso   1.000  H
  H228     1.0000 0.57960  0.33350  0.73780  Biso   1.000  H
  H229     1.0000 0.00810  0.17210  0.16840  Biso   1.000  H
  H230     1.0000 0.49190  0.67210  0.33160  Biso   1.000  H
  H231     1.0000 0.99190  0.82790  0.83160  Biso   1.000  H
  H232     1.0000 0.50810  0.32790  0.66840  Biso   1.000  H
  C169     1.0000 0.96090  0.20600  0.22670  Biso   1.000  C
  C170     1.0000 0.53910  0.70600  0.27330  Biso   1.000  C
  C171     1.0000 0.03910  0.79400  0.77330  Biso   1.000  C
  C172     1.0000 0.46090  0.29400  0.72670  Biso   1.000  C
  H233     1.0000 0.89080  0.19460  0.24180  Biso   1.000  H
  H234     1.0000 0.60920  0.69460  0.25820  Biso   1.000  H
  H235     1.0000 0.10920  0.80540  0.75820  Biso   1.000  H
  H236     1.0000 0.39080  0.30540  0.74180  Biso   1.000  H
  H237     1.0000 0.00880  0.21950  0.25990  Biso   1.000  H
  H238     1.0000 0.49120  0.71950  0.24010  Biso   1.000  H
  H239     1.0000 0.99120  0.78050  0.74010  Biso   1.000  H
  H240     1.0000 0.50880  0.28050  0.75990  Biso   1.000  H
  K5       1.0000 0.37791  0.46507  0.08345  Biso   1.000  K
  K6       1.0000 0.12209  0.96507  0.41655  Biso   1.000  K
  K7       1.0000 0.62209  0.53493  0.91655  Biso   1.000  K
  K8       1.0000 0.87791  0.03493  0.58345  Biso   1.000  K
  O61      1.0000 0.31830  0.46530  0.95140  Biso   1.000  O
  O62      1.0000 0.18170  0.96530  0.54860  Biso   1.000  O
  O63      1.0000 0.68170  0.53470  0.04860  Biso   1.000  O
  O64      1.0000 0.81830  0.03470  0.45140  Biso   1.000  O
  C173     1.0000 0.26310  0.49240  0.92350  Biso   1.000  C
  C174     1.0000 0.23690  0.99240  0.57650  Biso   1.000  C
  C175     1.0000 0.73690  0.50760  0.07650  Biso   1.000  C
  C176     1.0000 0.76310  0.00760  0.42350  Biso   1.000  C
  H241     1.0000 0.21650  0.48760  0.88160  Biso   1.000  H
  H242     1.0000 0.28350  0.98760  0.61840  Biso   1.000  H
  H243     1.0000 0.78350  0.51240  0.11840  Biso   1.000  H
  H244     1.0000 0.71650  0.01240  0.38160  Biso   1.000  H
  H245     1.0000 0.33200  0.50820  0.92120  Biso   1.000  H
  H246     1.0000 0.16800  0.00820  0.57880  Biso   1.000  H
  H247     1.0000 0.66800  0.49180  0.07880  Biso   1.000  H
  H248     1.0000 0.83200  0.99180  0.42120  Biso   1.000  H
  C177     1.0000 0.17080  0.50530  0.95930  Biso   1.000  C
  C178     1.0000 0.32920  0.00530  0.54070  Biso   1.000  C
  C179     1.0000 0.82920  0.49470  0.04070  Biso   1.000  C
  C180     1.0000 0.67080  0.99470  0.45930  Biso   1.000  C
  H249     1.0000 0.11700  0.52240  0.93700  Biso   1.000  H
  H250     1.0000 0.38300  0.02240  0.56300  Biso   1.000  H
  H251     1.0000 0.88300  0.47760  0.06300  Biso   1.000  H
  H252     1.0000 0.61700  0.97760  0.43700  Biso   1.000  H
  H253     1.0000 0.11250  0.48850  0.96950  Biso   1.000  H
  H254     1.0000 0.38750  0.98850  0.53050  Biso   1.000  H
  H255     1.0000 0.88750  0.51150  0.03050  Biso   1.000  H
  H256     1.0000 0.61250  0.01150  0.46950  Biso   1.000  H
  O65      1.0000 0.25330  0.51710  0.01240  Biso   1.000  O
  O66      1.0000 0.24670  0.01710  0.48760  Biso   1.000  O
  O67      1.0000 0.74670  0.48290  0.98760  Biso   1.000  O
  O68      1.0000 0.75330  0.98290  0.51240  Biso   1.000  O
  C181     1.0000 0.18360  0.53300  0.05190  Biso   1.000  C
  C182     1.0000 0.31640  0.03300  0.44810  Biso   1.000  C
  C183     1.0000 0.81640  0.46700  0.94810  Biso   1.000  C
  C184     1.0000 0.68360  0.96700  0.55190  Biso   1.000  C
  H257     1.0000 0.12360  0.51800  0.06650  Biso   1.000  H
  H258     1.0000 0.37640  0.01800  0.43350  Biso   1.000  H
  H259     1.0000 0.87640  0.48200  0.93350  Biso   1.000  H
  H260     1.0000 0.62360  0.98200  0.56650  Biso   1.000  H
  H261     1.0000 0.13090  0.55040  0.02980  Biso   1.000  H
  H262     1.0000 0.36910  0.05040  0.47020  Biso   1.000  H
  H263     1.0000 0.86910  0.44960  0.97020  Biso   1.000  H
  H264     1.0000 0.63090  0.94960  0.52980  Biso   1.000  H
  C185     1.0000 0.27780  0.54590  0.10420  Biso   1.000  C
  C186     1.0000 0.22220  0.04590  0.39580  Biso   1.000  C
  C187     1.0000 0.72220  0.45410  0.89580  Biso   1.000  C
  C188     1.0000 0.77780  0.95410  0.60420  Biso   1.000  C
  H265     1.0000 0.33960  0.56030  0.08940  Biso   1.000  H
  H266     1.0000 0.16040  0.06030  0.41060  Biso   1.000  H
  H267     1.0000 0.66040  0.43970  0.91060  Biso   1.000  H
  H268     1.0000 0.83960  0.93970  0.58940  Biso   1.000  H
  H269     1.0000 0.23060  0.55830  0.13060  Biso   1.000  H
  H270     1.0000 0.26940  0.05830  0.36940  Biso   1.000  H
  H271     1.0000 0.76940  0.44170  0.86940  Biso   1.000  H
  H272     1.0000 0.73060  0.94170  0.63060  Biso   1.000  H
  O69      1.0000 0.34610  0.52150  0.13730  Biso   1.000  O
  O70      1.0000 0.15390  0.02150  0.36270  Biso   1.000  O
  O71      1.0000 0.65390  0.47850  0.86270  Biso   1.000  O
  O72      1.0000 0.84610  0.97850  0.63730  Biso   1.000  O
  C189     1.0000 0.44170  0.53190  0.18940  Biso   1.000  C
  C190     1.0000 0.05830  0.03190  0.31060  Biso   1.000  C
  C191     1.0000 0.55830  0.46810  0.81060  Biso   1.000  C
  C192     1.0000 0.94170  0.96810  0.68940  Biso   1.000  C
  H273     1.0000 0.40040  0.54690  0.21380  Biso   1.000  H
  H274     1.0000 0.09960  0.04690  0.28620  Biso   1.000  H
  H275     1.0000 0.59960  0.45310  0.78620  Biso   1.000  H
  H276     1.0000 0.90040  0.95310  0.71380  Biso   1.000  H
  H277     1.0000 0.51370  0.54310  0.17540  Biso   1.000  H
  H278     1.0000 0.98630  0.04310  0.32460  Biso   1.000  H
  H279     1.0000 0.48630  0.45690  0.82460  Biso   1.000  H
  H280     1.0000 0.01370  0.95690  0.67540  Biso   1.000  H
  C193     1.0000 0.49500  0.50440  0.22790  Biso   1.000  C
  C194     1.0000 0.00500  0.00440  0.27210  Biso   1.000  C
  C195     1.0000 0.50500  0.49560  0.77210  Biso   1.000  C
  C196     1.0000 0.99500  0.99560  0.72790  Biso   1.000  C
  H281     1.0000 0.55670  0.51180  0.26460  Biso   1.000  H
  H282     1.0000 0.94330  0.01180  0.23540  Biso   1.000  H
  H283     1.0000 0.44330  0.48820  0.73540  Biso   1.000  H
  H284     1.0000 0.05670  0.98820  0.76460  Biso   1.000  H
  H285     1.0000 0.42370  0.49260  0.24090  Biso   1.000  H
  H286     1.0000 0.07630  0.99260  0.25910  Biso   1.000  H
  H287     1.0000 0.57630  0.50740  0.75910  Biso   1.000  H
  H288     1.0000 0.92370  0.00740  0.74090  Biso   1.000  H
  O73      1.0000 0.56140  0.48470  0.19210  Biso   1.000  O
  O74      1.0000 0.93860  0.98470  0.30790  Biso   1.000  O
  O75      1.0000 0.43860  0.51530  0.80790  Biso   1.000  O
  O76      1.0000 0.06140  0.01530  0.69210  Biso   1.000  O
  C197     1.0000 0.61760  0.45620  0.22080  Biso   1.000  C
  C198     1.0000 0.88240  0.95620  0.27920  Biso   1.000  C
  C199     1.0000 0.38240  0.54380  0.77920  Biso   1.000  C
  C200     1.0000 0.11760  0.04380  0.72080  Biso   1.000  C
  H289     1.0000 0.54720  0.44290  0.23140  Biso   1.000  H
  H290     1.0000 0.95280  0.94290  0.26860  Biso   1.000  H
  H291     1.0000 0.45280  0.55710  0.76860  Biso   1.000  H
  H292     1.0000 0.04720  0.05710  0.73140  Biso   1.000  H
  H293     1.0000 0.67840  0.46180  0.25910  Biso   1.000  H
  H294     1.0000 0.82160  0.96180  0.24090  Biso   1.000  H
  H295     1.0000 0.32160  0.53820  0.74090  Biso   1.000  H
  H296     1.0000 0.17840  0.03820  0.75910  Biso   1.000  H
  C201     1.0000 0.68900  0.43770  0.18220  Biso   1.000  C
  C202     1.0000 0.81100  0.93770  0.31780  Biso   1.000  C
  C203     1.0000 0.31100  0.56230  0.81780  Biso   1.000  C
  C204     1.0000 0.18900  0.06230  0.68220  Biso   1.000  C
  H297     1.0000 0.75630  0.45110  0.16940  Biso   1.000  H
  H298     1.0000 0.74370  0.95110  0.33060  Biso   1.000  H
  H299     1.0000 0.24370  0.54890  0.83060  Biso   1.000  H
  H300     1.0000 0.25630  0.04890  0.66940  Biso   1.000  H
  H301     1.0000 0.73330  0.41960  0.20570  Biso   1.000  H
  H302     1.0000 0.76670  0.91960  0.29430  Biso   1.000  H
  H303     1.0000 0.26670  0.58040  0.79430  Biso   1.000  H
  H304     1.0000 0.23330  0.08040  0.70570  Biso   1.000  H
  O77      1.0000 0.60250  0.42640  0.13060  Biso   1.000  O
  O78      1.0000 0.89750  0.92640  0.36940  Biso   1.000  O
  O79      1.0000 0.39750  0.57360  0.86940  Biso   1.000  O
  O80      1.0000 0.10250  0.07360  0.63060  Biso   1.000  O
  C205     1.0000 0.66470  0.40870  0.09170  Biso   1.000  C
  C206     1.0000 0.83530  0.90870  0.40830  Biso   1.000  C
  C207     1.0000 0.33530  0.59130  0.90830  Biso   1.000  C
  C208     1.0000 0.16470  0.09130  0.59170  Biso   1.000  C
  H305     1.0000 0.70840  0.39000  0.11340  Biso   1.000  H
  H306     1.0000 0.79160  0.89000  0.38660  Biso   1.000  H
  H307     1.0000 0.29160  0.61000  0.88660  Biso   1.000  H
  H308     1.0000 0.20840  0.11000  0.61340  Biso   1.000  H
  H309     1.0000 0.73150  0.42180  0.07760  Biso   1.000  H
  H310     1.0000 0.76850  0.92180  0.42240  Biso   1.000  H
  H311     1.0000 0.26850  0.57820  0.92240  Biso   1.000  H
  H312     1.0000 0.23150  0.07820  0.57760  Biso   1.000  H
  C209     1.0000 0.56010  0.39810  0.03730  Biso   1.000  C
  C210     1.0000 0.93990  0.89810  0.46270  Biso   1.000  C
  C211     1.0000 0.43990  0.60190  0.96270  Biso   1.000  C
  C212     1.0000 0.06010  0.10190  0.53730  Biso   1.000  C
  H313     1.0000 0.59640  0.38280  0.01160  Biso   1.000  H
  H314     1.0000 0.90360  0.88280  0.48840  Biso   1.000  H
  H315     1.0000 0.40360  0.61720  0.98840  Biso   1.000  H
  H316     1.0000 0.09640  0.11720  0.51160  Biso   1.000  H
  H317     1.0000 0.48490  0.38830  0.05110  Biso   1.000  H
  H318     1.0000 0.01510  0.88830  0.44890  Biso   1.000  H
  H319     1.0000 0.51510  0.61170  0.94890  Biso   1.000  H
  H320     1.0000 0.98490  0.11170  0.55110  Biso   1.000  H
  O81      1.0000 0.52300  0.42660  0.00540  Biso   1.000  O
  O82      1.0000 0.97700  0.92660  0.49460  Biso   1.000  O
  O83      1.0000 0.47700  0.57340  0.99460  Biso   1.000  O
  O84      1.0000 0.02300  0.07340  0.50540  Biso   1.000  O
  C213     1.0000 0.43480  0.41930  0.94950  Biso   1.000  C
  C214     1.0000 0.06520  0.91930  0.55050  Biso   1.000  C
  C215     1.0000 0.56520  0.58070  0.05050  Biso   1.000  C
  C216     1.0000 0.93480  0.08070  0.44950  Biso   1.000  C
  H321     1.0000 0.35630  0.40840  0.95780  Biso   1.000  H
  H322     1.0000 0.14370  0.90840  0.54220  Biso   1.000  H
  H323     1.0000 0.64370  0.59160  0.04220  Biso   1.000  H
  H324     1.0000 0.85630  0.09160  0.45780  Biso   1.000  H
  H325     1.0000 0.47790  0.40530  0.92390  Biso   1.000  H
  H326     1.0000 0.02210  0.90530  0.57610  Biso   1.000  H
  H327     1.0000 0.52210  0.59470  0.07610  Biso   1.000  H
  H328     1.0000 0.97790  0.09470  0.42390  Biso   1.000  H
  C217     1.0000 0.39820  0.44970  0.91820  Biso   1.000  C
  C218     1.0000 0.10180  0.94970  0.58180  Biso   1.000  C
  C219     1.0000 0.60180  0.55030  0.08180  Biso   1.000  C
  C220     1.0000 0.89820  0.05030  0.41820  Biso   1.000  C
  H329     1.0000 0.47700  0.46250  0.91690  Biso   1.000  H
  H330     1.0000 0.02300  0.96250  0.58310  Biso   1.000  H
  H331     1.0000 0.52300  0.53750  0.08310  Biso   1.000  H
  H332     1.0000 0.97700  0.03750  0.41690  Biso   1.000  H
  H333     1.0000 0.35090  0.44590  0.87600  Biso   1.000  H
  H334     1.0000 0.14910  0.94590  0.62400  Biso   1.000  H
  H335     1.0000 0.64910  0.55410  0.12400  Biso   1.000  H
  H336     1.0000 0.85090  0.05410  0.37600  Biso   1.000  H
  K9       1.0000 0.80460  0.48193  0.60612  Biso   1.000  K
  K10      1.0000 0.69540  0.98193  0.89388  Biso   1.000  K
  K11      1.0000 0.19540  0.51807  0.39388  Biso   1.000  K
  K12      1.0000 0.30460  0.01807  0.10612  Biso   1.000  K
  O85      1.0000 0.63220  0.53510  0.58920  Biso   1.000  O
  O86      1.0000 0.86780  0.03510  0.91080  Biso   1.000  O
  O87      1.0000 0.36780  0.46490  0.41080  Biso   1.000  O
  O88      1.0000 0.13220  0.96490  0.08920  Biso   1.000  O
  C221     1.0000 0.64000  0.55300  0.54020  Biso   1.000  C
  C222     1.0000 0.86000  0.05300  0.95980  Biso   1.000  C
  C223     1.0000 0.36000  0.44700  0.45980  Biso   1.000  C
  C224     1.0000 0.14000  0.94700  0.04020  Biso   1.000  C
  H337     1.0000 0.72770  0.56270  0.54570  Biso   1.000  H
  H338     1.0000 0.77230  0.06270  0.95430  Biso   1.000  H
  H339     1.0000 0.27230  0.43730  0.45430  Biso   1.000  H
  H340     1.0000 0.22770  0.93730  0.04570  Biso   1.000  H
  H341     1.0000 0.57450  0.57020  0.53620  Biso   1.000  H
  H342     1.0000 0.92550  0.07020  0.96380  Biso   1.000  H
  H343     1.0000 0.42550  0.42980  0.46380  Biso   1.000  H
  H344     1.0000 0.07450  0.92980  0.03620  Biso   1.000  H
  C225     1.0000 0.61600  0.53330  0.48310  Biso   1.000  C
  C226     1.0000 0.88400  0.03330  0.01690  Biso   1.000  C
  C227     1.0000 0.38400  0.46670  0.51690  Biso   1.000  C
  C228     1.0000 0.11600  0.96670  0.98310  Biso   1.000  C
  H345     1.0000 0.53110  0.52210  0.47810  Biso   1.000  H
  H346     1.0000 0.96890  0.02210  0.02190  Biso   1.000  H
  H347     1.0000 0.46890  0.47790  0.52190  Biso   1.000  H
  H348     1.0000 0.03110  0.97790  0.97810  Biso   1.000  H
  H349     1.0000 0.61590  0.54670  0.44680  Biso   1.000  H
  H350     1.0000 0.88410  0.04670  0.05320  Biso   1.000  H
  H351     1.0000 0.38410  0.45330  0.55320  Biso   1.000  H
  H352     1.0000 0.11590  0.95330  0.94680  Biso   1.000  H
  O89      1.0000 0.72180  0.51160  0.49230  Biso   1.000  O
  O90      1.0000 0.77820  0.01160  0.00770  Biso   1.000  O
  O91      1.0000 0.27820  0.48840  0.50770  Biso   1.000  O
  O92      1.0000 0.22180  0.98840  0.99230  Biso   1.000  O
  C229     1.0000 0.70900  0.48760  0.44660  Biso   1.000  C
  C230     1.0000 0.79100  0.98760  0.05340  Biso   1.000  C
  C231     1.0000 0.29100  0.51240  0.55340  Biso   1.000  C
  C232     1.0000 0.20900  0.01240  0.94660  Biso   1.000  C
  H353     1.0000 0.67890  0.49700  0.40570  Biso   1.000  H
  H354     1.0000 0.82110  0.99700  0.09430  Biso   1.000  H
  H355     1.0000 0.32110  0.50300  0.59430  Biso   1.000  H
  H356     1.0000 0.17890  0.00300  0.90570  Biso   1.000  H
  H357     1.0000 0.64580  0.47130  0.45350  Biso   1.000  H
  H358     1.0000 0.85420  0.97130  0.04650  Biso   1.000  H
  H359     1.0000 0.35420  0.52870  0.54650  Biso   1.000  H
  H360     1.0000 0.14580  0.02870  0.95350  Biso   1.000  H
  C233     1.0000 0.84370  0.47330  0.45150  Biso   1.000  C
  C234     1.0000 0.65630  0.97330  0.04850  Biso   1.000  C
  C235     1.0000 0.15630  0.52670  0.54850  Biso   1.000  C
  C236     1.0000 0.34370  0.02670  0.95150  Biso   1.000  C
  H361     1.0000 0.84470  0.45880  0.41690  Biso   1.000  H
  H362     1.0000 0.65530  0.95880  0.08310  Biso   1.000  H
  H363     1.0000 0.15530  0.54120  0.58310  Biso   1.000  H
  H364     1.0000 0.34470  0.04120  0.91690  Biso   1.000  H
  H365     1.0000 0.90900  0.49020  0.45050  Biso   1.000  H
  H366     1.0000 0.59100  0.99020  0.04950  Biso   1.000  H
  H367     1.0000 0.09100  0.50980  0.54950  Biso   1.000  H
  H368     1.0000 0.40900  0.00980  0.95050  Biso   1.000  H
  O93      1.0000 0.87430  0.45680  0.50570  Biso   1.000  O
  O94      1.0000 0.62570  0.95680  0.99430  Biso   1.000  O
  O95      1.0000 0.12570  0.54320  0.49430  Biso   1.000  O
  O96      1.0000 0.37430  0.04320  0.00570  Biso   1.000  O
  C237     1.0000 0.00570  0.44440  0.50860  Biso   1.000  C
  C238     1.0000 0.49430  0.94440  0.99140  Biso   1.000  C
  C239     1.0000 0.99430  0.55560  0.49140  Biso   1.000  C
  C240     1.0000 0.50570  0.05560  0.00860  Biso   1.000  C
  H369     1.0000 0.06080  0.46120  0.49560  Biso   1.000  H
  H370     1.0000 0.43920  0.96120  0.00440  Biso   1.000  H
  H371     1.0000 0.93920  0.53880  0.50440  Biso   1.000  H
  H372     1.0000 0.56080  0.03880  0.99560  Biso   1.000  H
  H373     1.0000 0.00180  0.42650  0.47990  Biso   1.000  H
  H374     1.0000 0.49820  0.92650  0.02010  Biso   1.000  H
  H375     1.0000 0.99820  0.57350  0.52010  Biso   1.000  H
  H376     1.0000 0.50180  0.07350  0.97990  Biso   1.000  H
  C241     1.0000 0.06600  0.43370  0.57010  Biso   1.000  C
  C242     1.0000 0.43400  0.93370  0.92990  Biso   1.000  C
  C243     1.0000 0.93400  0.56630  0.42990  Biso   1.000  C
  C244     1.0000 0.56600  0.06630  0.07010  Biso   1.000  C
  H377     1.0000 0.01540  0.41560  0.58130  Biso   1.000  H
  H378     1.0000 0.48460  0.91560  0.91870  Biso   1.000  H
  H379     1.0000 0.98460  0.58440  0.41870  Biso   1.000  H
  H380     1.0000 0.51540  0.08440  0.08130  Biso   1.000  H
  H381     1.0000 0.15570  0.42620  0.56990  Biso   1.000  H
  H382     1.0000 0.34430  0.92620  0.93010  Biso   1.000  H
  H383     1.0000 0.84430  0.57380  0.43010  Biso   1.000  H
  H384     1.0000 0.65570  0.07380  0.06990  Biso   1.000  H
  O97      1.0000 0.07160  0.45730  0.61350  Biso   1.000  O
  O98      1.0000 0.42840  0.95730  0.88650  Biso   1.000  O
  O99      1.0000 0.92840  0.54270  0.38650  Biso   1.000  O
  O100     1.0000 0.57160  0.04270  0.11350  Biso   1.000  O
  C245     1.0000 0.14000  0.45040  0.67370  Biso   1.000  C
  C246     1.0000 0.36000  0.95040  0.82630  Biso   1.000  C
  C247     1.0000 0.86000  0.54960  0.32630  Biso   1.000  C
  C248     1.0000 0.64000  0.04960  0.17370  Biso   1.000  C
  H385     1.0000 0.23300  0.44640  0.67350  Biso   1.000  H
  H386     1.0000 0.26700  0.94640  0.82650  Biso   1.000  H
  H387     1.0000 0.76700  0.55360  0.32650  Biso   1.000  H
  H388     1.0000 0.73300  0.05360  0.17350  Biso   1.000  H
  H389     1.0000 0.10270  0.43110  0.68890  Biso   1.000  H
  H390     1.0000 0.39730  0.93110  0.81110  Biso   1.000  H
  H391     1.0000 0.89730  0.56890  0.31110  Biso   1.000  H
  H392     1.0000 0.60270  0.06890  0.18890  Biso   1.000  H
  C249     1.0000 0.12780  0.47690  0.71320  Biso   1.000  C
  C250     1.0000 0.37220  0.97690  0.78680  Biso   1.000  C
  C251     1.0000 0.87220  0.52310  0.28680  Biso   1.000  C
  C252     1.0000 0.62780  0.02310  0.21320  Biso   1.000  C
  H393     1.0000 0.17320  0.47090  0.75480  Biso   1.000  H
  H394     1.0000 0.32680  0.97090  0.74520  Biso   1.000  H
  H395     1.0000 0.82680  0.52910  0.24520  Biso   1.000  H
  H396     1.0000 0.67320  0.02910  0.25480  Biso   1.000  H
  H397     1.0000 0.17680  0.49480  0.70020  Biso   1.000  H
  H398     1.0000 0.32320  0.99480  0.79980  Biso   1.000  H
  H399     1.0000 0.82320  0.50520  0.29980  Biso   1.000  H
  H400     1.0000 0.67680  0.00520  0.20020  Biso   1.000  H
  O101     1.0000 0.00700  0.48780  0.71730  Biso   1.000  O
  O102     1.0000 0.49300  0.98780  0.78270  Biso   1.000  O
  O103     1.0000 0.99300  0.51220  0.28270  Biso   1.000  O
  O104     1.0000 0.50700  0.01220  0.21730  Biso   1.000  O
  C253     1.0000 0.98400  0.50630  0.76320  Biso   1.000  C
  C254     1.0000 0.51600  0.00630  0.73680  Biso   1.000  C
  C255     1.0000 0.01600  0.49370  0.23680  Biso   1.000  C
  C256     1.0000 0.48400  0.99370  0.26320  Biso   1.000  C
  H401     1.0000 0.06770  0.51130  0.79100  Biso   1.000  H
  H402     1.0000 0.43230  0.01130  0.70900  Biso   1.000  H
  H403     1.0000 0.93230  0.48870  0.20900  Biso   1.000  H
  H404     1.0000 0.56770  0.98870  0.29100  Biso   1.000  H
  H405     1.0000 0.92770  0.49490  0.78670  Biso   1.000  H
  H406     1.0000 0.57230  0.99490  0.71330  Biso   1.000  H
  H407     1.0000 0.07230  0.50510  0.21330  Biso   1.000  H
  H408     1.0000 0.42770  0.00510  0.28670  Biso   1.000  H
  C257     1.0000 0.91800  0.53680  0.73840  Biso   1.000  C
  C258     1.0000 0.58200  0.03680  0.76160  Biso   1.000  C
  C259     1.0000 0.08200  0.46320  0.26160  Biso   1.000  C
  C260     1.0000 0.41800  0.96320  0.23840  Biso   1.000  C
  H409     1.0000 0.90680  0.55100  0.77200  Biso   1.000  H
  H410     1.0000 0.59320  0.05100  0.72800  Biso   1.000  H
  H411     1.0000 0.09320  0.44900  0.22800  Biso   1.000  H
  H412     1.0000 0.40680  0.94900  0.27200  Biso   1.000  H
  H413     1.0000 0.97100  0.54780  0.71270  Biso   1.000  H
  H414     1.0000 0.52900  0.04780  0.78730  Biso   1.000  H
  H415     1.0000 0.02900  0.45220  0.28730  Biso   1.000  H
  H416     1.0000 0.47100  0.95220  0.21270  Biso   1.000  H
  O105     1.0000 0.79540  0.52810  0.70340  Biso   1.000  O
  O106     1.0000 0.70460  0.02810  0.79660  Biso   1.000  O
  O107     1.0000 0.20460  0.47190  0.29660  Biso   1.000  O
  O108     1.0000 0.29540  0.97190  0.20340  Biso   1.000  O
  C261     1.0000 0.72900  0.55700  0.68220  Biso   1.000  C
  C262     1.0000 0.77100  0.05700  0.81780  Biso   1.000  C
  C263     1.0000 0.27100  0.44300  0.31780  Biso   1.000  C
  C264     1.0000 0.22900  0.94300  0.18220  Biso   1.000  C
  H417     1.0000 0.78210  0.56990  0.65940  Biso   1.000  H
  H418     1.0000 0.71790  0.06990  0.84060  Biso   1.000  H
  H419     1.0000 0.21790  0.43010  0.34060  Biso   1.000  H
  H420     1.0000 0.28210  0.93010  0.15940  Biso   1.000  H
  H421     1.0000 0.71030  0.56960  0.71670  Biso   1.000  H
  H422     1.0000 0.78970  0.06960  0.78330  Biso   1.000  H
  H423     1.0000 0.28970  0.43040  0.28330  Biso   1.000  H
  H424     1.0000 0.21030  0.93040  0.21670  Biso   1.000  H
  C265     1.0000 0.60600  0.54680  0.64200  Biso   1.000  C
  C266     1.0000 0.89400  0.04680  0.85800  Biso   1.000  C
  C267     1.0000 0.39400  0.45320  0.35800  Biso   1.000  C
  C268     1.0000 0.10600  0.95320  0.14200  Biso   1.000  C
  H425     1.0000 0.56300  0.53030  0.66250  Biso   1.000  H
  H426     1.0000 0.93700  0.03030  0.83750  Biso   1.000  H
  H427     1.0000 0.43700  0.46970  0.33750  Biso   1.000  H
  H428     1.0000 0.06300  0.96970  0.16250  Biso   1.000  H
  H429     1.0000 0.54560  0.56510  0.63310  Biso   1.000  H
  H430     1.0000 0.95440  0.06510  0.86690  Biso   1.000  H
  H431     1.0000 0.45440  0.43490  0.36690  Biso   1.000  H
  H432     1.0000 0.04560  0.93490  0.13310  Biso   1.000  H
  S9       1.0000 0.63190  0.42095  0.65440  Biso   1.000  S
  S10      1.0000 0.86810  0.92095  0.84560  Biso   1.000  S
  S11      1.0000 0.36810  0.57905  0.34560  Biso   1.000  S
  S12      1.0000 0.13190  0.07905  0.15440  Biso   1.000  S
  O109     1.0000 0.58700  0.41020  0.70850  Biso   1.000  O
  O110     1.0000 0.91300  0.91020  0.79150  Biso   1.000  O
  O111     1.0000 0.41300  0.58980  0.29150  Biso   1.000  O
  O112     1.0000 0.08700  0.08980  0.20850  Biso   1.000  O
  O113     1.0000 0.56610  0.45030  0.62880  Biso   1.000  O
  O114     1.0000 0.93390  0.95030  0.87120  Biso   1.000  O
  O115     1.0000 0.43390  0.54970  0.37120  Biso   1.000  O
  O116     1.0000 0.06610  0.04970  0.12880  Biso   1.000  O
  O117     1.0000 0.77320  0.42130  0.65950  Biso   1.000  O
  O118     1.0000 0.72680  0.92130  0.84050  Biso   1.000  O
  O119     1.0000 0.22680  0.57870  0.34050  Biso   1.000  O
  O120     1.0000 0.27320  0.07870  0.15950  Biso   1.000  O
  O121     1.0000 0.23630  0.48710  0.97920  Biso   1.000  O
  O122     1.0000 0.26370  0.98710  0.52080  Biso   1.000  O
  O123     1.0000 0.76370  0.51290  0.02080  Biso   1.000  O
  O124     1.0000 0.73630  0.01290  0.47920  Biso   1.000  O
  C269     1.0000 0.20300  0.51890  0.97400  Biso   1.000  C
  C270     1.0000 0.29700  0.01890  0.52600  Biso   1.000  C
  C271     1.0000 0.79700  0.48110  0.02600  Biso   1.000  C
  C272     1.0000 0.70300  0.98110  0.47400  Biso   1.000  C
  H433     1.0000 0.13740  0.52280  0.93620  Biso   1.000  H
  H434     1.0000 0.36260  0.02280  0.56380  Biso   1.000  H
  H435     1.0000 0.86260  0.47720  0.06380  Biso   1.000  H
  H436     1.0000 0.63740  0.97720  0.43620  Biso   1.000  H
  H437     1.0000 0.28040  0.53220  0.97350  Biso   1.000  H
  H438     1.0000 0.21960  0.03220  0.52650  Biso   1.000  H
  H439     1.0000 0.71960  0.46780  0.02650  Biso   1.000  H
  H440     1.0000 0.78040  0.96780  0.47350  Biso   1.000  H
  C273     1.0000 0.14660  0.52600  0.02840  Biso   1.000  C
  C274     1.0000 0.35340  0.02600  0.47160  Biso   1.000  C
  C275     1.0000 0.85340  0.47400  0.97160  Biso   1.000  C
  C276     1.0000 0.64660  0.97400  0.52840  Biso   1.000  C
  H441     1.0000 0.10150  0.54670  0.02400  Biso   1.000  H
  H442     1.0000 0.39850  0.04670  0.47600  Biso   1.000  H
  H443     1.0000 0.89850  0.45330  0.97600  Biso   1.000  H
  H444     1.0000 0.60150  0.95330  0.52400  Biso   1.000  H
  H445     1.0000 0.08310  0.50940  0.03430  Biso   1.000  H
  H446     1.0000 0.41690  0.00940  0.46570  Biso   1.000  H
  H447     1.0000 0.91690  0.49060  0.96570  Biso   1.000  H
  H448     1.0000 0.58310  0.99060  0.53430  Biso   1.000  H
  O125     1.0000 0.25500  0.52650  0.07860  Biso   1.000  O
  O126     1.0000 0.24500  0.02650  0.42140  Biso   1.000  O
  O127     1.0000 0.74500  0.47350  0.92140  Biso   1.000  O
  O128     1.0000 0.75500  0.97350  0.57860  Biso   1.000  O
  C277     1.0000 0.21120  0.52930  0.13470  Biso   1.000  C
  C278     1.0000 0.28880  0.02930  0.36530  Biso   1.000  C
  C279     1.0000 0.78880  0.47070  0.86530  Biso   1.000  C
  C280     1.0000 0.71120  0.97070  0.63470  Biso   1.000  C
  H449     1.0000 0.16260  0.51000  0.14190  Biso   1.000  H
  H450     1.0000 0.33740  0.01000  0.35810  Biso   1.000  H
  H451     1.0000 0.83740  0.49000  0.85810  Biso   1.000  H
  H452     1.0000 0.66260  0.99000  0.64190  Biso   1.000  H
  H453     1.0000 0.15190  0.54770  0.13320  Biso   1.000  H
  H454     1.0000 0.34810  0.04770  0.36680  Biso   1.000  H
  H455     1.0000 0.84810  0.45230  0.86680  Biso   1.000  H
  H456     1.0000 0.65190  0.95230  0.63320  Biso   1.000  H
  C281     1.0000 0.32890  0.53360  0.18550  Biso   1.000  C
  C282     1.0000 0.17110  0.03360  0.31450  Biso   1.000  C
  C283     1.0000 0.67110  0.46640  0.81450  Biso   1.000  C
  C284     1.0000 0.82890  0.96640  0.68550  Biso   1.000  C
  H457     1.0000 0.38380  0.55130  0.17590  Biso   1.000  H
  H458     1.0000 0.11620  0.05130  0.32410  Biso   1.000  H
  H459     1.0000 0.61620  0.44870  0.82410  Biso   1.000  H
  H460     1.0000 0.88380  0.94870  0.67590  Biso   1.000  H
  H461     1.0000 0.30080  0.53840  0.22410  Biso   1.000  H
  H462     1.0000 0.19920  0.03840  0.27590  Biso   1.000  H
  H463     1.0000 0.69920  0.46160  0.77590  Biso   1.000  H
  H464     1.0000 0.80080  0.96160  0.72410  Biso   1.000  H
  O129     1.0000 0.39900  0.50530  0.19050  Biso   1.000  O
  O130     1.0000 0.10100  0.00530  0.30950  Biso   1.000  O
  O131     1.0000 0.60100  0.49470  0.80950  Biso   1.000  O
  O132     1.0000 0.89900  0.99470  0.69050  Biso   1.000  O
  C285     1.0000 0.52200  0.50720  0.23290  Biso   1.000  C
  C286     1.0000 0.97800  0.00720  0.26710  Biso   1.000  C
  C287     1.0000 0.47800  0.49280  0.76710  Biso   1.000  C
  C288     1.0000 0.02200  0.99280  0.73290  Biso   1.000  C
  H465     1.0000 0.51030  0.51680  0.27160  Biso   1.000  H
  H466     1.0000 0.98970  0.01680  0.22840  Biso   1.000  H
  H467     1.0000 0.48970  0.48320  0.72840  Biso   1.000  H
  H468     1.0000 0.01030  0.98320  0.77160  Biso   1.000  H
  H469     1.0000 0.58520  0.52020  0.21580  Biso   1.000  H
  H470     1.0000 0.91480  0.02020  0.28420  Biso   1.000  H
  H471     1.0000 0.41480  0.47980  0.78420  Biso   1.000  H
  H472     1.0000 0.08520  0.97980  0.71580  Biso   1.000  H
  C289     1.0000 0.57100  0.47400  0.24300  Biso   1.000  C
  C290     1.0000 0.92900  0.97400  0.25700  Biso   1.000  C
  C291     1.0000 0.42900  0.52600  0.75700  Biso   1.000  C
  C292     1.0000 0.07100  0.02600  0.74300  Biso   1.000  C
  H473     1.0000 0.64520  0.47310  0.27790  Biso   1.000  H
  H474     1.0000 0.85480  0.97310  0.22210  Biso   1.000  H
  H475     1.0000 0.35480  0.52690  0.72210  Biso   1.000  H
  H476     1.0000 0.14520  0.02690  0.77790  Biso   1.000  H
  H477     1.0000 0.50030  0.46010  0.25180  Biso   1.000  H
  H478     1.0000 0.99970  0.96010  0.24820  Biso   1.000  H
  H479     1.0000 0.49970  0.53990  0.74820  Biso   1.000  H
  H480     1.0000 0.00030  0.03990  0.75180  Biso   1.000  H
  O133     1.0000 0.61110  0.46380  0.18810  Biso   1.000  O
  O134     1.0000 0.88890  0.96380  0.31190  Biso   1.000  O
  O135     1.0000 0.38890  0.53620  0.81190  Biso   1.000  O
  O136     1.0000 0.11110  0.03620  0.68810  Biso   1.000  O
  C293     1.0000 0.66600  0.43250  0.19260  Biso   1.000  C
  C294     1.0000 0.83400  0.93250  0.30740  Biso   1.000  C
  C295     1.0000 0.33400  0.56750  0.80740  Biso   1.000  C
  C296     1.0000 0.16600  0.06750  0.69260  Biso   1.000  C
  H481     1.0000 0.60850  0.41790  0.20940  Biso   1.000  H
  H482     1.0000 0.89150  0.91790  0.29060  Biso   1.000  H
  H483     1.0000 0.39150  0.58210  0.79060  Biso   1.000  H
  H484     1.0000 0.10850  0.08210  0.70940  Biso   1.000  H
  H485     1.0000 0.75220  0.43290  0.22090  Biso   1.000  H
  H486     1.0000 0.74780  0.93290  0.27910  Biso   1.000  H
  H487     1.0000 0.24780  0.56710  0.77910  Biso   1.000  H
  H488     1.0000 0.25220  0.06710  0.72090  Biso   1.000  H
  C297     1.0000 0.68340  0.42110  0.13320  Biso   1.000  C
  C298     1.0000 0.81660  0.92110  0.36680  Biso   1.000  C
  C299     1.0000 0.31660  0.57890  0.86680  Biso   1.000  C
  C300     1.0000 0.18340  0.07890  0.63320  Biso   1.000  C
  H489     1.0000 0.74430  0.43540  0.11770  Biso   1.000  H
  H490     1.0000 0.75570  0.93540  0.38230  Biso   1.000  H
  H491     1.0000 0.25570  0.56460  0.88230  Biso   1.000  H
  H492     1.0000 0.24430  0.06460  0.61770  Biso   1.000  H
  H493     1.0000 0.72430  0.39980  0.13840  Biso   1.000  H
  H494     1.0000 0.77570  0.89980  0.36160  Biso   1.000  H
  H495     1.0000 0.27570  0.60020  0.86160  Biso   1.000  H
  H496     1.0000 0.22430  0.10020  0.63840  Biso   1.000  H
  O137     1.0000 0.56660  0.41910  0.08960  Biso   1.000  O
  O138     1.0000 0.93340  0.91910  0.41040  Biso   1.000  O
  O139     1.0000 0.43340  0.58090  0.91040  Biso   1.000  O
  O140     1.0000 0.06660  0.08090  0.58960  Biso   1.000  O
  C301     1.0000 0.58400  0.40720  0.03380  Biso   1.000  C
  C302     1.0000 0.91600  0.90720  0.46620  Biso   1.000  C
  C303     1.0000 0.41600  0.59280  0.96620  Biso   1.000  C
  C304     1.0000 0.08400  0.09280  0.53380  Biso   1.000  C
  H497     1.0000 0.61890  0.38540  0.03900  Biso   1.000  H
  H498     1.0000 0.88110  0.88540  0.46100  Biso   1.000  H
  H499     1.0000 0.38110  0.61460  0.96100  Biso   1.000  H
  H500     1.0000 0.11890  0.11460  0.53900  Biso   1.000  H
  H501     1.0000 0.64750  0.42050  0.01780  Biso   1.000  H
  H502     1.0000 0.85250  0.92050  0.48220  Biso   1.000  H
  H503     1.0000 0.35250  0.57950  0.98220  Biso   1.000  H
  H504     1.0000 0.14750  0.07950  0.51780  Biso   1.000  H
  C305     1.0000 0.45400  0.40720  0.98920  Biso   1.000  C
  C306     1.0000 0.04600  0.90720  0.51080  Biso   1.000  C
  C307     1.0000 0.54600  0.59280  0.01080  Biso   1.000  C
  C308     1.0000 0.95400  0.09280  0.48920  Biso   1.000  C
  H505     1.0000 0.46210  0.39620  0.95120  Biso   1.000  H
  H506     1.0000 0.03790  0.89620  0.54880  Biso   1.000  H
  H507     1.0000 0.53790  0.60380  0.04880  Biso   1.000  H
  H508     1.0000 0.96210  0.10380  0.45120  Biso   1.000  H
  H509     1.0000 0.38610  0.39650  0.00710  Biso   1.000  H
  H510     1.0000 0.11390  0.89650  0.49290  Biso   1.000  H
  H511     1.0000 0.61390  0.60350  0.99290  Biso   1.000  H
  H512     1.0000 0.88610  0.10350  0.50710  Biso   1.000  H
  O141     1.0000 0.42240  0.43980  0.97770  Biso   1.000  O
  O142     1.0000 0.07760  0.93980  0.52230  Biso   1.000  O
  O143     1.0000 0.57760  0.56020  0.02230  Biso   1.000  O
  O144     1.0000 0.92240  0.06020  0.47770  Biso   1.000  O
  C309     1.0000 0.30400  0.44170  0.93340  Biso   1.000  C
  C310     1.0000 0.19600  0.94170  0.56660  Biso   1.000  C
  C311     1.0000 0.69600  0.55830  0.06660  Biso   1.000  C
  C312     1.0000 0.80400  0.05830  0.43340  Biso   1.000  C
  H513     1.0000 0.23520  0.42910  0.94700  Biso   1.000  H
  H514     1.0000 0.26480  0.92910  0.55300  Biso   1.000  H
  H515     1.0000 0.76480  0.57090  0.05300  Biso   1.000  H
  H516     1.0000 0.73520  0.07090  0.44700  Biso   1.000  H
  H517     1.0000 0.31830  0.43280  0.89430  Biso   1.000  H
  H518     1.0000 0.18170  0.93280  0.60570  Biso   1.000  H
  H519     1.0000 0.68170  0.56720  0.10570  Biso   1.000  H
  H520     1.0000 0.81830  0.06720  0.39430  Biso   1.000  H
  C313     1.0000 0.26400  0.47500  0.92550  Biso   1.000  C
  C314     1.0000 0.23600  0.97500  0.57450  Biso   1.000  C
  C315     1.0000 0.73600  0.52500  0.07450  Biso   1.000  C
  C316     1.0000 0.76400  0.02500  0.42550  Biso   1.000  C
  H521     1.0000 0.33530  0.48750  0.91350  Biso   1.000  H
  H522     1.0000 0.16470  0.98750  0.58650  Biso   1.000  H
  H523     1.0000 0.66470  0.51250  0.08650  Biso   1.000  H
  H524     1.0000 0.83530  0.01250  0.41350  Biso   1.000  H
  H525     1.0000 0.18600  0.47670  0.89260  Biso   1.000  H
  H526     1.0000 0.31400  0.97670  0.60740  Biso   1.000  H
  H527     1.0000 0.81400  0.52330  0.10740  Biso   1.000  H
  H528     1.0000 0.68600  0.02330  0.39260  Biso   1.000  H
  O145     1.0000 0.65070  0.53050  0.54270  Biso   1.000  O
  O146     1.0000 0.84930  0.03050  0.95730  Biso   1.000  O
  O147     1.0000 0.34930  0.46950  0.45730  Biso   1.000  O
  O148     1.0000 0.15070  0.96950  0.04270  Biso   1.000  O
  C317     1.0000 0.66100  0.53970  0.48430  Biso   1.000  C
  C318     1.0000 0.83900  0.03970  0.01570  Biso   1.000  C
  C319     1.0000 0.33900  0.46030  0.51570  Biso   1.000  C
  C320     1.0000 0.16100  0.96030  0.98430  Biso   1.000  C
  H529     1.0000 0.74540  0.55060  0.48510  Biso   1.000  H
  H530     1.0000 0.75460  0.05060  0.01490  Biso   1.000  H
  H531     1.0000 0.25460  0.44940  0.51490  Biso   1.000  H
  H532     1.0000 0.24540  0.94940  0.98510  Biso   1.000  H
  H533     1.0000 0.58940  0.55440  0.46720  Biso   1.000  H
  H534     1.0000 0.91060  0.05440  0.03280  Biso   1.000  H
  H535     1.0000 0.41060  0.44560  0.53280  Biso   1.000  H
  H536     1.0000 0.08940  0.94560  0.96720  Biso   1.000  H
  C321     1.0000 0.65270  0.51040  0.44640  Biso   1.000  C
  C322     1.0000 0.84730  0.01040  0.05360  Biso   1.000  C
  C323     1.0000 0.34730  0.48960  0.55360  Biso   1.000  C
  C324     1.0000 0.15270  0.98960  0.94640  Biso   1.000  C
  H537     1.0000 0.57840  0.49690  0.45210  Biso   1.000  H
  H538     1.0000 0.92160  0.99690  0.04790  Biso   1.000  H
  H539     1.0000 0.42160  0.50310  0.54790  Biso   1.000  H
  H540     1.0000 0.07840  0.00310  0.95210  Biso   1.000  H
  H541     1.0000 0.64330  0.51560  0.40270  Biso   1.000  H
  H542     1.0000 0.85670  0.01560  0.09730  Biso   1.000  H
  H543     1.0000 0.35670  0.48440  0.59730  Biso   1.000  H
  H544     1.0000 0.14330  0.98440  0.90270  Biso   1.000  H
  O149     1.0000 0.77570  0.49500  0.46930  Biso   1.000  O
  O150     1.0000 0.72430  0.99500  0.03070  Biso   1.000  O
  O151     1.0000 0.22430  0.50500  0.53070  Biso   1.000  O
  O152     1.0000 0.27570  0.00500  0.96930  Biso   1.000  O
  C325     1.0000 0.78800  0.46610  0.43780  Biso   1.000  C
  C326     1.0000 0.71200  0.96610  0.06220  Biso   1.000  C
  C327     1.0000 0.21200  0.53390  0.56220  Biso   1.000  C
  C328     1.0000 0.28800  0.03390  0.93780  Biso   1.000  C
  H545     1.0000 0.78370  0.47030  0.39400  Biso   1.000  H
  H546     1.0000 0.71630  0.97030  0.10600  Biso   1.000  H
  H547     1.0000 0.21630  0.52970  0.60600  Biso   1.000  H
  H548     1.0000 0.28370  0.02970  0.89400  Biso   1.000  H
  H549     1.0000 0.71680  0.45130  0.44200  Biso   1.000  H
  H550     1.0000 0.78320  0.95130  0.05800  Biso   1.000  H
  H551     1.0000 0.28320  0.54870  0.55800  Biso   1.000  H
  H552     1.0000 0.21680  0.04870  0.94200  Biso   1.000  H
  C329     1.0000 0.91800  0.45230  0.46580  Biso   1.000  C
  C330     1.0000 0.58200  0.95230  0.03420  Biso   1.000  C
  C331     1.0000 0.08200  0.54770  0.53420  Biso   1.000  C
  C332     1.0000 0.41800  0.04770  0.96580  Biso   1.000  C
  H553     1.0000 0.93940  0.43460  0.44050  Biso   1.000  H
  H554     1.0000 0.56060  0.93460  0.05950  Biso   1.000  H
  H555     1.0000 0.06060  0.56540  0.55950  Biso   1.000  H
  H556     1.0000 0.43940  0.06540  0.94050  Biso   1.000  H
  H557     1.0000 0.98660  0.46860  0.46890  Biso   1.000  H
  H558     1.0000 0.51340  0.96860  0.03110  Biso   1.000  H
  H559     1.0000 0.01340  0.53140  0.53110  Biso   1.000  H
  H560     1.0000 0.48660  0.03140  0.96890  Biso   1.000  H
  O153     1.0000 0.90950  0.44130  0.52310  Biso   1.000  O
  O154     1.0000 0.59050  0.94130  0.97690  Biso   1.000  O
  O155     1.0000 0.09050  0.55870  0.47690  Biso   1.000  O
  O156     1.0000 0.40950  0.05870  0.02310  Biso   1.000  O
  C333     1.0000 0.02200  0.42460  0.55350  Biso   1.000  C
  C334     1.0000 0.47800  0.92460  0.94650  Biso   1.000  C
  C335     1.0000 0.97800  0.57540  0.44650  Biso   1.000  C
  C336     1.0000 0.52200  0.07540  0.05350  Biso   1.000  C
  H561     1.0000 0.10080  0.43780  0.55550  Biso   1.000  H
  H562     1.0000 0.39920  0.93780  0.94450  Biso   1.000  H
  H563     1.0000 0.89920  0.56220  0.44450  Biso   1.000  H
  H564     1.0000 0.60080  0.06220  0.05550  Biso   1.000  H
  H565     1.0000 0.03280  0.40480  0.53140  Biso   1.000  H
  H566     1.0000 0.46720  0.90480  0.96860  Biso   1.000  H
  H567     1.0000 0.96720  0.59520  0.46860  Biso   1.000  H
  H568     1.0000 0.53280  0.09520  0.03140  Biso   1.000  H
  C337     1.0000 0.00300  0.41710  0.61640  Biso   1.000  C
  C338     1.0000 0.49700  0.91710  0.88360  Biso   1.000  C
  C339     1.0000 0.99700  0.58290  0.38360  Biso   1.000  C
  C340     1.0000 0.50300  0.08290  0.11640  Biso   1.000  C
  H569     1.0000 0.91040  0.41160  0.61640  Biso   1.000  H
  H570     1.0000 0.58960  0.91160  0.88360  Biso   1.000  H
  H571     1.0000 0.08960  0.58840  0.38360  Biso   1.000  H
  H572     1.0000 0.41040  0.08840  0.11640  Biso   1.000  H
  H573     1.0000 0.05950  0.39930  0.63420  Biso   1.000  H
  H574     1.0000 0.44050  0.89930  0.86580  Biso   1.000  H
  H575     1.0000 0.94050  0.60070  0.36580  Biso   1.000  H
  H576     1.0000 0.55950  0.10070  0.13420  Biso   1.000  H
  O157     1.0000 0.03900  0.44600  0.64880  Biso   1.000  O
  O158     1.0000 0.46100  0.94600  0.85120  Biso   1.000  O
  O159     1.0000 0.96100  0.55400  0.35120  Biso   1.000  O
  O160     1.0000 0.53900  0.05400  0.14880  Biso   1.000  O
  C341     1.0000 0.04600  0.44250  0.71210  Biso   1.000  C
  C342     1.0000 0.45400  0.94250  0.78790  Biso   1.000  C
  C343     1.0000 0.95400  0.55750  0.28790  Biso   1.000  C
  C344     1.0000 0.54600  0.05750  0.21210  Biso   1.000  C
  H577     1.0000 0.12800  0.43100  0.72930  Biso   1.000  H
  H578     1.0000 0.37200  0.93100  0.77070  Biso   1.000  H
  H579     1.0000 0.87200  0.56900  0.27070  Biso   1.000  H
  H580     1.0000 0.62800  0.06900  0.22930  Biso   1.000  H
  H581     1.0000 0.97250  0.42900  0.71840  Biso   1.000  H
  H582     1.0000 0.52750  0.92900  0.78160  Biso   1.000  H
  H583     1.0000 0.02750  0.57100  0.28160  Biso   1.000  H
  H584     1.0000 0.47250  0.07100  0.21840  Biso   1.000  H
  C345     1.0000 0.04300  0.47170  0.74620  Biso   1.000  C
  C346     1.0000 0.45700  0.97170  0.75380  Biso   1.000  C
  C347     1.0000 0.95700  0.52830  0.25380  Biso   1.000  C
  C348     1.0000 0.54300  0.02830  0.24620  Biso   1.000  C
  H585     1.0000 0.03250  0.46640  0.78790  Biso   1.000  H
  H586     1.0000 0.46750  0.96640  0.71210  Biso   1.000  H
  H587     1.0000 0.96750  0.53360  0.21210  Biso   1.000  H
  H588     1.0000 0.53250  0.03360  0.28790  Biso   1.000  H
  H589     1.0000 0.12830  0.48260  0.74950  Biso   1.000  H
  H590     1.0000 0.37170  0.98260  0.75050  Biso   1.000  H
  H591     1.0000 0.87170  0.51740  0.25050  Biso   1.000  H
  H592     1.0000 0.62830  0.01740  0.24950  Biso   1.000  H
  O161     1.0000 0.94400  0.49250  0.72030  Biso   1.000  O
  O162     1.0000 0.55600  0.99250  0.77970  Biso   1.000  O
  O163     1.0000 0.05600  0.50750  0.27970  Biso   1.000  O
  O164     1.0000 0.44400  0.00750  0.22030  Biso   1.000  O
  C349     1.0000 0.94700  0.52270  0.74120  Biso   1.000  C
  C350     1.0000 0.55300  0.02270  0.75880  Biso   1.000  C
  C351     1.0000 0.05300  0.47730  0.25880  Biso   1.000  C
  C352     1.0000 0.44700  0.97730  0.24120  Biso   1.000  C
  H593     1.0000 0.01250  0.53480  0.72450  Biso   1.000  H
  H594     1.0000 0.48750  0.03480  0.77550  Biso   1.000  H
  H595     1.0000 0.98750  0.46520  0.27550  Biso   1.000  H
  H596     1.0000 0.51250  0.96520  0.22450  Biso   1.000  H
  H597     1.0000 0.97410  0.52240  0.78610  Biso   1.000  H
  H598     1.0000 0.52590  0.02240  0.71390  Biso   1.000  H
  H599     1.0000 0.02590  0.47760  0.21390  Biso   1.000  H
  H600     1.0000 0.47410  0.97760  0.28610  Biso   1.000  H
  C353     1.0000 0.81600  0.53910  0.72420  Biso   1.000  C
  C354     1.0000 0.68400  0.03910  0.77580  Biso   1.000  C
  C355     1.0000 0.18400  0.46090  0.27580  Biso   1.000  C
  C356     1.0000 0.31600  0.96090  0.22420  Biso   1.000  C
  H601     1.0000 0.74970  0.52810  0.74280  Biso   1.000  H
  H602     1.0000 0.75030  0.02810  0.75720  Biso   1.000  H
  H603     1.0000 0.25030  0.47190  0.25720  Biso   1.000  H
  H604     1.0000 0.24970  0.97190  0.24280  Biso   1.000  H
  H605     1.0000 0.82280  0.56130  0.73880  Biso   1.000  H
  H606     1.0000 0.67720  0.06130  0.76120  Biso   1.000  H
  H607     1.0000 0.17720  0.43870  0.26120  Biso   1.000  H
  H608     1.0000 0.32280  0.93870  0.23880  Biso   1.000  H
  O165     1.0000 0.77950  0.53830  0.66050  Biso   1.000  O
  O166     1.0000 0.72050  0.03830  0.83950  Biso   1.000  O
  O167     1.0000 0.22050  0.46170  0.33950  Biso   1.000  O
  O168     1.0000 0.27950  0.96170  0.16050  Biso   1.000  O
  C357     1.0000 0.65100  0.55120  0.64170  Biso   1.000  C
  C358     1.0000 0.84900  0.05120  0.85830  Biso   1.000  C
  C359     1.0000 0.34900  0.44880  0.35830  Biso   1.000  C
  C360     1.0000 0.15100  0.94880  0.14170  Biso   1.000  C
  H609     1.0000 0.64010  0.57080  0.66450  Biso   1.000  H
  H610     1.0000 0.85990  0.07080  0.83550  Biso   1.000  H
  H611     1.0000 0.35990  0.42920  0.33550  Biso   1.000  H
  H612     1.0000 0.14010  0.92920  0.16450  Biso   1.000  H
  H613     1.0000 0.58350  0.53560  0.64810  Biso   1.000  H
  H614     1.0000 0.91650  0.03560  0.85190  Biso   1.000  H
  H615     1.0000 0.41650  0.46440  0.35190  Biso   1.000  H
  H616     1.0000 0.08350  0.96440  0.14810  Biso   1.000  H
  C361     1.0000 0.64000  0.55790  0.57720  Biso   1.000  C
  C362     1.0000 0.86000  0.05790  0.92280  Biso   1.000  C
  C363     1.0000 0.36000  0.44210  0.42280  Biso   1.000  C
  C364     1.0000 0.14000  0.94210  0.07720  Biso   1.000  C
  H617     1.0000 0.55490  0.56820  0.56150  Biso   1.000  H
  H618     1.0000 0.94510  0.06820  0.93850  Biso   1.000  H
  H619     1.0000 0.44510  0.43180  0.43850  Biso   1.000  H
  H620     1.0000 0.05490  0.93180  0.06150  Biso   1.000  H
  H621     1.0000 0.70980  0.57300  0.57220  Biso   1.000  H
  H622     1.0000 0.79020  0.07300  0.92780  Biso   1.000  H
  H623     1.0000 0.29020  0.42700  0.42780  Biso   1.000  H
  H624     1.0000 0.20980  0.92700  0.07220  Biso   1.000  H
