data_image0
_cell_length_a       13.477
_cell_length_b       13.477
_cell_length_c       46.167
_cell_angle_alpha    90
_cell_angle_beta     90
_cell_angle_gamma    90

_symmetry_space_group_name_H-M    "P 1"
_symmetry_int_tables_number       1

loop_
  _symmetry_equiv_pos_as_xyz
  'x, y, z'

loop_
  _atom_site_label
  _atom_site_occupancy
  _atom_site_fract_x
  _atom_site_fract_y
  _atom_site_fract_z
  _atom_site_thermal_displace_type
  _atom_site_B_iso_or_equiv
  _atom_site_type_symbol
  Cu1      1.0000 0.50000  0.25000  0.09952  Biso   1.000  Cu
  Cu2      1.0000 0.00000  0.75000  0.34952  Biso   1.000  Cu
  Cu3      1.0000 0.00000  0.75000  0.59952  Biso   1.000  Cu
  Cu4      1.0000 0.50000  0.75000  0.34952  Biso   1.000  Cu
  Cu5      1.0000 0.00000  0.25000  0.40048  Biso   1.000  Cu
  Cu6      1.0000 0.00000  0.75000  0.15048  Biso   1.000  Cu
  Cu7      1.0000 0.50000  0.75000  0.90048  Biso   1.000  Cu
  Cu8      1.0000 0.50000  0.75000  0.15048  Biso   1.000  Cu
  O1       1.0000 0.26310  0.38560  0.97276  Biso   1.000  O
  O2       1.0000 0.86440  0.51310  0.22276  Biso   1.000  O
  O3       1.0000 0.76310  0.88560  0.47276  Biso   1.000  O
  O4       1.0000 0.63560  0.98690  0.22276  Biso   1.000  O
  O5       1.0000 0.76310  0.38560  0.52724  Biso   1.000  O
  O6       1.0000 0.86440  0.51310  0.27724  Biso   1.000  O
  O7       1.0000 0.26310  0.88560  0.02724  Biso   1.000  O
  O8       1.0000 0.73690  0.61440  0.02724  Biso   1.000  O
  O9       1.0000 0.63560  0.98690  0.27724  Biso   1.000  O
  O10      1.0000 0.23690  0.11440  0.52724  Biso   1.000  O
  O11      1.0000 0.23690  0.61440  0.47276  Biso   1.000  O
  O12      1.0000 0.73690  0.11440  0.97276  Biso   1.000  O
  O13      1.0000 0.36120  0.13140  0.10209  Biso   1.000  O
  O14      1.0000 0.11860  0.61120  0.35209  Biso   1.000  O
  O15      1.0000 0.86120  0.63140  0.60209  Biso   1.000  O
  O16      1.0000 0.38140  0.88880  0.35209  Biso   1.000  O
  O17      1.0000 0.86120  0.13140  0.39791  Biso   1.000  O
  O18      1.0000 0.11860  0.61120  0.14791  Biso   1.000  O
  O19      1.0000 0.36120  0.63140  0.89791  Biso   1.000  O
  O20      1.0000 0.63880  0.86860  0.89791  Biso   1.000  O
  O21      1.0000 0.38140  0.88880  0.14791  Biso   1.000  O
  O22      1.0000 0.13880  0.36860  0.39791  Biso   1.000  O
  O23      1.0000 0.13880  0.86860  0.60209  Biso   1.000  O
  O24      1.0000 0.63880  0.36860  0.10209  Biso   1.000  O
  N1       1.0000 0.42640  0.32200  0.06746  Biso   1.000  N
  N2       1.0000 0.92800  0.67640  0.31746  Biso   1.000  N
  N3       1.0000 0.92640  0.82200  0.56746  Biso   1.000  N
  N4       1.0000 0.57200  0.82360  0.31746  Biso   1.000  N
  N5       1.0000 0.92640  0.32200  0.43254  Biso   1.000  N
  N6       1.0000 0.92800  0.67640  0.18254  Biso   1.000  N
  N7       1.0000 0.42640  0.82200  0.93254  Biso   1.000  N
  N8       1.0000 0.57360  0.67800  0.93254  Biso   1.000  N
  N9       1.0000 0.57200  0.82360  0.18254  Biso   1.000  N
  N10      1.0000 0.07360  0.17800  0.43254  Biso   1.000  N
  N11      1.0000 0.07360  0.67800  0.56746  Biso   1.000  N
  N12      1.0000 0.57360  0.17800  0.06746  Biso   1.000  N
  N13      1.0000 0.32660  0.53270  0.97915  Biso   1.000  N
  N14      1.0000 0.71730  0.57660  0.22915  Biso   1.000  N
  N15      1.0000 0.82660  0.03270  0.47915  Biso   1.000  N
  N16      1.0000 0.78270  0.92340  0.22915  Biso   1.000  N
  N17      1.0000 0.82660  0.53270  0.52085  Biso   1.000  N
  N18      1.0000 0.71730  0.57660  0.27085  Biso   1.000  N
  N19      1.0000 0.32660  0.03270  0.02085  Biso   1.000  N
  N20      1.0000 0.67340  0.46730  0.02085  Biso   1.000  N
  N21      1.0000 0.78270  0.92340  0.27085  Biso   1.000  N
  N22      1.0000 0.17340  0.96730  0.52085  Biso   1.000  N
  N23      1.0000 0.17340  0.46730  0.47915  Biso   1.000  N
  N24      1.0000 0.67340  0.96730  0.97915  Biso   1.000  N
  N25      1.0000 0.27680  0.52970  0.95275  Biso   1.000  N
  N26      1.0000 0.72030  0.52680  0.20275  Biso   1.000  N
  N27      1.0000 0.77680  0.02970  0.45275  Biso   1.000  N
  N28      1.0000 0.77970  0.97320  0.20275  Biso   1.000  N
  N29      1.0000 0.77680  0.52970  0.54725  Biso   1.000  N
  N30      1.0000 0.72030  0.52680  0.29725  Biso   1.000  N
  N31      1.0000 0.27680  0.02970  0.04725  Biso   1.000  N
  N32      1.0000 0.72320  0.47030  0.04725  Biso   1.000  N
  N33      1.0000 0.77970  0.97320  0.29725  Biso   1.000  N
  N34      1.0000 0.22320  0.97030  0.54725  Biso   1.000  N
  N35      1.0000 0.22320  0.47030  0.45275  Biso   1.000  N
  N36      1.0000 0.72320  0.97030  0.95275  Biso   1.000  N
  N37      1.0000 0.08130  0.31580  0.88077  Biso   1.000  N
  N38      1.0000 0.93420  0.33130  0.13077  Biso   1.000  N
  N39      1.0000 0.58130  0.81580  0.38077  Biso   1.000  N
  N40      1.0000 0.56580  0.16870  0.13077  Biso   1.000  N
  N41      1.0000 0.58130  0.31580  0.61923  Biso   1.000  N
  N42      1.0000 0.93420  0.33130  0.36923  Biso   1.000  N
  N43      1.0000 0.08130  0.81580  0.11923  Biso   1.000  N
  N44      1.0000 0.91870  0.68420  0.11923  Biso   1.000  N
  N45      1.0000 0.56580  0.16870  0.36923  Biso   1.000  N
  N46      1.0000 0.41870  0.18420  0.61923  Biso   1.000  N
  N47      1.0000 0.41870  0.68420  0.38077  Biso   1.000  N
  N48      1.0000 0.91870  0.18420  0.88077  Biso   1.000  N
  C1       1.0000 0.37740  0.26690  0.04771  Biso   1.000  C
  C2       1.0000 0.98310  0.62740  0.29771  Biso   1.000  C
  C3       1.0000 0.87740  0.76690  0.54771  Biso   1.000  C
  C4       1.0000 0.51690  0.87260  0.29771  Biso   1.000  C
  C5       1.0000 0.87740  0.26690  0.45229  Biso   1.000  C
  C6       1.0000 0.98310  0.62740  0.20229  Biso   1.000  C
  C7       1.0000 0.37740  0.76690  0.95229  Biso   1.000  C
  C8       1.0000 0.62260  0.73310  0.95229  Biso   1.000  C
  C9       1.0000 0.51690  0.87260  0.20229  Biso   1.000  C
  C10      1.0000 0.12260  0.23310  0.45229  Biso   1.000  C
  C11      1.0000 0.12260  0.73310  0.54771  Biso   1.000  C
  C12      1.0000 0.62260  0.23310  0.04771  Biso   1.000  C
  H1       1.0000 0.36780  0.19960  0.05120  Biso   1.000  H
  H2       1.0000 0.05040  0.61780  0.30120  Biso   1.000  H
  H3       1.0000 0.86780  0.69960  0.55120  Biso   1.000  H
  H4       1.0000 0.44960  0.88220  0.30120  Biso   1.000  H
  H5       1.0000 0.86780  0.19960  0.44880  Biso   1.000  H
  H6       1.0000 0.05040  0.61780  0.19880  Biso   1.000  H
  H7       1.0000 0.36780  0.69960  0.94880  Biso   1.000  H
  H8       1.0000 0.63220  0.80040  0.94880  Biso   1.000  H
  H9       1.0000 0.44960  0.88220  0.19880  Biso   1.000  H
  H10      1.0000 0.13220  0.30040  0.44880  Biso   1.000  H
  H11      1.0000 0.13220  0.80040  0.55120  Biso   1.000  H
  H12      1.0000 0.63220  0.30040  0.05120  Biso   1.000  H
  C13      1.0000 0.34140  0.30720  0.02267  Biso   1.000  C
  C14      1.0000 0.94280  0.59140  0.27267  Biso   1.000  C
  C15      1.0000 0.84140  0.80720  0.52267  Biso   1.000  C
  C16      1.0000 0.55720  0.90860  0.27267  Biso   1.000  C
  C17      1.0000 0.84140  0.30720  0.47733  Biso   1.000  C
  C18      1.0000 0.94280  0.59140  0.22733  Biso   1.000  C
  C19      1.0000 0.34140  0.80720  0.97733  Biso   1.000  C
  C20      1.0000 0.65860  0.69280  0.97733  Biso   1.000  C
  C21      1.0000 0.55720  0.90860  0.22733  Biso   1.000  C
  C22      1.0000 0.15860  0.19280  0.47733  Biso   1.000  C
  C23      1.0000 0.15860  0.69280  0.52267  Biso   1.000  C
  C24      1.0000 0.65860  0.19280  0.02267  Biso   1.000  C
  H13      1.0000 0.30930  0.26670  0.00930  Biso   1.000  H
  H14      1.0000 0.98330  0.55930  0.25930  Biso   1.000  H
  H15      1.0000 0.80930  0.76670  0.50930  Biso   1.000  H
  H16      1.0000 0.51670  0.94070  0.25930  Biso   1.000  H
  H17      1.0000 0.80930  0.26670  0.49070  Biso   1.000  H
  H18      1.0000 0.98330  0.55930  0.24070  Biso   1.000  H
  H19      1.0000 0.30930  0.76670  0.99070  Biso   1.000  H
  H20      1.0000 0.69070  0.73330  0.99070  Biso   1.000  H
  H21      1.0000 0.51670  0.94070  0.24070  Biso   1.000  H
  H22      1.0000 0.19070  0.23330  0.49070  Biso   1.000  H
  H23      1.0000 0.19070  0.73330  0.50930  Biso   1.000  H
  H24      1.0000 0.69070  0.23330  0.00930  Biso   1.000  H
  C25      1.0000 0.35160  0.40490  0.01697  Biso   1.000  C
  C26      1.0000 0.84510  0.60160  0.26697  Biso   1.000  C
  C27      1.0000 0.85160  0.90490  0.51697  Biso   1.000  C
  C28      1.0000 0.65490  0.89840  0.26697  Biso   1.000  C
  C29      1.0000 0.85160  0.40490  0.48303  Biso   1.000  C
  C30      1.0000 0.84510  0.60160  0.23303  Biso   1.000  C
  C31      1.0000 0.35160  0.90490  0.98303  Biso   1.000  C
  C32      1.0000 0.64840  0.59510  0.98303  Biso   1.000  C
  C33      1.0000 0.65490  0.89840  0.23303  Biso   1.000  C
  C34      1.0000 0.14840  0.09510  0.48303  Biso   1.000  C
  C35      1.0000 0.14840  0.59510  0.51697  Biso   1.000  C
  C36      1.0000 0.64840  0.09510  0.01697  Biso   1.000  C
  C37      1.0000 0.39810  0.46420  0.03757  Biso   1.000  C
  C38      1.0000 0.78580  0.64810  0.28757  Biso   1.000  C
  C39      1.0000 0.89810  0.96420  0.53757  Biso   1.000  C
  C40      1.0000 0.71420  0.85190  0.28757  Biso   1.000  C
  C41      1.0000 0.89810  0.46420  0.46243  Biso   1.000  C
  C42      1.0000 0.78580  0.64810  0.21243  Biso   1.000  C
  C43      1.0000 0.39810  0.96420  0.96243  Biso   1.000  C
  C44      1.0000 0.60190  0.53580  0.96243  Biso   1.000  C
  C45      1.0000 0.71420  0.85190  0.21243  Biso   1.000  C
  C46      1.0000 0.10190  0.03580  0.46243  Biso   1.000  C
  C47      1.0000 0.10190  0.53580  0.53757  Biso   1.000  C
  C48      1.0000 0.60190  0.03580  0.03757  Biso   1.000  C
  H25      1.0000 0.40470  0.53220  0.03480  Biso   1.000  H
  H26      1.0000 0.71780  0.65470  0.28480  Biso   1.000  H
  H27      1.0000 0.90470  0.03220  0.53480  Biso   1.000  H
  H28      1.0000 0.78220  0.84530  0.28480  Biso   1.000  H
  H29      1.0000 0.90470  0.53220  0.46520  Biso   1.000  H
  H30      1.0000 0.71780  0.65470  0.21520  Biso   1.000  H
  H31      1.0000 0.40470  0.03220  0.96520  Biso   1.000  H
  H32      1.0000 0.59530  0.46780  0.96520  Biso   1.000  H
  H33      1.0000 0.78220  0.84530  0.21520  Biso   1.000  H
  H34      1.0000 0.09530  0.96780  0.46520  Biso   1.000  H
  H35      1.0000 0.09530  0.46780  0.53480  Biso   1.000  H
  H36      1.0000 0.59530  0.96780  0.03480  Biso   1.000  H
  C49      1.0000 0.43380  0.41940  0.06210  Biso   1.000  C
  C50      1.0000 0.83060  0.68380  0.31210  Biso   1.000  C
  C51      1.0000 0.93380  0.91940  0.56210  Biso   1.000  C
  C52      1.0000 0.66940  0.81620  0.31210  Biso   1.000  C
  C53      1.0000 0.93380  0.41940  0.43790  Biso   1.000  C
  C54      1.0000 0.83060  0.68380  0.18790  Biso   1.000  C
  C55      1.0000 0.43380  0.91940  0.93790  Biso   1.000  C
  C56      1.0000 0.56620  0.58060  0.93790  Biso   1.000  C
  C57      1.0000 0.66940  0.81620  0.18790  Biso   1.000  C
  C58      1.0000 0.06620  0.08060  0.43790  Biso   1.000  C
  C59      1.0000 0.06620  0.58060  0.56210  Biso   1.000  C
  C60      1.0000 0.56620  0.08060  0.06210  Biso   1.000  C
  H37      1.0000 0.46520  0.45900  0.07580  Biso   1.000  H
  H38      1.0000 0.79100  0.71520  0.32580  Biso   1.000  H
  H39      1.0000 0.96520  0.95900  0.57580  Biso   1.000  H
  H40      1.0000 0.70900  0.78480  0.32580  Biso   1.000  H
  H41      1.0000 0.96520  0.45900  0.42420  Biso   1.000  H
  H42      1.0000 0.79100  0.71520  0.17420  Biso   1.000  H
  H43      1.0000 0.46520  0.95900  0.92420  Biso   1.000  H
  H44      1.0000 0.53480  0.54100  0.92420  Biso   1.000  H
  H45      1.0000 0.70900  0.78480  0.17420  Biso   1.000  H
  H46      1.0000 0.03480  0.04100  0.42420  Biso   1.000  H
  H47      1.0000 0.03480  0.54100  0.57580  Biso   1.000  H
  H48      1.0000 0.53480  0.04100  0.07580  Biso   1.000  H
  C61      1.0000 0.31480  0.44580  0.99032  Biso   1.000  C
  C62      1.0000 0.80420  0.56480  0.24032  Biso   1.000  C
  C63      1.0000 0.81480  0.94580  0.49032  Biso   1.000  C
  C64      1.0000 0.69580  0.93520  0.24032  Biso   1.000  C
  C65      1.0000 0.81480  0.44580  0.50968  Biso   1.000  C
  C66      1.0000 0.80420  0.56480  0.25968  Biso   1.000  C
  C67      1.0000 0.31480  0.94580  0.00968  Biso   1.000  C
  C68      1.0000 0.68520  0.55420  0.00968  Biso   1.000  C
  C69      1.0000 0.69580  0.93520  0.25968  Biso   1.000  C
  C70      1.0000 0.18520  0.05420  0.50968  Biso   1.000  C
  C71      1.0000 0.18520  0.55420  0.49032  Biso   1.000  C
  C72      1.0000 0.68520  0.05420  0.99032  Biso   1.000  C
  C73      1.0000 0.24080  0.44600  0.94984  Biso   1.000  C
  C74      1.0000 0.80400  0.49080  0.19984  Biso   1.000  C
  C75      1.0000 0.74080  0.94600  0.44984  Biso   1.000  C
  C76      1.0000 0.69600  0.00920  0.19984  Biso   1.000  C
  C77      1.0000 0.74080  0.44600  0.55016  Biso   1.000  C
  C78      1.0000 0.80400  0.49080  0.30016  Biso   1.000  C
  C79      1.0000 0.24080  0.94600  0.05016  Biso   1.000  C
  C80      1.0000 0.75920  0.55400  0.05016  Biso   1.000  C
  C81      1.0000 0.69600  0.00920  0.30016  Biso   1.000  C
  C82      1.0000 0.25920  0.05400  0.55016  Biso   1.000  C
  C83      1.0000 0.25920  0.55400  0.44984  Biso   1.000  C
  C84      1.0000 0.75920  0.05400  0.94984  Biso   1.000  C
  C85      1.0000 0.18630  0.40050  0.92592  Biso   1.000  C
  C86      1.0000 0.84950  0.43630  0.17592  Biso   1.000  C
  C87      1.0000 0.68630  0.90050  0.42592  Biso   1.000  C
  C88      1.0000 0.65050  0.06370  0.17592  Biso   1.000  C
  C89      1.0000 0.68630  0.40050  0.57408  Biso   1.000  C
  C90      1.0000 0.84950  0.43630  0.32408  Biso   1.000  C
  C91      1.0000 0.18630  0.90050  0.07408  Biso   1.000  C
  C92      1.0000 0.81370  0.59950  0.07408  Biso   1.000  C
  C93      1.0000 0.65050  0.06370  0.32408  Biso   1.000  C
  C94      1.0000 0.31370  0.09950  0.57408  Biso   1.000  C
  C95      1.0000 0.31370  0.59950  0.42592  Biso   1.000  C
  C96      1.0000 0.81370  0.09950  0.92592  Biso   1.000  C
  C97      1.0000 0.16980  0.30190  0.92511  Biso   1.000  C
  C98      1.0000 0.94810  0.41980  0.17511  Biso   1.000  C
  C99      1.0000 0.66980  0.80190  0.42511  Biso   1.000  C
  C100     1.0000 0.55190  0.08020  0.17511  Biso   1.000  C
  C101     1.0000 0.66980  0.30190  0.57489  Biso   1.000  C
  C102     1.0000 0.94810  0.41980  0.32489  Biso   1.000  C
  C103     1.0000 0.16980  0.80190  0.07489  Biso   1.000  C
  C104     1.0000 0.83020  0.69810  0.07489  Biso   1.000  C
  C105     1.0000 0.55190  0.08020  0.32489  Biso   1.000  C
  C106     1.0000 0.33020  0.19810  0.57489  Biso   1.000  C
  C107     1.0000 0.33020  0.69810  0.42511  Biso   1.000  C
  C108     1.0000 0.83020  0.19810  0.92511  Biso   1.000  C
  H49      1.0000 0.19280  0.26190  0.94010  Biso   1.000  H
  H50      1.0000 0.98810  0.44280  0.19010  Biso   1.000  H
  H51      1.0000 0.69280  0.76190  0.44010  Biso   1.000  H
  H52      1.0000 0.51190  0.05720  0.19010  Biso   1.000  H
  H53      1.0000 0.69280  0.26190  0.55990  Biso   1.000  H
  H54      1.0000 0.98810  0.44280  0.30990  Biso   1.000  H
  H55      1.0000 0.19280  0.76190  0.05990  Biso   1.000  H
  H56      1.0000 0.80720  0.73810  0.05990  Biso   1.000  H
  H57      1.0000 0.51190  0.05720  0.30990  Biso   1.000  H
  H58      1.0000 0.30720  0.23810  0.55990  Biso   1.000  H
  H59      1.0000 0.30720  0.73810  0.44010  Biso   1.000  H
  H60      1.0000 0.80720  0.23810  0.94010  Biso   1.000  H
  C109     1.0000 0.11910  0.25970  0.90222  Biso   1.000  C
  C110     1.0000 0.99030  0.36910  0.15222  Biso   1.000  C
  C111     1.0000 0.61910  0.75970  0.40222  Biso   1.000  C
  C112     1.0000 0.50970  0.13090  0.15222  Biso   1.000  C
  C113     1.0000 0.61910  0.25970  0.59778  Biso   1.000  C
  C114     1.0000 0.99030  0.36910  0.34778  Biso   1.000  C
  C115     1.0000 0.11910  0.75970  0.09778  Biso   1.000  C
  C116     1.0000 0.88090  0.74030  0.09778  Biso   1.000  C
  C117     1.0000 0.50970  0.13090  0.34778  Biso   1.000  C
  C118     1.0000 0.38090  0.24030  0.59778  Biso   1.000  C
  C119     1.0000 0.38090  0.74030  0.40222  Biso   1.000  C
  C120     1.0000 0.88090  0.24030  0.90222  Biso   1.000  C
  H61      1.0000 0.11090  0.19120  0.90160  Biso   1.000  H
  H62      1.0000 0.05880  0.36090  0.15160  Biso   1.000  H
  H63      1.0000 0.61090  0.69120  0.40160  Biso   1.000  H
  H64      1.0000 0.44120  0.13910  0.15160  Biso   1.000  H
  H65      1.0000 0.61090  0.19120  0.59840  Biso   1.000  H
  H66      1.0000 0.05880  0.36090  0.34840  Biso   1.000  H
  H67      1.0000 0.11090  0.69120  0.09840  Biso   1.000  H
  H68      1.0000 0.88910  0.80880  0.09840  Biso   1.000  H
  H69      1.0000 0.44120  0.13910  0.34840  Biso   1.000  H
  H70      1.0000 0.38910  0.30880  0.59840  Biso   1.000  H
  H71      1.0000 0.38910  0.80880  0.40160  Biso   1.000  H
  H72      1.0000 0.88910  0.30880  0.90160  Biso   1.000  H
  C121     1.0000 0.09900  0.41290  0.88179  Biso   1.000  C
  C122     1.0000 0.83710  0.34900  0.13179  Biso   1.000  C
  C123     1.0000 0.59900  0.91290  0.38179  Biso   1.000  C
  C124     1.0000 0.66290  0.15100  0.13179  Biso   1.000  C
  C125     1.0000 0.59900  0.41290  0.61821  Biso   1.000  C
  C126     1.0000 0.83710  0.34900  0.36821  Biso   1.000  C
  C127     1.0000 0.09900  0.91290  0.11821  Biso   1.000  C
  C128     1.0000 0.90100  0.58710  0.11821  Biso   1.000  C
  C129     1.0000 0.66290  0.15100  0.36821  Biso   1.000  C
  C130     1.0000 0.40100  0.08710  0.61821  Biso   1.000  C
  C131     1.0000 0.40100  0.58710  0.38179  Biso   1.000  C
  C132     1.0000 0.90100  0.08710  0.88179  Biso   1.000  C
  H73      1.0000 0.07680  0.45200  0.86650  Biso   1.000  H
  H74      1.0000 0.79800  0.32680  0.11650  Biso   1.000  H
  H75      1.0000 0.57680  0.95200  0.36650  Biso   1.000  H
  H76      1.0000 0.70200  0.17320  0.11650  Biso   1.000  H
  H77      1.0000 0.57680  0.45200  0.63350  Biso   1.000  H
  H78      1.0000 0.79800  0.32680  0.38350  Biso   1.000  H
  H79      1.0000 0.07680  0.95200  0.13350  Biso   1.000  H
  H80      1.0000 0.92320  0.54800  0.13350  Biso   1.000  H
  H81      1.0000 0.70200  0.17320  0.38350  Biso   1.000  H
  H82      1.0000 0.42320  0.04800  0.63350  Biso   1.000  H
  H83      1.0000 0.42320  0.54800  0.36650  Biso   1.000  H
  H84      1.0000 0.92320  0.04800  0.86650  Biso   1.000  H
  C133     1.0000 0.14770  0.45790  0.90387  Biso   1.000  C
  C134     1.0000 0.79210  0.39770  0.15387  Biso   1.000  C
  C135     1.0000 0.64770  0.95790  0.40387  Biso   1.000  C
  C136     1.0000 0.70790  0.10230  0.15387  Biso   1.000  C
  C137     1.0000 0.64770  0.45790  0.59613  Biso   1.000  C
  C138     1.0000 0.79210  0.39770  0.34613  Biso   1.000  C
  C139     1.0000 0.14770  0.95790  0.09613  Biso   1.000  C
  C140     1.0000 0.85230  0.54210  0.09613  Biso   1.000  C
  C141     1.0000 0.70790  0.10230  0.34613  Biso   1.000  C
  C142     1.0000 0.35230  0.04210  0.59613  Biso   1.000  C
  C143     1.0000 0.35230  0.54210  0.40387  Biso   1.000  C
  C144     1.0000 0.85230  0.04210  0.90387  Biso   1.000  C
  H85      1.0000 0.15500  0.52650  0.90420  Biso   1.000  H
  H86      1.0000 0.72350  0.40500  0.15420  Biso   1.000  H
  H87      1.0000 0.65500  0.02650  0.40420  Biso   1.000  H
  H88      1.0000 0.77650  0.09500  0.15420  Biso   1.000  H
  H89      1.0000 0.65500  0.52650  0.59580  Biso   1.000  H
  H90      1.0000 0.72350  0.40500  0.34580  Biso   1.000  H
  H91      1.0000 0.15500  0.02650  0.09580  Biso   1.000  H
  H92      1.0000 0.84500  0.47350  0.09580  Biso   1.000  H
  H93      1.0000 0.77650  0.09500  0.34580  Biso   1.000  H
  H94      1.0000 0.34500  0.97350  0.59580  Biso   1.000  H
  H95      1.0000 0.34500  0.47350  0.40420  Biso   1.000  H
  H96      1.0000 0.84500  0.97350  0.90420  Biso   1.000  H
  Cl1      1.0000 0.50000  0.25000  0.94056  Biso   1.000  Cl
  Cl2      1.0000 0.00000  0.75000  0.19056  Biso   1.000  Cl
  Cl3      1.0000 0.00000  0.75000  0.44056  Biso   1.000  Cl
  Cl4      1.0000 0.50000  0.75000  0.19056  Biso   1.000  Cl
  Cl5      1.0000 0.00000  0.25000  0.55944  Biso   1.000  Cl
  Cl6      1.0000 0.00000  0.75000  0.30944  Biso   1.000  Cl
  Cl7      1.0000 0.50000  0.75000  0.05944  Biso   1.000  Cl
  Cl8      1.0000 0.50000  0.75000  0.30944  Biso   1.000  Cl
  O25      1.0000 0.54360  0.15830  0.93710  Biso   1.000  O
  O26      1.0000 0.09170  0.79360  0.18710  Biso   1.000  O
  O27      1.0000 0.04360  0.65830  0.43710  Biso   1.000  O
  O28      1.0000 0.40830  0.70640  0.18710  Biso   1.000  O
  O29      1.0000 0.04360  0.15830  0.56290  Biso   1.000  O
  O30      1.0000 0.09170  0.79360  0.31290  Biso   1.000  O
  O31      1.0000 0.54360  0.65830  0.06290  Biso   1.000  O
  O32      1.0000 0.45640  0.84170  0.06290  Biso   1.000  O
  O33      1.0000 0.40830  0.70640  0.31290  Biso   1.000  O
  O34      1.0000 0.95640  0.34170  0.56290  Biso   1.000  O
  O35      1.0000 0.95640  0.84170  0.43710  Biso   1.000  O
  O36      1.0000 0.45640  0.34170  0.93710  Biso   1.000  O
  O37      1.0000 0.59200  0.28400  0.93070  Biso   1.000  O
  O38      1.0000 0.96600  0.84200  0.18070  Biso   1.000  O
  O39      1.0000 0.09200  0.78400  0.43070  Biso   1.000  O
  O40      1.0000 0.53400  0.65800  0.18070  Biso   1.000  O
  O41      1.0000 0.09200  0.28400  0.56930  Biso   1.000  O
  O42      1.0000 0.96600  0.84200  0.31930  Biso   1.000  O
  O43      1.0000 0.59200  0.78400  0.06930  Biso   1.000  O
  O44      1.0000 0.40800  0.71600  0.06930  Biso   1.000  O
  O45      1.0000 0.53400  0.65800  0.31930  Biso   1.000  O
  O46      1.0000 0.90800  0.21600  0.56930  Biso   1.000  O
  O47      1.0000 0.90800  0.71600  0.43070  Biso   1.000  O
  O48      1.0000 0.40800  0.21600  0.93070  Biso   1.000  O
  O49      1.0000 0.51700  0.30250  0.97020  Biso   1.000  O
  O50      1.0000 0.94750  0.76700  0.22020  Biso   1.000  O
  O51      1.0000 0.01700  0.80250  0.47020  Biso   1.000  O
  O52      1.0000 0.55250  0.73300  0.22020  Biso   1.000  O
  O53      1.0000 0.01700  0.30250  0.52980  Biso   1.000  O
  O54      1.0000 0.94750  0.76700  0.27980  Biso   1.000  O
  O55      1.0000 0.51700  0.80250  0.02980  Biso   1.000  O
  O56      1.0000 0.48300  0.69750  0.02980  Biso   1.000  O
  O57      1.0000 0.55250  0.73300  0.27980  Biso   1.000  O
  O58      1.0000 0.98300  0.19750  0.52980  Biso   1.000  O
  O59      1.0000 0.98300  0.69750  0.47020  Biso   1.000  O
  O60      1.0000 0.48300  0.19750  0.97020  Biso   1.000  O
  O61      1.0000 0.41000  0.93480  0.11660  Biso   1.000  O
  O62      1.0000 0.31520  0.66000  0.36660  Biso   1.000  O
  O63      1.0000 0.91000  0.43480  0.61660  Biso   1.000  O
  O64      1.0000 0.18480  0.84000  0.36660  Biso   1.000  O
  O65      1.0000 0.91000  0.93480  0.38340  Biso   1.000  O
  O66      1.0000 0.31520  0.66000  0.13340  Biso   1.000  O
  O67      1.0000 0.41000  0.43480  0.88340  Biso   1.000  O
  O68      1.0000 0.59000  0.06520  0.88340  Biso   1.000  O
  O69      1.0000 0.18480  0.84000  0.13340  Biso   1.000  O
  O70      1.0000 0.09000  0.56520  0.38340  Biso   1.000  O
  O71      1.0000 0.09000  0.06520  0.61660  Biso   1.000  O
  O72      1.0000 0.59000  0.56520  0.11660  Biso   1.000  O
  O73      1.0000 0.13390  0.48600  0.06940  Biso   1.000  O
  O74      1.0000 0.76400  0.38390  0.31940  Biso   1.000  O
  O75      1.0000 0.63390  0.98600  0.56940  Biso   1.000  O
  O76      1.0000 0.73600  0.11610  0.31940  Biso   1.000  O
  O77      1.0000 0.63390  0.48600  0.43060  Biso   1.000  O
  O78      1.0000 0.76400  0.38390  0.18060  Biso   1.000  O
  O79      1.0000 0.13390  0.98600  0.93060  Biso   1.000  O
  O80      1.0000 0.86610  0.51400  0.93060  Biso   1.000  O
  O81      1.0000 0.73600  0.11610  0.18060  Biso   1.000  O
  O82      1.0000 0.36610  0.01400  0.43060  Biso   1.000  O
  O83      1.0000 0.36610  0.51400  0.56940  Biso   1.000  O
  O84      1.0000 0.86610  0.01400  0.06940  Biso   1.000  O
  O85      1.0000 0.00000  0.75000  0.87500  Biso   1.000  O
  O86      1.0000 0.50000  0.25000  0.12500  Biso   1.000  O
  O87      1.0000 0.50000  0.25000  0.37500  Biso   1.000  O
  O88      1.0000 0.00000  0.25000  0.12500  Biso   1.000  O
  O89      1.0000 0.50000  0.75000  0.62500  Biso   1.000  O
  O90      1.0000 0.00000  0.25000  0.37500  Biso   1.000  O
  O91      1.0000 0.17450  0.71500  0.91450  Biso   1.000  O
  O92      1.0000 0.53500  0.42450  0.16450  Biso   1.000  O
  O93      1.0000 0.67450  0.21500  0.41450  Biso   1.000  O
  O94      1.0000 0.96500  0.07550  0.16450  Biso   1.000  O
  O95      1.0000 0.67450  0.71500  0.58550  Biso   1.000  O
  O96      1.0000 0.53500  0.42450  0.33550  Biso   1.000  O
  O97      1.0000 0.17450  0.21500  0.08550  Biso   1.000  O
  O98      1.0000 0.82550  0.28500  0.08550  Biso   1.000  O
  O99      1.0000 0.96500  0.07550  0.33550  Biso   1.000  O
  O100     1.0000 0.32550  0.78500  0.58550  Biso   1.000  O
  O101     1.0000 0.32550  0.28500  0.41450  Biso   1.000  O
  O102     1.0000 0.82550  0.78500  0.91450  Biso   1.000  O
  O103     1.0000 0.90830  0.70640  0.18710  Biso   1.000  O
  O104     1.0000 0.59170  0.79360  0.18710  Biso   1.000  O
  O105     1.0000 0.90830  0.70640  0.31290  Biso   1.000  O
  O106     1.0000 0.59170  0.79360  0.31290  Biso   1.000  O
  O107     1.0000 0.03400  0.65800  0.18070  Biso   1.000  O
  O108     1.0000 0.46600  0.84200  0.18070  Biso   1.000  O
  O109     1.0000 0.03400  0.65800  0.31930  Biso   1.000  O
  O110     1.0000 0.46600  0.84200  0.31930  Biso   1.000  O
  O111     1.0000 0.88140  0.88880  0.35209  Biso   1.000  O
  O112     1.0000 0.61860  0.61120  0.35209  Biso   1.000  O
  O113     1.0000 0.88140  0.88880  0.14791  Biso   1.000  O
  O114     1.0000 0.61860  0.61120  0.14791  Biso   1.000  O
  O115     1.0000 0.13560  0.98690  0.22276  Biso   1.000  O
  O116     1.0000 0.36440  0.51310  0.22276  Biso   1.000  O
  O117     1.0000 0.13560  0.98690  0.27724  Biso   1.000  O
  O118     1.0000 0.36440  0.51310  0.27724  Biso   1.000  O
  N49      1.0000 0.07200  0.82360  0.31746  Biso   1.000  N
  N50      1.0000 0.42800  0.67640  0.31746  Biso   1.000  N
  N51      1.0000 0.07200  0.82360  0.18254  Biso   1.000  N
  N52      1.0000 0.42800  0.67640  0.18254  Biso   1.000  N
  N53      1.0000 0.28270  0.92340  0.22915  Biso   1.000  N
  N54      1.0000 0.21730  0.57660  0.22915  Biso   1.000  N
  N55      1.0000 0.28270  0.92340  0.27085  Biso   1.000  N
  N56      1.0000 0.21730  0.57660  0.27085  Biso   1.000  N
  N57      1.0000 0.27970  0.97320  0.20275  Biso   1.000  N
  N58      1.0000 0.22030  0.52680  0.20275  Biso   1.000  N
  N59      1.0000 0.27970  0.97320  0.29725  Biso   1.000  N
  N60      1.0000 0.22030  0.52680  0.29725  Biso   1.000  N
  N61      1.0000 0.06580  0.16870  0.13077  Biso   1.000  N
  N62      1.0000 0.43420  0.33130  0.13077  Biso   1.000  N
  N63      1.0000 0.06580  0.16870  0.36923  Biso   1.000  N
  N64      1.0000 0.43420  0.33130  0.36923  Biso   1.000  N
  C145     1.0000 0.01690  0.87260  0.29771  Biso   1.000  C
  C146     1.0000 0.48310  0.62740  0.29771  Biso   1.000  C
  C147     1.0000 0.01690  0.87260  0.20229  Biso   1.000  C
  C148     1.0000 0.48310  0.62740  0.20229  Biso   1.000  C
  H97      1.0000 0.94960  0.88220  0.30120  Biso   1.000  H
  H98      1.0000 0.55040  0.61780  0.30120  Biso   1.000  H
  H99      1.0000 0.94960  0.88220  0.19880  Biso   1.000  H
  H100     1.0000 0.55040  0.61780  0.19880  Biso   1.000  H
  C149     1.0000 0.05720  0.90860  0.27267  Biso   1.000  C
  C150     1.0000 0.44280  0.59140  0.27267  Biso   1.000  C
  C151     1.0000 0.05720  0.90860  0.22733  Biso   1.000  C
  C152     1.0000 0.44280  0.59140  0.22733  Biso   1.000  C
  H101     1.0000 0.01670  0.94070  0.25930  Biso   1.000  H
  H102     1.0000 0.48330  0.55930  0.25930  Biso   1.000  H
  H103     1.0000 0.01670  0.94070  0.24070  Biso   1.000  H
  H104     1.0000 0.48330  0.55930  0.24070  Biso   1.000  H
  C153     1.0000 0.15490  0.89840  0.26697  Biso   1.000  C
  C154     1.0000 0.34510  0.60160  0.26697  Biso   1.000  C
  C155     1.0000 0.15490  0.89840  0.23303  Biso   1.000  C
  C156     1.0000 0.34510  0.60160  0.23303  Biso   1.000  C
  C157     1.0000 0.21420  0.85190  0.28757  Biso   1.000  C
  C158     1.0000 0.28580  0.64810  0.28757  Biso   1.000  C
  C159     1.0000 0.21420  0.85190  0.21243  Biso   1.000  C
  C160     1.0000 0.28580  0.64810  0.21243  Biso   1.000  C
  H105     1.0000 0.28220  0.84530  0.28480  Biso   1.000  H
  H106     1.0000 0.21780  0.65470  0.28480  Biso   1.000  H
  H107     1.0000 0.28220  0.84530  0.21520  Biso   1.000  H
  H108     1.0000 0.21780  0.65470  0.21520  Biso   1.000  H
  C161     1.0000 0.16940  0.81620  0.31210  Biso   1.000  C
  C162     1.0000 0.33060  0.68380  0.31210  Biso   1.000  C
  C163     1.0000 0.16940  0.81620  0.18790  Biso   1.000  C
  C164     1.0000 0.33060  0.68380  0.18790  Biso   1.000  C
  H109     1.0000 0.20900  0.78480  0.32580  Biso   1.000  H
  H110     1.0000 0.29100  0.71520  0.32580  Biso   1.000  H
  H111     1.0000 0.20900  0.78480  0.17420  Biso   1.000  H
  H112     1.0000 0.29100  0.71520  0.17420  Biso   1.000  H
  C165     1.0000 0.19580  0.93520  0.24032  Biso   1.000  C
  C166     1.0000 0.30420  0.56480  0.24032  Biso   1.000  C
  C167     1.0000 0.19580  0.93520  0.25968  Biso   1.000  C
  C168     1.0000 0.30420  0.56480  0.25968  Biso   1.000  C
  C169     1.0000 0.19600  0.00920  0.19984  Biso   1.000  C
  C170     1.0000 0.30400  0.49080  0.19984  Biso   1.000  C
  C171     1.0000 0.19600  0.00920  0.30016  Biso   1.000  C
  C172     1.0000 0.30400  0.49080  0.30016  Biso   1.000  C
  C173     1.0000 0.15050  0.06370  0.17592  Biso   1.000  C
  C174     1.0000 0.34950  0.43630  0.17592  Biso   1.000  C
  C175     1.0000 0.15050  0.06370  0.32408  Biso   1.000  C
  C176     1.0000 0.34950  0.43630  0.32408  Biso   1.000  C
  C177     1.0000 0.05190  0.08020  0.17511  Biso   1.000  C
  C178     1.0000 0.44810  0.41980  0.17511  Biso   1.000  C
  C179     1.0000 0.05190  0.08020  0.32489  Biso   1.000  C
  C180     1.0000 0.44810  0.41980  0.32489  Biso   1.000  C
  H113     1.0000 0.01190  0.05720  0.19010  Biso   1.000  H
  H114     1.0000 0.48810  0.44280  0.19010  Biso   1.000  H
  H115     1.0000 0.01190  0.05720  0.30990  Biso   1.000  H
  H116     1.0000 0.48810  0.44280  0.30990  Biso   1.000  H
  C181     1.0000 0.00970  0.13090  0.15222  Biso   1.000  C
  C182     1.0000 0.49030  0.36910  0.15222  Biso   1.000  C
  C183     1.0000 0.00970  0.13090  0.34778  Biso   1.000  C
  C184     1.0000 0.49030  0.36910  0.34778  Biso   1.000  C
  H117     1.0000 0.94120  0.13910  0.15160  Biso   1.000  H
  H118     1.0000 0.55880  0.36090  0.15160  Biso   1.000  H
  H119     1.0000 0.94120  0.13910  0.34840  Biso   1.000  H
  H120     1.0000 0.55880  0.36090  0.34840  Biso   1.000  H
  C185     1.0000 0.16290  0.15100  0.13179  Biso   1.000  C
  C186     1.0000 0.33710  0.34900  0.13179  Biso   1.000  C
  C187     1.0000 0.16290  0.15100  0.36821  Biso   1.000  C
  C188     1.0000 0.33710  0.34900  0.36821  Biso   1.000  C
  H121     1.0000 0.20200  0.17320  0.11650  Biso   1.000  H
  H122     1.0000 0.29800  0.32680  0.11650  Biso   1.000  H
  H123     1.0000 0.20200  0.17320  0.38350  Biso   1.000  H
  H124     1.0000 0.29800  0.32680  0.38350  Biso   1.000  H
  C189     1.0000 0.20790  0.10230  0.15387  Biso   1.000  C
  C190     1.0000 0.29210  0.39770  0.15387  Biso   1.000  C
  C191     1.0000 0.20790  0.10230  0.34613  Biso   1.000  C
  C192     1.0000 0.29210  0.39770  0.34613  Biso   1.000  C
  H125     1.0000 0.27650  0.09500  0.15420  Biso   1.000  H
  H126     1.0000 0.22350  0.40500  0.15420  Biso   1.000  H
  H127     1.0000 0.27650  0.09500  0.34580  Biso   1.000  H
  H128     1.0000 0.22350  0.40500  0.34580  Biso   1.000  H
  O119     1.0000 0.73690  0.61440  0.47276  Biso   1.000  O
  O120     1.0000 0.86440  0.01310  0.72276  Biso   1.000  O
  O121     1.0000 0.36440  0.01310  0.77724  Biso   1.000  O
  O122     1.0000 0.63560  0.48690  0.77724  Biso   1.000  O
  O123     1.0000 0.76310  0.88560  0.02724  Biso   1.000  O
  O124     1.0000 0.13560  0.48690  0.72276  Biso   1.000  O
  N65      1.0000 0.57360  0.67800  0.56746  Biso   1.000  N
  N66      1.0000 0.92800  0.17640  0.81746  Biso   1.000  N
  N67      1.0000 0.42800  0.17640  0.68254  Biso   1.000  N
  N68      1.0000 0.57200  0.32360  0.68254  Biso   1.000  N
  N69      1.0000 0.92640  0.82200  0.93254  Biso   1.000  N
  N70      1.0000 0.07200  0.32360  0.81746  Biso   1.000  N
  N71      1.0000 0.67340  0.46730  0.47915  Biso   1.000  N
  N72      1.0000 0.71730  0.07660  0.72915  Biso   1.000  N
  N73      1.0000 0.21730  0.07660  0.77085  Biso   1.000  N
  N74      1.0000 0.78270  0.42340  0.77085  Biso   1.000  N
  N75      1.0000 0.82660  0.03270  0.02085  Biso   1.000  N
  N76      1.0000 0.28270  0.42340  0.72915  Biso   1.000  N
  N77      1.0000 0.72320  0.47030  0.45275  Biso   1.000  N
  N78      1.0000 0.72030  0.02680  0.70275  Biso   1.000  N
  N79      1.0000 0.22030  0.02680  0.79725  Biso   1.000  N
  N80      1.0000 0.77970  0.47320  0.79725  Biso   1.000  N
  N81      1.0000 0.77680  0.02970  0.04725  Biso   1.000  N
  N82      1.0000 0.27970  0.47320  0.70275  Biso   1.000  N
  N83      1.0000 0.91870  0.68420  0.38077  Biso   1.000  N
  N84      1.0000 0.93420  0.83130  0.63077  Biso   1.000  N
  N85      1.0000 0.43420  0.83130  0.86923  Biso   1.000  N
  N86      1.0000 0.56580  0.66870  0.86923  Biso   1.000  N
  N87      1.0000 0.58130  0.81580  0.11923  Biso   1.000  N
  N88      1.0000 0.06580  0.66870  0.63077  Biso   1.000  N
  C193     1.0000 0.62260  0.73310  0.54771  Biso   1.000  C
  C194     1.0000 0.98310  0.12740  0.79771  Biso   1.000  C
  C195     1.0000 0.48310  0.12740  0.70229  Biso   1.000  C
  C196     1.0000 0.51690  0.37260  0.70229  Biso   1.000  C
  C197     1.0000 0.87740  0.76690  0.95229  Biso   1.000  C
  C198     1.0000 0.01690  0.37260  0.79771  Biso   1.000  C
  H129     1.0000 0.63220  0.80040  0.55120  Biso   1.000  H
  H130     1.0000 0.05040  0.11780  0.80120  Biso   1.000  H
  H131     1.0000 0.55040  0.11780  0.69880  Biso   1.000  H
  H132     1.0000 0.44960  0.38220  0.69880  Biso   1.000  H
  H133     1.0000 0.86780  0.69960  0.94880  Biso   1.000  H
  H134     1.0000 0.94960  0.38220  0.80120  Biso   1.000  H
  C199     1.0000 0.65860  0.69280  0.52267  Biso   1.000  C
  C200     1.0000 0.94280  0.09140  0.77267  Biso   1.000  C
  C201     1.0000 0.44280  0.09140  0.72733  Biso   1.000  C
  C202     1.0000 0.55720  0.40860  0.72733  Biso   1.000  C
  C203     1.0000 0.84140  0.80720  0.97733  Biso   1.000  C
  C204     1.0000 0.05720  0.40860  0.77267  Biso   1.000  C
  H135     1.0000 0.69070  0.73330  0.50930  Biso   1.000  H
  H136     1.0000 0.98330  0.05930  0.75930  Biso   1.000  H
  H137     1.0000 0.48330  0.05930  0.74070  Biso   1.000  H
  H138     1.0000 0.51670  0.44070  0.74070  Biso   1.000  H
  H139     1.0000 0.80930  0.76670  0.99070  Biso   1.000  H
  H140     1.0000 0.01670  0.44070  0.75930  Biso   1.000  H
  C205     1.0000 0.64840  0.59510  0.51697  Biso   1.000  C
  C206     1.0000 0.84510  0.10160  0.76697  Biso   1.000  C
  C207     1.0000 0.34510  0.10160  0.73303  Biso   1.000  C
  C208     1.0000 0.65490  0.39840  0.73303  Biso   1.000  C
  C209     1.0000 0.85160  0.90490  0.98303  Biso   1.000  C
  C210     1.0000 0.15490  0.39840  0.76697  Biso   1.000  C
  C211     1.0000 0.60190  0.53580  0.53757  Biso   1.000  C
  C212     1.0000 0.78580  0.14810  0.78757  Biso   1.000  C
  C213     1.0000 0.28580  0.14810  0.71243  Biso   1.000  C
  C214     1.0000 0.71420  0.35190  0.71243  Biso   1.000  C
  C215     1.0000 0.89810  0.96420  0.96243  Biso   1.000  C
  C216     1.0000 0.21420  0.35190  0.78757  Biso   1.000  C
  H141     1.0000 0.59530  0.46780  0.53480  Biso   1.000  H
  H142     1.0000 0.71780  0.15470  0.78480  Biso   1.000  H
  H143     1.0000 0.21780  0.15470  0.71520  Biso   1.000  H
  H144     1.0000 0.78220  0.34530  0.71520  Biso   1.000  H
  H145     1.0000 0.90470  0.03220  0.96520  Biso   1.000  H
  H146     1.0000 0.28220  0.34530  0.78480  Biso   1.000  H
  C217     1.0000 0.56620  0.58060  0.56210  Biso   1.000  C
  C218     1.0000 0.83060  0.18380  0.81210  Biso   1.000  C
  C219     1.0000 0.33060  0.18380  0.68790  Biso   1.000  C
  C220     1.0000 0.66940  0.31620  0.68790  Biso   1.000  C
  C221     1.0000 0.93380  0.91940  0.93790  Biso   1.000  C
  C222     1.0000 0.16940  0.31620  0.81210  Biso   1.000  C
  H147     1.0000 0.53480  0.54100  0.57580  Biso   1.000  H
  H148     1.0000 0.79100  0.21520  0.82580  Biso   1.000  H
  H149     1.0000 0.29100  0.21520  0.67420  Biso   1.000  H
  H150     1.0000 0.70900  0.28480  0.67420  Biso   1.000  H
  H151     1.0000 0.96520  0.95900  0.92420  Biso   1.000  H
  H152     1.0000 0.20900  0.28480  0.82580  Biso   1.000  H
  C223     1.0000 0.68520  0.55420  0.49032  Biso   1.000  C
  C224     1.0000 0.80420  0.06480  0.74032  Biso   1.000  C
  C225     1.0000 0.30420  0.06480  0.75968  Biso   1.000  C
  C226     1.0000 0.69580  0.43520  0.75968  Biso   1.000  C
  C227     1.0000 0.81480  0.94580  0.00968  Biso   1.000  C
  C228     1.0000 0.19580  0.43520  0.74032  Biso   1.000  C
  C229     1.0000 0.75920  0.55400  0.44984  Biso   1.000  C
  C230     1.0000 0.80400  0.99080  0.69984  Biso   1.000  C
  C231     1.0000 0.30400  0.99080  0.80016  Biso   1.000  C
  C232     1.0000 0.69600  0.50920  0.80016  Biso   1.000  C
  C233     1.0000 0.74080  0.94600  0.05016  Biso   1.000  C
  C234     1.0000 0.19600  0.50920  0.69984  Biso   1.000  C
  C235     1.0000 0.81370  0.59950  0.42592  Biso   1.000  C
  C236     1.0000 0.84950  0.93630  0.67592  Biso   1.000  C
  C237     1.0000 0.34950  0.93630  0.82408  Biso   1.000  C
  C238     1.0000 0.65050  0.56370  0.82408  Biso   1.000  C
  C239     1.0000 0.68630  0.90050  0.07408  Biso   1.000  C
  C240     1.0000 0.15050  0.56370  0.67592  Biso   1.000  C
  C241     1.0000 0.83020  0.69810  0.42511  Biso   1.000  C
  C242     1.0000 0.94810  0.91980  0.67511  Biso   1.000  C
  C243     1.0000 0.44810  0.91980  0.82489  Biso   1.000  C
  C244     1.0000 0.55190  0.58020  0.82489  Biso   1.000  C
  C245     1.0000 0.66980  0.80190  0.07489  Biso   1.000  C
  C246     1.0000 0.05190  0.58020  0.67511  Biso   1.000  C
  H153     1.0000 0.80720  0.73810  0.44010  Biso   1.000  H
  H154     1.0000 0.98810  0.94280  0.69010  Biso   1.000  H
  H155     1.0000 0.48810  0.94280  0.80990  Biso   1.000  H
  H156     1.0000 0.51190  0.55720  0.80990  Biso   1.000  H
  H157     1.0000 0.69280  0.76190  0.05990  Biso   1.000  H
  H158     1.0000 0.01190  0.55720  0.69010  Biso   1.000  H
  C247     1.0000 0.88090  0.74030  0.40222  Biso   1.000  C
  C248     1.0000 0.99030  0.86910  0.65222  Biso   1.000  C
  C249     1.0000 0.49030  0.86910  0.84778  Biso   1.000  C
  C250     1.0000 0.50970  0.63090  0.84778  Biso   1.000  C
  C251     1.0000 0.61910  0.75970  0.09778  Biso   1.000  C
  C252     1.0000 0.00970  0.63090  0.65222  Biso   1.000  C
  H159     1.0000 0.88910  0.80880  0.40160  Biso   1.000  H
  H160     1.0000 0.05880  0.86090  0.65160  Biso   1.000  H
  H161     1.0000 0.55880  0.86090  0.84840  Biso   1.000  H
  H162     1.0000 0.44120  0.63910  0.84840  Biso   1.000  H
  H163     1.0000 0.61090  0.69120  0.09840  Biso   1.000  H
  H164     1.0000 0.94120  0.63910  0.65160  Biso   1.000  H
  C253     1.0000 0.90100  0.58710  0.38179  Biso   1.000  C
  C254     1.0000 0.83710  0.84900  0.63179  Biso   1.000  C
  C255     1.0000 0.33710  0.84900  0.86821  Biso   1.000  C
  C256     1.0000 0.66290  0.65100  0.86821  Biso   1.000  C
  C257     1.0000 0.59900  0.91290  0.11821  Biso   1.000  C
  C258     1.0000 0.16290  0.65100  0.63179  Biso   1.000  C
  H165     1.0000 0.92320  0.54800  0.36650  Biso   1.000  H
  H166     1.0000 0.79800  0.82680  0.61650  Biso   1.000  H
  H167     1.0000 0.29800  0.82680  0.88350  Biso   1.000  H
  H168     1.0000 0.70200  0.67320  0.88350  Biso   1.000  H
  H169     1.0000 0.57680  0.95200  0.13350  Biso   1.000  H
  H170     1.0000 0.20200  0.67320  0.61650  Biso   1.000  H
  C259     1.0000 0.85230  0.54210  0.40387  Biso   1.000  C
  C260     1.0000 0.79210  0.89770  0.65387  Biso   1.000  C
  C261     1.0000 0.29210  0.89770  0.84613  Biso   1.000  C
  C262     1.0000 0.70790  0.60230  0.84613  Biso   1.000  C
  C263     1.0000 0.64770  0.95790  0.09613  Biso   1.000  C
  C264     1.0000 0.20790  0.60230  0.65387  Biso   1.000  C
  H171     1.0000 0.84500  0.47350  0.40420  Biso   1.000  H
  H172     1.0000 0.72350  0.90500  0.65420  Biso   1.000  H
  H173     1.0000 0.22350  0.90500  0.84580  Biso   1.000  H
  H174     1.0000 0.77650  0.59500  0.84580  Biso   1.000  H
  H175     1.0000 0.65500  0.02650  0.09580  Biso   1.000  H
  H176     1.0000 0.27650  0.59500  0.65420  Biso   1.000  H
  O125     1.0000 0.26310  0.88560  0.47276  Biso   1.000  O
  O126     1.0000 0.23690  0.61440  0.02724  Biso   1.000  O
  N89      1.0000 0.42640  0.82200  0.56746  Biso   1.000  N
  N90      1.0000 0.07360  0.67800  0.93254  Biso   1.000  N
  N91      1.0000 0.32660  0.03270  0.47915  Biso   1.000  N
  N92      1.0000 0.17340  0.46730  0.02085  Biso   1.000  N
  N93      1.0000 0.27680  0.02970  0.45275  Biso   1.000  N
  N94      1.0000 0.22320  0.47030  0.04725  Biso   1.000  N
  N95      1.0000 0.08130  0.81580  0.38077  Biso   1.000  N
  N96      1.0000 0.41870  0.68420  0.11923  Biso   1.000  N
  C265     1.0000 0.37740  0.76690  0.54771  Biso   1.000  C
  C266     1.0000 0.12260  0.73310  0.95229  Biso   1.000  C
  H177     1.0000 0.36780  0.69960  0.55120  Biso   1.000  H
  H178     1.0000 0.13220  0.80040  0.94880  Biso   1.000  H
  C267     1.0000 0.34140  0.80720  0.52267  Biso   1.000  C
  C268     1.0000 0.15860  0.69280  0.97733  Biso   1.000  C
  H179     1.0000 0.30930  0.76670  0.50930  Biso   1.000  H
  H180     1.0000 0.19070  0.73330  0.99070  Biso   1.000  H
  C269     1.0000 0.35160  0.90490  0.51697  Biso   1.000  C
  C270     1.0000 0.14840  0.59510  0.98303  Biso   1.000  C
  C271     1.0000 0.39810  0.96420  0.53757  Biso   1.000  C
  C272     1.0000 0.10190  0.53580  0.96243  Biso   1.000  C
  H181     1.0000 0.40470  0.03220  0.53480  Biso   1.000  H
  H182     1.0000 0.09530  0.46780  0.96520  Biso   1.000  H
  C273     1.0000 0.43380  0.91940  0.56210  Biso   1.000  C
  C274     1.0000 0.06620  0.58060  0.93790  Biso   1.000  C
  H183     1.0000 0.46520  0.95900  0.57580  Biso   1.000  H
  H184     1.0000 0.03480  0.54100  0.92420  Biso   1.000  H
  C275     1.0000 0.31480  0.94580  0.49032  Biso   1.000  C
  C276     1.0000 0.18520  0.55420  0.00968  Biso   1.000  C
  C277     1.0000 0.24080  0.94600  0.44984  Biso   1.000  C
  C278     1.0000 0.25920  0.55400  0.05016  Biso   1.000  C
  C279     1.0000 0.18630  0.90050  0.42592  Biso   1.000  C
  C280     1.0000 0.31370  0.59950  0.07408  Biso   1.000  C
  C281     1.0000 0.16980  0.80190  0.42511  Biso   1.000  C
  C282     1.0000 0.33020  0.69810  0.07489  Biso   1.000  C
  H185     1.0000 0.19280  0.76190  0.44010  Biso   1.000  H
  H186     1.0000 0.30720  0.73810  0.05990  Biso   1.000  H
  C283     1.0000 0.11910  0.75970  0.40222  Biso   1.000  C
  C284     1.0000 0.38090  0.74030  0.09778  Biso   1.000  C
  H187     1.0000 0.11090  0.69120  0.40160  Biso   1.000  H
  H188     1.0000 0.38910  0.80880  0.09840  Biso   1.000  H
  C285     1.0000 0.09900  0.91290  0.38179  Biso   1.000  C
  C286     1.0000 0.40100  0.58710  0.11821  Biso   1.000  C
  H189     1.0000 0.07680  0.95200  0.36650  Biso   1.000  H
  H190     1.0000 0.42320  0.54800  0.13350  Biso   1.000  H
  C287     1.0000 0.14770  0.95790  0.40387  Biso   1.000  C
  C288     1.0000 0.35230  0.54210  0.09613  Biso   1.000  C
  H191     1.0000 0.15500  0.02650  0.40420  Biso   1.000  H
  H192     1.0000 0.34500  0.47350  0.09580  Biso   1.000  H
  Cu9      1.0000 0.50000  0.75000  0.59952  Biso   1.000  Cu
  Cu10     1.0000 0.00000  0.25000  0.84952  Biso   1.000  Cu
  Cu11     1.0000 0.50000  0.25000  0.65048  Biso   1.000  Cu
  Cu12     1.0000 0.00000  0.75000  0.90048  Biso   1.000  Cu
  O127     1.0000 0.63880  0.86860  0.60209  Biso   1.000  O
  O128     1.0000 0.11860  0.11120  0.85209  Biso   1.000  O
  O129     1.0000 0.61860  0.11120  0.64791  Biso   1.000  O
  O130     1.0000 0.38140  0.38880  0.64791  Biso   1.000  O
  O131     1.0000 0.86120  0.63140  0.89791  Biso   1.000  O
  O132     1.0000 0.88140  0.38880  0.85209  Biso   1.000  O
  O133     1.0000 0.36120  0.63140  0.60209  Biso   1.000  O
  O134     1.0000 0.13880  0.86860  0.89791  Biso   1.000  O
  Cu13     1.0000 0.00000  0.25000  0.09952  Biso   1.000  Cu
  Cu14     1.0000 0.50000  0.25000  0.40048  Biso   1.000  Cu
  N97      1.0000 0.43420  0.83130  0.63077  Biso   1.000  N
  N98      1.0000 0.06580  0.66870  0.86923  Biso   1.000  N
  N99      1.0000 0.56580  0.66870  0.63077  Biso   1.000  N
  N100     1.0000 0.93420  0.83130  0.86923  Biso   1.000  N
