data_image0
_cell_length_a       18.6778
_cell_length_b       18.6778
_cell_length_c       59.7427
_cell_angle_alpha    90
_cell_angle_beta     90
_cell_angle_gamma    90

_symmetry_space_group_name_H-M    "P 1"
_symmetry_int_tables_number       1

loop_
  _symmetry_equiv_pos_as_xyz
  'x, y, z'

loop_
  _atom_site_label
  _atom_site_occupancy
  _atom_site_fract_x
  _atom_site_fract_y
  _atom_site_fract_z
  _atom_site_thermal_displace_type
  _atom_site_B_iso_or_equiv
  _atom_site_type_symbol
  Cu1      1.0000 0.00000  0.75000  0.96436  Biso   1.000  Cu
  Cu2      1.0000 0.50000  0.25000  0.46436  Biso   1.000  Cu
  Cu3      1.0000 0.00000  0.25000  0.21436  Biso   1.000  Cu
  Cu4      1.0000 0.50000  0.75000  0.71436  Biso   1.000  Cu
  Cu5      1.0000 0.00000  0.25000  0.03564  Biso   1.000  Cu
  Cu6      1.0000 0.50000  0.75000  0.53564  Biso   1.000  Cu
  Cu7      1.0000 0.50000  0.25000  0.28564  Biso   1.000  Cu
  Cu8      1.0000 0.00000  0.75000  0.78564  Biso   1.000  Cu
  Cu9      1.0000 0.50000  0.25000  0.96039  Biso   1.000  Cu
  Cu10     1.0000 0.00000  0.75000  0.46039  Biso   1.000  Cu
  Cu11     1.0000 0.50000  0.75000  0.21039  Biso   1.000  Cu
  Cu12     1.0000 0.00000  0.25000  0.71039  Biso   1.000  Cu
  Cu13     1.0000 0.50000  0.75000  0.03961  Biso   1.000  Cu
  Cu14     1.0000 0.00000  0.25000  0.53961  Biso   1.000  Cu
  Cu15     1.0000 0.00000  0.75000  0.28961  Biso   1.000  Cu
  Cu16     1.0000 0.50000  0.25000  0.78961  Biso   1.000  Cu
  Si1      1.0000 0.00000  0.75000  0.12709  Biso   1.000  Si
  Si2      1.0000 0.50000  0.25000  0.62709  Biso   1.000  Si
  Si3      1.0000 0.00000  0.25000  0.37709  Biso   1.000  Si
  Si4      1.0000 0.50000  0.75000  0.87709  Biso   1.000  Si
  Si5      1.0000 0.00000  0.25000  0.87291  Biso   1.000  Si
  Si6      1.0000 0.50000  0.75000  0.37291  Biso   1.000  Si
  Si7      1.0000 0.50000  0.25000  0.12291  Biso   1.000  Si
  Si8      1.0000 0.00000  0.75000  0.62291  Biso   1.000  Si
  W1       1.0000 0.94440  0.59630  0.09787  Biso   1.000  W
  W2       1.0000 0.55560  0.40370  0.59787  Biso   1.000  W
  W3       1.0000 0.15370  0.19440  0.34787  Biso   1.000  W
  W4       1.0000 0.34630  0.80560  0.84787  Biso   1.000  W
  W5       1.0000 0.44440  0.09630  0.59787  Biso   1.000  W
  W6       1.0000 0.05560  0.90370  0.09787  Biso   1.000  W
  W7       1.0000 0.65370  0.69440  0.84787  Biso   1.000  W
  W8       1.0000 0.84630  0.30560  0.34787  Biso   1.000  W
  W9       1.0000 0.05560  0.40370  0.90213  Biso   1.000  W
  W10      1.0000 0.44440  0.59630  0.40213  Biso   1.000  W
  W11      1.0000 0.34630  0.30560  0.15213  Biso   1.000  W
  W12      1.0000 0.15370  0.69440  0.65213  Biso   1.000  W
  W13      1.0000 0.55560  0.90370  0.40213  Biso   1.000  W
  W14      1.0000 0.94440  0.09630  0.90213  Biso   1.000  W
  W15      1.0000 0.84630  0.80560  0.65213  Biso   1.000  W
  W16      1.0000 0.65370  0.19440  0.15213  Biso   1.000  W
  W17      1.0000 0.00000  0.75000  0.06882  Biso   1.000  W
  W18      1.0000 0.50000  0.25000  0.56882  Biso   1.000  W
  W19      1.0000 0.00000  0.25000  0.31882  Biso   1.000  W
  W20      1.0000 0.50000  0.75000  0.81882  Biso   1.000  W
  W21      1.0000 0.00000  0.25000  0.93118  Biso   1.000  W
  W22      1.0000 0.50000  0.75000  0.43118  Biso   1.000  W
  W23      1.0000 0.50000  0.25000  0.18118  Biso   1.000  W
  W24      1.0000 0.00000  0.75000  0.68118  Biso   1.000  W
  W25      1.0000 0.16442  0.74845  0.09781  Biso   1.000  W
  W26      1.0000 0.33558  0.25155  0.59781  Biso   1.000  W
  W27      1.0000 0.00155  0.41442  0.34781  Biso   1.000  W
  W28      1.0000 0.49845  0.58558  0.84781  Biso   1.000  W
  W29      1.0000 0.66442  0.24845  0.59781  Biso   1.000  W
  W30      1.0000 0.83558  0.75155  0.09781  Biso   1.000  W
  W31      1.0000 0.50155  0.91442  0.84781  Biso   1.000  W
  W32      1.0000 0.99845  0.08558  0.34781  Biso   1.000  W
  W33      1.0000 0.83558  0.25155  0.90219  Biso   1.000  W
  W34      1.0000 0.66442  0.74845  0.40219  Biso   1.000  W
  W35      1.0000 0.49845  0.08558  0.15219  Biso   1.000  W
  W36      1.0000 0.00155  0.91442  0.65219  Biso   1.000  W
  W37      1.0000 0.33558  0.75155  0.40219  Biso   1.000  W
  W38      1.0000 0.16442  0.24845  0.90219  Biso   1.000  W
  W39      1.0000 0.99845  0.58558  0.65219  Biso   1.000  W
  W40      1.0000 0.50155  0.41442  0.15219  Biso   1.000  W
  W41      1.0000 0.10878  0.59637  0.12725  Biso   1.000  W
  W42      1.0000 0.39122  0.40363  0.62725  Biso   1.000  W
  W43      1.0000 0.15363  0.35878  0.37725  Biso   1.000  W
  W44      1.0000 0.34637  0.64122  0.87725  Biso   1.000  W
  W45      1.0000 0.60878  0.09637  0.62725  Biso   1.000  W
  W46      1.0000 0.89122  0.90363  0.12725  Biso   1.000  W
  W47      1.0000 0.65363  0.85878  0.87725  Biso   1.000  W
  W48      1.0000 0.84637  0.14122  0.37725  Biso   1.000  W
  W49      1.0000 0.89122  0.40363  0.87275  Biso   1.000  W
  W50      1.0000 0.60878  0.59637  0.37275  Biso   1.000  W
  W51      1.0000 0.34637  0.14122  0.12275  Biso   1.000  W
  W52      1.0000 0.15363  0.85878  0.62275  Biso   1.000  W
  W53      1.0000 0.39122  0.90363  0.37275  Biso   1.000  W
  W54      1.0000 0.10878  0.09637  0.87275  Biso   1.000  W
  W55      1.0000 0.84637  0.64122  0.62275  Biso   1.000  W
  W56      1.0000 0.65363  0.35878  0.12275  Biso   1.000  W
  W57      1.0000 0.16339  0.74860  0.15683  Biso   1.000  W
  W58      1.0000 0.33661  0.25140  0.65683  Biso   1.000  W
  W59      1.0000 0.00140  0.41339  0.40683  Biso   1.000  W
  W60      1.0000 0.49860  0.58661  0.90683  Biso   1.000  W
  W61      1.0000 0.66339  0.24860  0.65683  Biso   1.000  W
  W62      1.0000 0.83661  0.75140  0.15683  Biso   1.000  W
  W63      1.0000 0.50140  0.91339  0.90683  Biso   1.000  W
  W64      1.0000 0.99860  0.08661  0.40683  Biso   1.000  W
  W65      1.0000 0.83661  0.25140  0.84317  Biso   1.000  W
  W66      1.0000 0.66339  0.74860  0.34317  Biso   1.000  W
  W67      1.0000 0.49860  0.08661  0.09317  Biso   1.000  W
  W68      1.0000 0.00140  0.91339  0.59317  Biso   1.000  W
  W69      1.0000 0.33661  0.75140  0.34317  Biso   1.000  W
  W70      1.0000 0.16339  0.24860  0.84317  Biso   1.000  W
  W71      1.0000 0.99860  0.58661  0.59317  Biso   1.000  W
  W72      1.0000 0.50140  0.41339  0.09317  Biso   1.000  W
  W73      1.0000 0.00000  0.75000  0.18614  Biso   1.000  W
  W74      1.0000 0.50000  0.25000  0.68614  Biso   1.000  W
  W75      1.0000 0.00000  0.25000  0.43614  Biso   1.000  W
  W76      1.0000 0.50000  0.75000  0.93614  Biso   1.000  W
  W77      1.0000 0.00000  0.25000  0.81386  Biso   1.000  W
  W78      1.0000 0.50000  0.75000  0.31386  Biso   1.000  W
  W79      1.0000 0.50000  0.25000  0.06386  Biso   1.000  W
  W80      1.0000 0.00000  0.75000  0.56386  Biso   1.000  W
  W81      1.0000 0.94520  0.59611  0.15695  Biso   1.000  W
  W82      1.0000 0.55480  0.40389  0.65695  Biso   1.000  W
  W83      1.0000 0.15389  0.19520  0.40695  Biso   1.000  W
  W84      1.0000 0.34611  0.80480  0.90695  Biso   1.000  W
  W85      1.0000 0.44520  0.09611  0.65695  Biso   1.000  W
  W86      1.0000 0.05480  0.90389  0.15695  Biso   1.000  W
  W87      1.0000 0.65389  0.69520  0.90695  Biso   1.000  W
  W88      1.0000 0.84611  0.30480  0.40695  Biso   1.000  W
  W89      1.0000 0.05480  0.40389  0.84305  Biso   1.000  W
  W90      1.0000 0.44520  0.59611  0.34305  Biso   1.000  W
  W91      1.0000 0.34611  0.30480  0.09305  Biso   1.000  W
  W92      1.0000 0.15389  0.69520  0.59305  Biso   1.000  W
  W93      1.0000 0.55480  0.90389  0.34305  Biso   1.000  W
  W94      1.0000 0.94520  0.09611  0.84305  Biso   1.000  W
  W95      1.0000 0.84611  0.80480  0.59305  Biso   1.000  W
  W96      1.0000 0.65389  0.19520  0.09305  Biso   1.000  W
  O1       1.0000 0.08640  0.71650  0.12750  Biso   1.000  O
  O2       1.0000 0.41360  0.28350  0.62750  Biso   1.000  O
  O3       1.0000 0.03350  0.33640  0.37750  Biso   1.000  O
  O4       1.0000 0.46650  0.66360  0.87750  Biso   1.000  O
  O5       1.0000 0.58640  0.21650  0.62750  Biso   1.000  O
  O6       1.0000 0.91360  0.78350  0.12750  Biso   1.000  O
  O7       1.0000 0.53350  0.83640  0.87750  Biso   1.000  O
  O8       1.0000 0.96650  0.16360  0.37750  Biso   1.000  O
  O9       1.0000 0.91360  0.28350  0.87250  Biso   1.000  O
  O10      1.0000 0.58640  0.71650  0.37250  Biso   1.000  O
  O11      1.0000 0.46650  0.16360  0.12250  Biso   1.000  O
  O12      1.0000 0.03350  0.83640  0.62250  Biso   1.000  O
  O13      1.0000 0.41360  0.78350  0.37250  Biso   1.000  O
  O14      1.0000 0.08640  0.21650  0.87250  Biso   1.000  O
  O15      1.0000 0.96650  0.66360  0.62250  Biso   1.000  O
  O16      1.0000 0.53350  0.33640  0.12250  Biso   1.000  O
  O17      1.0000 0.96490  0.71800  0.14980  Biso   1.000  O
  O18      1.0000 0.53510  0.28200  0.64980  Biso   1.000  O
  O19      1.0000 0.03200  0.21490  0.39980  Biso   1.000  O
  O20      1.0000 0.46800  0.78510  0.89980  Biso   1.000  O
  O21      1.0000 0.46490  0.21800  0.64980  Biso   1.000  O
  O22      1.0000 0.03510  0.78200  0.14980  Biso   1.000  O
  O23      1.0000 0.53200  0.71490  0.89980  Biso   1.000  O
  O24      1.0000 0.96800  0.28510  0.39980  Biso   1.000  O
  O25      1.0000 0.03510  0.28200  0.85020  Biso   1.000  O
  O26      1.0000 0.46490  0.71800  0.35020  Biso   1.000  O
  O27      1.0000 0.46800  0.28510  0.10020  Biso   1.000  O
  O28      1.0000 0.03200  0.71490  0.60020  Biso   1.000  O
  O29      1.0000 0.53510  0.78200  0.35020  Biso   1.000  O
  O30      1.0000 0.96490  0.21800  0.85020  Biso   1.000  O
  O31      1.0000 0.96800  0.78510  0.60020  Biso   1.000  O
  O32      1.0000 0.53200  0.21490  0.10020  Biso   1.000  O
  O33      1.0000 0.96320  0.71670  0.10560  Biso   1.000  O
  O34      1.0000 0.53680  0.28330  0.60560  Biso   1.000  O
  O35      1.0000 0.03330  0.21320  0.35560  Biso   1.000  O
  O36      1.0000 0.46670  0.78680  0.85560  Biso   1.000  O
  O37      1.0000 0.46320  0.21670  0.60560  Biso   1.000  O
  O38      1.0000 0.03680  0.78330  0.10560  Biso   1.000  O
  O39      1.0000 0.53330  0.71320  0.85560  Biso   1.000  O
  O40      1.0000 0.96670  0.28680  0.35560  Biso   1.000  O
  O41      1.0000 0.03680  0.28330  0.89440  Biso   1.000  O
  O42      1.0000 0.46320  0.71670  0.39440  Biso   1.000  O
  O43      1.0000 0.46670  0.28680  0.14440  Biso   1.000  O
  O44      1.0000 0.03330  0.71320  0.64440  Biso   1.000  O
  O45      1.0000 0.53680  0.78330  0.39440  Biso   1.000  O
  O46      1.0000 0.96320  0.21670  0.89440  Biso   1.000  O
  O47      1.0000 0.96670  0.78680  0.64440  Biso   1.000  O
  O48      1.0000 0.53330  0.21320  0.14440  Biso   1.000  O
  O49      1.0000 0.00480  0.83250  0.12740  Biso   1.000  O
  O50      1.0000 0.49520  0.16750  0.62740  Biso   1.000  O
  O51      1.0000 0.91750  0.25480  0.37740  Biso   1.000  O
  O52      1.0000 0.58250  0.74520  0.87740  Biso   1.000  O
  O53      1.0000 0.50480  0.33250  0.62740  Biso   1.000  O
  O54      1.0000 0.99520  0.66750  0.12740  Biso   1.000  O
  O55      1.0000 0.41750  0.75480  0.87740  Biso   1.000  O
  O56      1.0000 0.08250  0.24520  0.37740  Biso   1.000  O
  O57      1.0000 0.99520  0.16750  0.87260  Biso   1.000  O
  O58      1.0000 0.50480  0.83250  0.37260  Biso   1.000  O
  O59      1.0000 0.58250  0.24520  0.12260  Biso   1.000  O
  O60      1.0000 0.91750  0.75480  0.62260  Biso   1.000  O
  O61      1.0000 0.49520  0.66750  0.37260  Biso   1.000  O
  O62      1.0000 0.00480  0.33250  0.87260  Biso   1.000  O
  O63      1.0000 0.08250  0.74520  0.62260  Biso   1.000  O
  O64      1.0000 0.41750  0.25480  0.12260  Biso   1.000  O
  O65      1.0000 0.91720  0.57170  0.12740  Biso   1.000  O
  O66      1.0000 0.58280  0.42830  0.62740  Biso   1.000  O
  O67      1.0000 0.17830  0.16720  0.37740  Biso   1.000  O
  O68      1.0000 0.32170  0.83280  0.87740  Biso   1.000  O
  O69      1.0000 0.41720  0.07170  0.62740  Biso   1.000  O
  O70      1.0000 0.08280  0.92830  0.12740  Biso   1.000  O
  O71      1.0000 0.67830  0.66720  0.87740  Biso   1.000  O
  O72      1.0000 0.82170  0.33280  0.37740  Biso   1.000  O
  O73      1.0000 0.08280  0.42830  0.87260  Biso   1.000  O
  O74      1.0000 0.41720  0.57170  0.37260  Biso   1.000  O
  O75      1.0000 0.32170  0.33280  0.12260  Biso   1.000  O
  O76      1.0000 0.17830  0.66720  0.62260  Biso   1.000  O
  O77      1.0000 0.58280  0.92830  0.37260  Biso   1.000  O
  O78      1.0000 0.91720  0.07170  0.87260  Biso   1.000  O
  O79      1.0000 0.82170  0.83280  0.62260  Biso   1.000  O
  O80      1.0000 0.67830  0.16720  0.12260  Biso   1.000  O
  O81      1.0000 0.91800  0.52450  0.08370  Biso   1.000  O
  O82      1.0000 0.58200  0.47550  0.58370  Biso   1.000  O
  O83      1.0000 0.22550  0.16800  0.33370  Biso   1.000  O
  O84      1.0000 0.27450  0.83200  0.83370  Biso   1.000  O
  O85      1.0000 0.41800  0.02450  0.58370  Biso   1.000  O
  O86      1.0000 0.08200  0.97550  0.08370  Biso   1.000  O
  O87      1.0000 0.72550  0.66800  0.83370  Biso   1.000  O
  O88      1.0000 0.77450  0.33200  0.33370  Biso   1.000  O
  O89      1.0000 0.08200  0.47550  0.91630  Biso   1.000  O
  O90      1.0000 0.41800  0.52450  0.41630  Biso   1.000  O
  O91      1.0000 0.27450  0.33200  0.16630  Biso   1.000  O
  O92      1.0000 0.22550  0.66800  0.66630  Biso   1.000  O
  O93      1.0000 0.58200  0.97550  0.41630  Biso   1.000  O
  O94      1.0000 0.91800  0.02450  0.91630  Biso   1.000  O
  O95      1.0000 0.77450  0.83200  0.66630  Biso   1.000  O
  O96      1.0000 0.72550  0.16800  0.16630  Biso   1.000  O
  O97      1.0000 0.03970  0.57350  0.10520  Biso   1.000  O
  O98      1.0000 0.46030  0.42650  0.60520  Biso   1.000  O
  O99      1.0000 0.17650  0.28970  0.35520  Biso   1.000  O
  O100     1.0000 0.32350  0.71030  0.85520  Biso   1.000  O
  O101     1.0000 0.53970  0.07350  0.60520  Biso   1.000  O
  O102     1.0000 0.96030  0.92650  0.10520  Biso   1.000  O
  O103     1.0000 0.67650  0.78970  0.85520  Biso   1.000  O
  O104     1.0000 0.82350  0.21030  0.35520  Biso   1.000  O
  O105     1.0000 0.96030  0.42650  0.89480  Biso   1.000  O
  O106     1.0000 0.53970  0.57350  0.39480  Biso   1.000  O
  O107     1.0000 0.32350  0.21030  0.14480  Biso   1.000  O
  O108     1.0000 0.17650  0.78970  0.64480  Biso   1.000  O
  O109     1.0000 0.46030  0.92650  0.39480  Biso   1.000  O
  O110     1.0000 0.03970  0.07350  0.89480  Biso   1.000  O
  O111     1.0000 0.82350  0.71030  0.64480  Biso   1.000  O
  O112     1.0000 0.67650  0.28970  0.14480  Biso   1.000  O
  O113     1.0000 0.01710  0.84750  0.07470  Biso   1.000  O
  O114     1.0000 0.48290  0.15250  0.57470  Biso   1.000  O
  O115     1.0000 0.90250  0.26710  0.32470  Biso   1.000  O
  O116     1.0000 0.59750  0.73290  0.82470  Biso   1.000  O
  O117     1.0000 0.51710  0.34750  0.57470  Biso   1.000  O
  O118     1.0000 0.98290  0.65250  0.07470  Biso   1.000  O
  O119     1.0000 0.40250  0.76710  0.82470  Biso   1.000  O
  O120     1.0000 0.09750  0.23290  0.32470  Biso   1.000  O
  O121     1.0000 0.98290  0.15250  0.92530  Biso   1.000  O
  O122     1.0000 0.51710  0.84750  0.42530  Biso   1.000  O
  O123     1.0000 0.59750  0.23290  0.17530  Biso   1.000  O
  O124     1.0000 0.90250  0.76710  0.67530  Biso   1.000  O
  O125     1.0000 0.48290  0.65250  0.42530  Biso   1.000  O
  O126     1.0000 0.01710  0.34750  0.92530  Biso   1.000  O
  O127     1.0000 0.09750  0.73290  0.67530  Biso   1.000  O
  O128     1.0000 0.40250  0.26710  0.17530  Biso   1.000  O
  O129     1.0000 0.00000  0.75000  0.04090  Biso   1.000  O
  O130     1.0000 0.50000  0.25000  0.54090  Biso   1.000  O
  O131     1.0000 0.00000  0.25000  0.29090  Biso   1.000  O
  O132     1.0000 0.50000  0.75000  0.79090  Biso   1.000  O
  O133     1.0000 0.00000  0.25000  0.95910  Biso   1.000  O
  O134     1.0000 0.50000  0.75000  0.45910  Biso   1.000  O
  O135     1.0000 0.50000  0.25000  0.20910  Biso   1.000  O
  O136     1.0000 0.00000  0.75000  0.70910  Biso   1.000  O
  O137     1.0000 0.90230  0.76830  0.07480  Biso   1.000  O
  O138     1.0000 0.59770  0.23170  0.57480  Biso   1.000  O
  O139     1.0000 0.98170  0.15230  0.32480  Biso   1.000  O
  O140     1.0000 0.51830  0.84770  0.82480  Biso   1.000  O
  O141     1.0000 0.40230  0.26830  0.57480  Biso   1.000  O
  O142     1.0000 0.09770  0.73170  0.07480  Biso   1.000  O
  O143     1.0000 0.48170  0.65230  0.82480  Biso   1.000  O
  O144     1.0000 0.01830  0.34770  0.32480  Biso   1.000  O
  O145     1.0000 0.09770  0.23170  0.92520  Biso   1.000  O
  O146     1.0000 0.40230  0.76830  0.42520  Biso   1.000  O
  O147     1.0000 0.51830  0.34770  0.17520  Biso   1.000  O
  O148     1.0000 0.98170  0.65230  0.67520  Biso   1.000  O
  O149     1.0000 0.59770  0.73170  0.42520  Biso   1.000  O
  O150     1.0000 0.90230  0.26830  0.92520  Biso   1.000  O
  O151     1.0000 0.01830  0.84770  0.67520  Biso   1.000  O
  O152     1.0000 0.48170  0.15230  0.17520  Biso   1.000  O
  O153     1.0000 0.86070  0.65360  0.09670  Biso   1.000  O
  O154     1.0000 0.63930  0.34640  0.59670  Biso   1.000  O
  O155     1.0000 0.09640  0.11070  0.34670  Biso   1.000  O
  O156     1.0000 0.40360  0.88930  0.84670  Biso   1.000  O
  O157     1.0000 0.36070  0.15360  0.59670  Biso   1.000  O
  O158     1.0000 0.13930  0.84640  0.09670  Biso   1.000  O
  O159     1.0000 0.59640  0.61070  0.84670  Biso   1.000  O
  O160     1.0000 0.90360  0.38930  0.34670  Biso   1.000  O
  O161     1.0000 0.13930  0.34640  0.90330  Biso   1.000  O
  O162     1.0000 0.36070  0.65360  0.40330  Biso   1.000  O
  O163     1.0000 0.40360  0.38930  0.15330  Biso   1.000  O
  O164     1.0000 0.09640  0.61070  0.65330  Biso   1.000  O
  O165     1.0000 0.63930  0.84640  0.40330  Biso   1.000  O
  O166     1.0000 0.86070  0.15360  0.90330  Biso   1.000  O
  O167     1.0000 0.90360  0.88930  0.65330  Biso   1.000  O
  O168     1.0000 0.59640  0.11070  0.15330  Biso   1.000  O
  O169     1.0000 0.24150  0.74810  0.08360  Biso   1.000  O
  O170     1.0000 0.25850  0.25190  0.58360  Biso   1.000  O
  O171     1.0000 0.00190  0.49150  0.33360  Biso   1.000  O
  O172     1.0000 0.49810  0.50850  0.83360  Biso   1.000  O
  O173     1.0000 0.74150  0.24810  0.58360  Biso   1.000  O
  O174     1.0000 0.75850  0.75190  0.08360  Biso   1.000  O
  O175     1.0000 0.50190  0.99150  0.83360  Biso   1.000  O
  O176     1.0000 0.99810  0.00850  0.33360  Biso   1.000  O
  O177     1.0000 0.75850  0.25190  0.91640  Biso   1.000  O
  O178     1.0000 0.74150  0.74810  0.41640  Biso   1.000  O
  O179     1.0000 0.49810  0.00850  0.16640  Biso   1.000  O
  O180     1.0000 0.00190  0.99150  0.66640  Biso   1.000  O
  O181     1.0000 0.25850  0.75190  0.41640  Biso   1.000  O
  O182     1.0000 0.24150  0.24810  0.91640  Biso   1.000  O
  O183     1.0000 0.99810  0.50850  0.66640  Biso   1.000  O
  O184     1.0000 0.50190  0.49150  0.16640  Biso   1.000  O
  O185     1.0000 0.15840  0.51980  0.12680  Biso   1.000  O
  O186     1.0000 0.34160  0.48020  0.62680  Biso   1.000  O
  O187     1.0000 0.23020  0.40840  0.37680  Biso   1.000  O
  O188     1.0000 0.26980  0.59160  0.87680  Biso   1.000  O
  O189     1.0000 0.65840  0.01980  0.62680  Biso   1.000  O
  O190     1.0000 0.84160  0.98020  0.12680  Biso   1.000  O
  O191     1.0000 0.73020  0.90840  0.87680  Biso   1.000  O
  O192     1.0000 0.76980  0.09160  0.37680  Biso   1.000  O
  O193     1.0000 0.84160  0.48020  0.87320  Biso   1.000  O
  O194     1.0000 0.65840  0.51980  0.37320  Biso   1.000  O
  O195     1.0000 0.26980  0.09160  0.12320  Biso   1.000  O
  O196     1.0000 0.23020  0.90840  0.62320  Biso   1.000  O
  O197     1.0000 0.34160  0.98020  0.37320  Biso   1.000  O
  O198     1.0000 0.15840  0.01980  0.87320  Biso   1.000  O
  O199     1.0000 0.76980  0.59160  0.62320  Biso   1.000  O
  O200     1.0000 0.73020  0.40840  0.12320  Biso   1.000  O
  O201     1.0000 0.03980  0.57360  0.14930  Biso   1.000  O
  O202     1.0000 0.46020  0.42640  0.64930  Biso   1.000  O
  O203     1.0000 0.17640  0.28980  0.39930  Biso   1.000  O
  O204     1.0000 0.32360  0.71020  0.89930  Biso   1.000  O
  O205     1.0000 0.53980  0.07360  0.64930  Biso   1.000  O
  O206     1.0000 0.96020  0.92640  0.14930  Biso   1.000  O
  O207     1.0000 0.67640  0.78980  0.89930  Biso   1.000  O
  O208     1.0000 0.82360  0.21020  0.39930  Biso   1.000  O
  O209     1.0000 0.96020  0.42640  0.85070  Biso   1.000  O
  O210     1.0000 0.53980  0.57360  0.35070  Biso   1.000  O
  O211     1.0000 0.32360  0.21020  0.10070  Biso   1.000  O
  O212     1.0000 0.17640  0.78980  0.60070  Biso   1.000  O
  O213     1.0000 0.46020  0.92640  0.35070  Biso   1.000  O
  O214     1.0000 0.03980  0.07360  0.85070  Biso   1.000  O
  O215     1.0000 0.82360  0.71020  0.60070  Biso   1.000  O
  O216     1.0000 0.67640  0.28980  0.10070  Biso   1.000  O
  O217     1.0000 0.98230  0.65090  0.18040  Biso   1.000  O
  O218     1.0000 0.51770  0.34910  0.68040  Biso   1.000  O
  O219     1.0000 0.09910  0.23230  0.43040  Biso   1.000  O
  O220     1.0000 0.40090  0.76770  0.93040  Biso   1.000  O
  O221     1.0000 0.48230  0.15090  0.68040  Biso   1.000  O
  O222     1.0000 0.01770  0.84910  0.18040  Biso   1.000  O
  O223     1.0000 0.59910  0.73230  0.93040  Biso   1.000  O
  O224     1.0000 0.90090  0.26770  0.43040  Biso   1.000  O
  O225     1.0000 0.01770  0.34910  0.81960  Biso   1.000  O
  O226     1.0000 0.48230  0.65090  0.31960  Biso   1.000  O
  O227     1.0000 0.40090  0.26770  0.06960  Biso   1.000  O
  O228     1.0000 0.09910  0.73230  0.56960  Biso   1.000  O
  O229     1.0000 0.51770  0.84910  0.31960  Biso   1.000  O
  O230     1.0000 0.98230  0.15090  0.81960  Biso   1.000  O
  O231     1.0000 0.90090  0.76770  0.56960  Biso   1.000  O
  O232     1.0000 0.59910  0.23230  0.06960  Biso   1.000  O
  O233     1.0000 0.13840  0.84660  0.15820  Biso   1.000  O
  O234     1.0000 0.36160  0.15340  0.65820  Biso   1.000  O
  O235     1.0000 0.90340  0.38840  0.40820  Biso   1.000  O
  O236     1.0000 0.59660  0.61160  0.90820  Biso   1.000  O
  O237     1.0000 0.63840  0.34660  0.65820  Biso   1.000  O
  O238     1.0000 0.86160  0.65340  0.15820  Biso   1.000  O
  O239     1.0000 0.40340  0.88840  0.90820  Biso   1.000  O
  O240     1.0000 0.09660  0.11160  0.40820  Biso   1.000  O
  O241     1.0000 0.86160  0.15340  0.84180  Biso   1.000  O
  O242     1.0000 0.63840  0.84660  0.34180  Biso   1.000  O
  O243     1.0000 0.59660  0.11160  0.09180  Biso   1.000  O
  O244     1.0000 0.90340  0.88840  0.59180  Biso   1.000  O
  O245     1.0000 0.36160  0.65340  0.34180  Biso   1.000  O
  O246     1.0000 0.13840  0.34660  0.84180  Biso   1.000  O
  O247     1.0000 0.09660  0.61160  0.59180  Biso   1.000  O
  O248     1.0000 0.40340  0.38840  0.09180  Biso   1.000  O
  O249     1.0000 0.09730  0.73300  0.17980  Biso   1.000  O
  O250     1.0000 0.40270  0.26700  0.67980  Biso   1.000  O
  O251     1.0000 0.01700  0.34730  0.42980  Biso   1.000  O
  O252     1.0000 0.48300  0.65270  0.92980  Biso   1.000  O
  O253     1.0000 0.59730  0.23300  0.67980  Biso   1.000  O
  O254     1.0000 0.90270  0.76700  0.17980  Biso   1.000  O
  O255     1.0000 0.51700  0.84730  0.92980  Biso   1.000  O
  O256     1.0000 0.98300  0.15270  0.42980  Biso   1.000  O
  O257     1.0000 0.90270  0.26700  0.82020  Biso   1.000  O
  O258     1.0000 0.59730  0.73300  0.32020  Biso   1.000  O
  O259     1.0000 0.48300  0.15270  0.07020  Biso   1.000  O
  O260     1.0000 0.01700  0.84730  0.57020  Biso   1.000  O
  O261     1.0000 0.40270  0.76700  0.32020  Biso   1.000  O
  O262     1.0000 0.09730  0.23300  0.82020  Biso   1.000  O
  O263     1.0000 0.98300  0.65270  0.57020  Biso   1.000  O
  O264     1.0000 0.51700  0.34730  0.07020  Biso   1.000  O
  O265     1.0000 0.00000  0.75000  0.21400  Biso   1.000  O
  O266     1.0000 0.50000  0.25000  0.71400  Biso   1.000  O
  O267     1.0000 0.00000  0.25000  0.46400  Biso   1.000  O
  O268     1.0000 0.50000  0.75000  0.96400  Biso   1.000  O
  O269     1.0000 0.00000  0.25000  0.78600  Biso   1.000  O
  O270     1.0000 0.50000  0.75000  0.28600  Biso   1.000  O
  O271     1.0000 0.50000  0.25000  0.03600  Biso   1.000  O
  O272     1.0000 0.00000  0.75000  0.53600  Biso   1.000  O
  O273     1.0000 0.91940  0.52380  0.17100  Biso   1.000  O
  O274     1.0000 0.58060  0.47620  0.67100  Biso   1.000  O
  O275     1.0000 0.22620  0.16940  0.42100  Biso   1.000  O
  O276     1.0000 0.27380  0.83060  0.92100  Biso   1.000  O
  O277     1.0000 0.41940  0.02380  0.67100  Biso   1.000  O
  O278     1.0000 0.08060  0.97620  0.17100  Biso   1.000  O
  O279     1.0000 0.72620  0.66940  0.92100  Biso   1.000  O
  O280     1.0000 0.77380  0.33060  0.42100  Biso   1.000  O
  O281     1.0000 0.08060  0.47620  0.82900  Biso   1.000  O
  O282     1.0000 0.41940  0.52380  0.32900  Biso   1.000  O
  O283     1.0000 0.27380  0.33060  0.07900  Biso   1.000  O
  O284     1.0000 0.22620  0.66940  0.57900  Biso   1.000  O
  O285     1.0000 0.58060  0.97620  0.32900  Biso   1.000  O
  O286     1.0000 0.91940  0.02380  0.82900  Biso   1.000  O
  O287     1.0000 0.77380  0.83060  0.57900  Biso   1.000  O
  O288     1.0000 0.72620  0.16940  0.07900  Biso   1.000  O
  O289     1.0000 0.24050  0.74820  0.17110  Biso   1.000  O
  O290     1.0000 0.25950  0.25180  0.67110  Biso   1.000  O
  O291     1.0000 0.00180  0.49050  0.42110  Biso   1.000  O
  O292     1.0000 0.49820  0.50950  0.92110  Biso   1.000  O
  O293     1.0000 0.74050  0.24820  0.67110  Biso   1.000  O
  O294     1.0000 0.75950  0.75180  0.17110  Biso   1.000  O
  O295     1.0000 0.50180  0.99050  0.92110  Biso   1.000  O
  O296     1.0000 0.99820  0.00950  0.42110  Biso   1.000  O
  O297     1.0000 0.75950  0.25180  0.82890  Biso   1.000  O
  O298     1.0000 0.74050  0.74820  0.32890  Biso   1.000  O
  O299     1.0000 0.49820  0.00950  0.07890  Biso   1.000  O
  O300     1.0000 0.00180  0.99050  0.57890  Biso   1.000  O
  O301     1.0000 0.25950  0.75180  0.32890  Biso   1.000  O
  O302     1.0000 0.24050  0.24820  0.82890  Biso   1.000  O
  O303     1.0000 0.99820  0.50950  0.57890  Biso   1.000  O
  O304     1.0000 0.50180  0.49050  0.07890  Biso   1.000  O
  O305     1.0000 0.19690  0.76410  0.12730  Biso   1.000  O
  O306     1.0000 0.30310  0.23590  0.62730  Biso   1.000  O
  O307     1.0000 0.98590  0.44690  0.37730  Biso   1.000  O
  O308     1.0000 0.51410  0.55310  0.87730  Biso   1.000  O
  O309     1.0000 0.69690  0.26410  0.62730  Biso   1.000  O
  O310     1.0000 0.80310  0.73590  0.12730  Biso   1.000  O
  O311     1.0000 0.48590  0.94690  0.87730  Biso   1.000  O
  O312     1.0000 0.01410  0.05310  0.37730  Biso   1.000  O
  O313     1.0000 0.80310  0.23590  0.87270  Biso   1.000  O
  O314     1.0000 0.69690  0.76410  0.37270  Biso   1.000  O
  O315     1.0000 0.51410  0.05310  0.12270  Biso   1.000  O
  O316     1.0000 0.98590  0.94690  0.62270  Biso   1.000  O
  O317     1.0000 0.30310  0.73590  0.37270  Biso   1.000  O
  O318     1.0000 0.19690  0.26410  0.87270  Biso   1.000  O
  O319     1.0000 0.01410  0.55310  0.62270  Biso   1.000  O
  O320     1.0000 0.48590  0.44690  0.12270  Biso   1.000  O
  O321     1.0000 0.15450  0.65090  0.14970  Biso   1.000  O
  O322     1.0000 0.34550  0.34910  0.64970  Biso   1.000  O
  O323     1.0000 0.09910  0.40450  0.39970  Biso   1.000  O
  O324     1.0000 0.40090  0.59550  0.89970  Biso   1.000  O
  O325     1.0000 0.65450  0.15090  0.64970  Biso   1.000  O
  O326     1.0000 0.84550  0.84910  0.14970  Biso   1.000  O
  O327     1.0000 0.59910  0.90450  0.89970  Biso   1.000  O
  O328     1.0000 0.90090  0.09550  0.39970  Biso   1.000  O
  O329     1.0000 0.84550  0.34910  0.85030  Biso   1.000  O
  O330     1.0000 0.65450  0.65090  0.35030  Biso   1.000  O
  O331     1.0000 0.40090  0.09550  0.10030  Biso   1.000  O
  O332     1.0000 0.09910  0.90450  0.60030  Biso   1.000  O
  O333     1.0000 0.34550  0.84910  0.35030  Biso   1.000  O
  O334     1.0000 0.15450  0.15090  0.85030  Biso   1.000  O
  O335     1.0000 0.90090  0.59550  0.60030  Biso   1.000  O
  O336     1.0000 0.59910  0.40450  0.10030  Biso   1.000  O
  O337     1.0000 0.15330  0.65130  0.10540  Biso   1.000  O
  O338     1.0000 0.34670  0.34870  0.60540  Biso   1.000  O
  O339     1.0000 0.09870  0.40330  0.35540  Biso   1.000  O
  O340     1.0000 0.40130  0.59670  0.85540  Biso   1.000  O
  O341     1.0000 0.65330  0.15130  0.60540  Biso   1.000  O
  O342     1.0000 0.84670  0.84870  0.10540  Biso   1.000  O
  O343     1.0000 0.59870  0.90330  0.85540  Biso   1.000  O
  O344     1.0000 0.90130  0.09670  0.35540  Biso   1.000  O
  O345     1.0000 0.84670  0.34870  0.89460  Biso   1.000  O
  O346     1.0000 0.65330  0.65130  0.39460  Biso   1.000  O
  O347     1.0000 0.40130  0.09670  0.14460  Biso   1.000  O
  O348     1.0000 0.09870  0.90330  0.64460  Biso   1.000  O
  O349     1.0000 0.34670  0.84870  0.39460  Biso   1.000  O
  O350     1.0000 0.15330  0.15130  0.89460  Biso   1.000  O
  O351     1.0000 0.90130  0.59670  0.64460  Biso   1.000  O
  O352     1.0000 0.59870  0.40330  0.14460  Biso   1.000  O
  O353     1.0000 0.00000  0.75000  0.92580  Biso   1.000  O
  O354     1.0000 0.50000  0.25000  0.42580  Biso   1.000  O
  O355     1.0000 0.00000  0.25000  0.17580  Biso   1.000  O
  O356     1.0000 0.50000  0.75000  0.67580  Biso   1.000  O
  O357     1.0000 0.00000  0.25000  0.07420  Biso   1.000  O
  O358     1.0000 0.50000  0.75000  0.57420  Biso   1.000  O
  O359     1.0000 0.50000  0.25000  0.32420  Biso   1.000  O
  O360     1.0000 0.00000  0.75000  0.82420  Biso   1.000  O
  O361     1.0000 0.50000  0.25000  0.92210  Biso   1.000  O
  O362     1.0000 0.00000  0.75000  0.42210  Biso   1.000  O
  O363     1.0000 0.50000  0.75000  0.17210  Biso   1.000  O
  O364     1.0000 0.00000  0.25000  0.67210  Biso   1.000  O
  O365     1.0000 0.50000  0.75000  0.07790  Biso   1.000  O
  O366     1.0000 0.00000  0.25000  0.57790  Biso   1.000  O
  O367     1.0000 0.00000  0.75000  0.32790  Biso   1.000  O
  O368     1.0000 0.50000  0.25000  0.82790  Biso   1.000  O
  N1       1.0000 0.04640  0.84750  0.96710  Biso   1.000  N
  N2       1.0000 0.45360  0.15250  0.46710  Biso   1.000  N
  N3       1.0000 0.90250  0.29640  0.21710  Biso   1.000  N
  N4       1.0000 0.59750  0.70360  0.71710  Biso   1.000  N
  N5       1.0000 0.54640  0.34750  0.46710  Biso   1.000  N
  N6       1.0000 0.95360  0.65250  0.96710  Biso   1.000  N
  N7       1.0000 0.40250  0.79640  0.71710  Biso   1.000  N
  N8       1.0000 0.09750  0.20360  0.21710  Biso   1.000  N
  N9       1.0000 0.95360  0.15250  0.03290  Biso   1.000  N
  N10      1.0000 0.54640  0.84750  0.53290  Biso   1.000  N
  N11      1.0000 0.59750  0.20360  0.28290  Biso   1.000  N
  N12      1.0000 0.90250  0.79640  0.78290  Biso   1.000  N
  N13      1.0000 0.45360  0.65250  0.53290  Biso   1.000  N
  N14      1.0000 0.04640  0.34750  0.03290  Biso   1.000  N
  N15      1.0000 0.09750  0.70360  0.78290  Biso   1.000  N
  N16      1.0000 0.40250  0.29640  0.28290  Biso   1.000  N
  N17      1.0000 0.09700  0.94930  0.95550  Biso   1.000  N
  N18      1.0000 0.40300  0.05070  0.45550  Biso   1.000  N
  N19      1.0000 0.80070  0.34700  0.20550  Biso   1.000  N
  N20      1.0000 0.69930  0.65300  0.70550  Biso   1.000  N
  N21      1.0000 0.59700  0.44930  0.45550  Biso   1.000  N
  N22      1.0000 0.90300  0.55070  0.95550  Biso   1.000  N
  N23      1.0000 0.30070  0.84700  0.70550  Biso   1.000  N
  N24      1.0000 0.19930  0.15300  0.20550  Biso   1.000  N
  N25      1.0000 0.90300  0.05070  0.04450  Biso   1.000  N
  N26      1.0000 0.59700  0.94930  0.54450  Biso   1.000  N
  N27      1.0000 0.69930  0.15300  0.29450  Biso   1.000  N
  N28      1.0000 0.80070  0.84700  0.79450  Biso   1.000  N
  N29      1.0000 0.40300  0.55070  0.54450  Biso   1.000  N
  N30      1.0000 0.09700  0.44930  0.04450  Biso   1.000  N
  N31      1.0000 0.19930  0.65300  0.79450  Biso   1.000  N
  N32      1.0000 0.30070  0.34700  0.29450  Biso   1.000  N
  N33      1.0000 0.37400  0.06820  0.95090  Biso   1.000  N
  N34      1.0000 0.12600  0.93180  0.45090  Biso   1.000  N
  N35      1.0000 0.68180  0.62400  0.20090  Biso   1.000  N
  N36      1.0000 0.81820  0.37600  0.70090  Biso   1.000  N
  N37      1.0000 0.87400  0.56820  0.45090  Biso   1.000  N
  N38      1.0000 0.62600  0.43180  0.95090  Biso   1.000  N
  N39      1.0000 0.18180  0.12400  0.70090  Biso   1.000  N
  N40      1.0000 0.31820  0.87600  0.20090  Biso   1.000  N
  N41      1.0000 0.62600  0.93180  0.04910  Biso   1.000  N
  N42      1.0000 0.87400  0.06820  0.54910  Biso   1.000  N
  N43      1.0000 0.81820  0.87600  0.29910  Biso   1.000  N
  N44      1.0000 0.68180  0.12400  0.79910  Biso   1.000  N
  N45      1.0000 0.12600  0.43180  0.54910  Biso   1.000  N
  N46      1.0000 0.37400  0.56820  0.04910  Biso   1.000  N
  N47      1.0000 0.31820  0.37600  0.79910  Biso   1.000  N
  N48      1.0000 0.18180  0.62400  0.29910  Biso   1.000  N
  N49      1.0000 0.44230  0.15990  0.96180  Biso   1.000  N
  N50      1.0000 0.05770  0.84010  0.46180  Biso   1.000  N
  N51      1.0000 0.59010  0.69230  0.21180  Biso   1.000  N
  N52      1.0000 0.90990  0.30770  0.71180  Biso   1.000  N
  N53      1.0000 0.94230  0.65990  0.46180  Biso   1.000  N
  N54      1.0000 0.55770  0.34010  0.96180  Biso   1.000  N
  N55      1.0000 0.09010  0.19230  0.71180  Biso   1.000  N
  N56      1.0000 0.40990  0.80770  0.21180  Biso   1.000  N
  N57      1.0000 0.55770  0.84010  0.03820  Biso   1.000  N
  N58      1.0000 0.94230  0.15990  0.53820  Biso   1.000  N
  N59      1.0000 0.90990  0.80770  0.28820  Biso   1.000  N
  N60      1.0000 0.59010  0.19230  0.78820  Biso   1.000  N
  N61      1.0000 0.05770  0.34010  0.53820  Biso   1.000  N
  N62      1.0000 0.44230  0.65990  0.03820  Biso   1.000  N
  N63      1.0000 0.40990  0.30770  0.78820  Biso   1.000  N
  N64      1.0000 0.09010  0.69230  0.28820  Biso   1.000  N
  N65      1.0000 0.90340  0.79850  0.96590  Biso   1.000  N
  N66      1.0000 0.59660  0.20150  0.46590  Biso   1.000  N
  N67      1.0000 0.95150  0.15340  0.21590  Biso   1.000  N
  N68      1.0000 0.54850  0.84660  0.71590  Biso   1.000  N
  N69      1.0000 0.40340  0.29850  0.46590  Biso   1.000  N
  N70      1.0000 0.09660  0.70150  0.96590  Biso   1.000  N
  N71      1.0000 0.45150  0.65340  0.71590  Biso   1.000  N
  N72      1.0000 0.04850  0.34660  0.21590  Biso   1.000  N
  N73      1.0000 0.09660  0.20150  0.03410  Biso   1.000  N
  N74      1.0000 0.40340  0.79850  0.53410  Biso   1.000  N
  N75      1.0000 0.54850  0.34660  0.28410  Biso   1.000  N
  N76      1.0000 0.95150  0.65340  0.78410  Biso   1.000  N
  N77      1.0000 0.59660  0.70150  0.53410  Biso   1.000  N
  N78      1.0000 0.90340  0.29850  0.03410  Biso   1.000  N
  N79      1.0000 0.04850  0.84660  0.78410  Biso   1.000  N
  N80      1.0000 0.45150  0.15340  0.28410  Biso   1.000  N
  N81      1.0000 0.80440  0.85110  0.95490  Biso   1.000  N
  N82      1.0000 0.69560  0.14890  0.45490  Biso   1.000  N
  N83      1.0000 0.89890  0.05440  0.20490  Biso   1.000  N
  N84      1.0000 0.60110  0.94560  0.70490  Biso   1.000  N
  N85      1.0000 0.30440  0.35110  0.45490  Biso   1.000  N
  N86      1.0000 0.19560  0.64890  0.95490  Biso   1.000  N
  N87      1.0000 0.39890  0.55440  0.70490  Biso   1.000  N
  N88      1.0000 0.10110  0.44560  0.20490  Biso   1.000  N
  N89      1.0000 0.19560  0.14890  0.04510  Biso   1.000  N
  N90      1.0000 0.30440  0.85110  0.54510  Biso   1.000  N
  N91      1.0000 0.60110  0.44560  0.29510  Biso   1.000  N
  N92      1.0000 0.89890  0.55440  0.79510  Biso   1.000  N
  N93      1.0000 0.69560  0.64890  0.54510  Biso   1.000  N
  N94      1.0000 0.80440  0.35110  0.04510  Biso   1.000  N
  N95      1.0000 0.10110  0.94560  0.79510  Biso   1.000  N
  N96      1.0000 0.39890  0.05440  0.29510  Biso   1.000  N
  N97      1.0000 0.68590  0.13100  0.95250  Biso   1.000  N
  N98      1.0000 0.81410  0.86900  0.45250  Biso   1.000  N
  N99      1.0000 0.61900  0.93590  0.20250  Biso   1.000  N
  N100     1.0000 0.88100  0.06410  0.70250  Biso   1.000  N
  N101     1.0000 0.18590  0.63100  0.45250  Biso   1.000  N
  N102     1.0000 0.31410  0.36900  0.95250  Biso   1.000  N
  N103     1.0000 0.11900  0.43590  0.70250  Biso   1.000  N
  N104     1.0000 0.38100  0.56410  0.20250  Biso   1.000  N
  N105     1.0000 0.31410  0.86900  0.04750  Biso   1.000  N
  N106     1.0000 0.18590  0.13100  0.54750  Biso   1.000  N
  N107     1.0000 0.88100  0.56410  0.29750  Biso   1.000  N
  N108     1.0000 0.61900  0.43590  0.79750  Biso   1.000  N
  N109     1.0000 0.81410  0.36900  0.54750  Biso   1.000  N
  N110     1.0000 0.68590  0.63100  0.04750  Biso   1.000  N
  N111     1.0000 0.38100  0.06410  0.79750  Biso   1.000  N
  N112     1.0000 0.11900  0.93590  0.29750  Biso   1.000  N
  N113     1.0000 0.59140  0.19130  0.96330  Biso   1.000  N
  N114     1.0000 0.90860  0.80870  0.46330  Biso   1.000  N
  N115     1.0000 0.55870  0.84140  0.21330  Biso   1.000  N
  N116     1.0000 0.94130  0.15860  0.71330  Biso   1.000  N
  N117     1.0000 0.09140  0.69130  0.46330  Biso   1.000  N
  N118     1.0000 0.40860  0.30870  0.96330  Biso   1.000  N
  N119     1.0000 0.05870  0.34140  0.71330  Biso   1.000  N
  N120     1.0000 0.44130  0.65860  0.21330  Biso   1.000  N
  N121     1.0000 0.40860  0.80870  0.03670  Biso   1.000  N
  N122     1.0000 0.09140  0.19130  0.53670  Biso   1.000  N
  N123     1.0000 0.94130  0.65860  0.28670  Biso   1.000  N
  N124     1.0000 0.55870  0.34140  0.78670  Biso   1.000  N
  N125     1.0000 0.90860  0.30870  0.53670  Biso   1.000  N
  N126     1.0000 0.59140  0.69130  0.03670  Biso   1.000  N
  N127     1.0000 0.44130  0.15860  0.78670  Biso   1.000  N
  N128     1.0000 0.05870  0.84140  0.28670  Biso   1.000  N
  C1       1.0000 0.06910  0.88500  0.94980  Biso   1.000  C
  C2       1.0000 0.43090  0.11500  0.44980  Biso   1.000  C
  C3       1.0000 0.86500  0.31910  0.19980  Biso   1.000  C
  C4       1.0000 0.63500  0.68090  0.69980  Biso   1.000  C
  C5       1.0000 0.56910  0.38500  0.44980  Biso   1.000  C
  C6       1.0000 0.93090  0.61500  0.94980  Biso   1.000  C
  C7       1.0000 0.36500  0.81910  0.69980  Biso   1.000  C
  C8       1.0000 0.13500  0.18090  0.19980  Biso   1.000  C
  C9       1.0000 0.93090  0.11500  0.05020  Biso   1.000  C
  C10      1.0000 0.56910  0.88500  0.55020  Biso   1.000  C
  C11      1.0000 0.63500  0.18090  0.30020  Biso   1.000  C
  C12      1.0000 0.86500  0.81910  0.80020  Biso   1.000  C
  C13      1.0000 0.43090  0.61500  0.55020  Biso   1.000  C
  C14      1.0000 0.06910  0.38500  0.05020  Biso   1.000  C
  C15      1.0000 0.13500  0.68090  0.80020  Biso   1.000  C
  C16      1.0000 0.36500  0.31910  0.30020  Biso   1.000  C
  H1       1.0000 0.06610  0.86850  0.93480  Biso   1.000  H
  H2       1.0000 0.43390  0.13150  0.43480  Biso   1.000  H
  H3       1.0000 0.88150  0.31610  0.18480  Biso   1.000  H
  H4       1.0000 0.61850  0.68390  0.68480  Biso   1.000  H
  H5       1.0000 0.56610  0.36850  0.43480  Biso   1.000  H
  H6       1.0000 0.93390  0.63150  0.93480  Biso   1.000  H
  H7       1.0000 0.38150  0.81610  0.68480  Biso   1.000  H
  H8       1.0000 0.11850  0.18390  0.18480  Biso   1.000  H
  H9       1.0000 0.93390  0.13150  0.06520  Biso   1.000  H
  H10      1.0000 0.56610  0.86850  0.56520  Biso   1.000  H
  H11      1.0000 0.61850  0.18390  0.31520  Biso   1.000  H
  H12      1.0000 0.88150  0.81610  0.81520  Biso   1.000  H
  H13      1.0000 0.43390  0.63150  0.56520  Biso   1.000  H
  H14      1.0000 0.06610  0.36850  0.06520  Biso   1.000  H
  H15      1.0000 0.11850  0.68390  0.81520  Biso   1.000  H
  H16      1.0000 0.38150  0.31610  0.31520  Biso   1.000  H
  C17      1.0000 0.05760  0.89120  0.98560  Biso   1.000  C
  C18      1.0000 0.44240  0.10880  0.48560  Biso   1.000  C
  C19      1.0000 0.85880  0.30760  0.23560  Biso   1.000  C
  C20      1.0000 0.64120  0.69240  0.73560  Biso   1.000  C
  C21      1.0000 0.55760  0.39120  0.48560  Biso   1.000  C
  C22      1.0000 0.94240  0.60880  0.98560  Biso   1.000  C
  C23      1.0000 0.35880  0.80760  0.73560  Biso   1.000  C
  C24      1.0000 0.14120  0.19240  0.23560  Biso   1.000  C
  C25      1.0000 0.94240  0.10880  0.01440  Biso   1.000  C
  C26      1.0000 0.55760  0.89120  0.51440  Biso   1.000  C
  C27      1.0000 0.64120  0.19240  0.26440  Biso   1.000  C
  C28      1.0000 0.85880  0.80760  0.76440  Biso   1.000  C
  C29      1.0000 0.44240  0.60880  0.51440  Biso   1.000  C
  C30      1.0000 0.05760  0.39120  0.01440  Biso   1.000  C
  C31      1.0000 0.14120  0.69240  0.76440  Biso   1.000  C
  C32      1.0000 0.35880  0.30760  0.26440  Biso   1.000  C
  C33      1.0000 0.04270  0.88080  0.00770  Biso   1.000  C
  C34      1.0000 0.45730  0.11920  0.50770  Biso   1.000  C
  C35      1.0000 0.86920  0.29270  0.25770  Biso   1.000  C
  C36      1.0000 0.63080  0.70730  0.75770  Biso   1.000  C
  C37      1.0000 0.54270  0.38080  0.50770  Biso   1.000  C
  C38      1.0000 0.95730  0.61920  0.00770  Biso   1.000  C
  C39      1.0000 0.36920  0.79270  0.75770  Biso   1.000  C
  C40      1.0000 0.13080  0.20730  0.25770  Biso   1.000  C
  C41      1.0000 0.95730  0.11920  0.99230  Biso   1.000  C
  C42      1.0000 0.54270  0.88080  0.49230  Biso   1.000  C
  C43      1.0000 0.63080  0.20730  0.24230  Biso   1.000  C
  C44      1.0000 0.86920  0.79270  0.74230  Biso   1.000  C
  C45      1.0000 0.45730  0.61920  0.49230  Biso   1.000  C
  C46      1.0000 0.04270  0.38080  0.99230  Biso   1.000  C
  C47      1.0000 0.13080  0.70730  0.74230  Biso   1.000  C
  C48      1.0000 0.36920  0.29270  0.24230  Biso   1.000  C
  H17      1.0000 0.02000  0.83830  0.01280  Biso   1.000  H
  H18      1.0000 0.48000  0.16170  0.51280  Biso   1.000  H
  H19      1.0000 0.91170  0.27000  0.26280  Biso   1.000  H
  H20      1.0000 0.58830  0.73000  0.76280  Biso   1.000  H
  H21      1.0000 0.52000  0.33830  0.51280  Biso   1.000  H
  H22      1.0000 0.98000  0.66170  0.01280  Biso   1.000  H
  H23      1.0000 0.41170  0.77000  0.76280  Biso   1.000  H
  H24      1.0000 0.08830  0.23000  0.26280  Biso   1.000  H
  H25      1.0000 0.98000  0.16170  0.98720  Biso   1.000  H
  H26      1.0000 0.52000  0.83830  0.48720  Biso   1.000  H
  H27      1.0000 0.58830  0.23000  0.23720  Biso   1.000  H
  H28      1.0000 0.91170  0.77000  0.73720  Biso   1.000  H
  H29      1.0000 0.48000  0.66170  0.48720  Biso   1.000  H
  H30      1.0000 0.02000  0.33830  0.98720  Biso   1.000  H
  H31      1.0000 0.08830  0.73000  0.73720  Biso   1.000  H
  H32      1.0000 0.41170  0.27000  0.23720  Biso   1.000  H
  C49      1.0000 0.06260  0.93650  0.02290  Biso   1.000  C
  C50      1.0000 0.43740  0.06350  0.52290  Biso   1.000  C
  C51      1.0000 0.81350  0.31260  0.27290  Biso   1.000  C
  C52      1.0000 0.68650  0.68740  0.77290  Biso   1.000  C
  C53      1.0000 0.56260  0.43650  0.52290  Biso   1.000  C
  C54      1.0000 0.93740  0.56350  0.02290  Biso   1.000  C
  C55      1.0000 0.31350  0.81260  0.77290  Biso   1.000  C
  C56      1.0000 0.18650  0.18740  0.27290  Biso   1.000  C
  C57      1.0000 0.93740  0.06350  0.97710  Biso   1.000  C
  C58      1.0000 0.56260  0.93650  0.47710  Biso   1.000  C
  C59      1.0000 0.68650  0.18740  0.22710  Biso   1.000  C
  C60      1.0000 0.81350  0.81260  0.72710  Biso   1.000  C
  C61      1.0000 0.43740  0.56350  0.47710  Biso   1.000  C
  C62      1.0000 0.06260  0.43650  0.97710  Biso   1.000  C
  C63      1.0000 0.18650  0.68740  0.72710  Biso   1.000  C
  C64      1.0000 0.31350  0.31260  0.22710  Biso   1.000  C
  H33      1.0000 0.05360  0.93140  0.03840  Biso   1.000  H
  H34      1.0000 0.44640  0.06860  0.53840  Biso   1.000  H
  H35      1.0000 0.81860  0.30360  0.28840  Biso   1.000  H
  H36      1.0000 0.68140  0.69640  0.78840  Biso   1.000  H
  H37      1.0000 0.55360  0.43140  0.53840  Biso   1.000  H
  H38      1.0000 0.94640  0.56860  0.03840  Biso   1.000  H
  H39      1.0000 0.31860  0.80360  0.78840  Biso   1.000  H
  H40      1.0000 0.18140  0.19640  0.28840  Biso   1.000  H
  H41      1.0000 0.94640  0.06860  0.96160  Biso   1.000  H
  H42      1.0000 0.55360  0.93140  0.46160  Biso   1.000  H
  H43      1.0000 0.68140  0.19640  0.21160  Biso   1.000  H
  H44      1.0000 0.81860  0.80360  0.71160  Biso   1.000  H
  H45      1.0000 0.44640  0.56860  0.46160  Biso   1.000  H
  H46      1.0000 0.05360  0.43140  0.96160  Biso   1.000  H
  H47      1.0000 0.18140  0.69640  0.71160  Biso   1.000  H
  H48      1.0000 0.31860  0.30360  0.21160  Biso   1.000  H
  C65      1.0000 0.09470  0.99750  0.01490  Biso   1.000  C
  C66      1.0000 0.40530  0.00250  0.51490  Biso   1.000  C
  C67      1.0000 0.75250  0.34470  0.26490  Biso   1.000  C
  C68      1.0000 0.74750  0.65530  0.76490  Biso   1.000  C
  C69      1.0000 0.59470  0.49750  0.51490  Biso   1.000  C
  C70      1.0000 0.90530  0.50250  0.01490  Biso   1.000  C
  C71      1.0000 0.25250  0.84470  0.76490  Biso   1.000  C
  C72      1.0000 0.24750  0.15530  0.26490  Biso   1.000  C
  C73      1.0000 0.90530  0.00250  0.98510  Biso   1.000  C
  C74      1.0000 0.59470  0.99750  0.48510  Biso   1.000  C
  C75      1.0000 0.74750  0.15530  0.23510  Biso   1.000  C
  C76      1.0000 0.75250  0.84470  0.73510  Biso   1.000  C
  C77      1.0000 0.40530  0.50250  0.48510  Biso   1.000  C
  C78      1.0000 0.09470  0.49750  0.98510  Biso   1.000  C
  C79      1.0000 0.24750  0.65530  0.73510  Biso   1.000  C
  C80      1.0000 0.25250  0.34470  0.23510  Biso   1.000  C
  H49      1.0000 0.10940  0.03340  0.02520  Biso   1.000  H
  H50      1.0000 0.39060  0.96660  0.52520  Biso   1.000  H
  H51      1.0000 0.71660  0.35940  0.27520  Biso   1.000  H
  H52      1.0000 0.78340  0.64060  0.77520  Biso   1.000  H
  H53      1.0000 0.60940  0.53340  0.52520  Biso   1.000  H
  H54      1.0000 0.89060  0.46660  0.02520  Biso   1.000  H
  H55      1.0000 0.21660  0.85940  0.77520  Biso   1.000  H
  H56      1.0000 0.28340  0.14060  0.27520  Biso   1.000  H
  H57      1.0000 0.89060  0.96660  0.97480  Biso   1.000  H
  H58      1.0000 0.60940  0.03340  0.47480  Biso   1.000  H
  H59      1.0000 0.78340  0.14060  0.22480  Biso   1.000  H
  H60      1.0000 0.71660  0.85940  0.72480  Biso   1.000  H
  H61      1.0000 0.39060  0.46660  0.47480  Biso   1.000  H
  H62      1.0000 0.10940  0.53340  0.97480  Biso   1.000  H
  H63      1.0000 0.28340  0.64060  0.72480  Biso   1.000  H
  H64      1.0000 0.21660  0.35940  0.22480  Biso   1.000  H
  C81      1.0000 0.10610  0.00790  0.99290  Biso   1.000  C
  C82      1.0000 0.39390  0.99210  0.49290  Biso   1.000  C
  C83      1.0000 0.74210  0.35610  0.24290  Biso   1.000  C
  C84      1.0000 0.75790  0.64390  0.74290  Biso   1.000  C
  C85      1.0000 0.60610  0.50790  0.49290  Biso   1.000  C
  C86      1.0000 0.89390  0.49210  0.99290  Biso   1.000  C
  C87      1.0000 0.24210  0.85610  0.74290  Biso   1.000  C
  C88      1.0000 0.25790  0.14390  0.24290  Biso   1.000  C
  C89      1.0000 0.89390  0.99210  0.00710  Biso   1.000  C
  C90      1.0000 0.60610  0.00790  0.50710  Biso   1.000  C
  C91      1.0000 0.75790  0.14390  0.25710  Biso   1.000  C
  C92      1.0000 0.74210  0.85610  0.75710  Biso   1.000  C
  C93      1.0000 0.39390  0.49210  0.50710  Biso   1.000  C
  C94      1.0000 0.10610  0.50790  0.00710  Biso   1.000  C
  C95      1.0000 0.25790  0.64390  0.75710  Biso   1.000  C
  C96      1.0000 0.24210  0.35610  0.25710  Biso   1.000  C
  H65      1.0000 0.12410  0.05250  0.98770  Biso   1.000  H
  H66      1.0000 0.37590  0.94750  0.48770  Biso   1.000  H
  H67      1.0000 0.69750  0.37410  0.23770  Biso   1.000  H
  H68      1.0000 0.80250  0.62590  0.73770  Biso   1.000  H
  H69      1.0000 0.62410  0.55250  0.48770  Biso   1.000  H
  H70      1.0000 0.87590  0.44750  0.98770  Biso   1.000  H
  H71      1.0000 0.19750  0.87410  0.73770  Biso   1.000  H
  H72      1.0000 0.30250  0.12590  0.23770  Biso   1.000  H
  H73      1.0000 0.87590  0.94750  0.01230  Biso   1.000  H
  H74      1.0000 0.62410  0.05250  0.51230  Biso   1.000  H
  H75      1.0000 0.80250  0.12590  0.26230  Biso   1.000  H
  H76      1.0000 0.69750  0.87410  0.76230  Biso   1.000  H
  H77      1.0000 0.37590  0.44750  0.51230  Biso   1.000  H
  H78      1.0000 0.12410  0.55250  0.01230  Biso   1.000  H
  H79      1.0000 0.30250  0.62590  0.76230  Biso   1.000  H
  H80      1.0000 0.19750  0.37410  0.26230  Biso   1.000  H
  C97      1.0000 0.09190  0.95450  0.97820  Biso   1.000  C
  C98      1.0000 0.40810  0.04550  0.47820  Biso   1.000  C
  C99      1.0000 0.79550  0.34190  0.22820  Biso   1.000  C
  C100     1.0000 0.70450  0.65810  0.72820  Biso   1.000  C
  C101     1.0000 0.59190  0.45450  0.47820  Biso   1.000  C
  C102     1.0000 0.90810  0.54550  0.97820  Biso   1.000  C
  C103     1.0000 0.29550  0.84190  0.72820  Biso   1.000  C
  C104     1.0000 0.20450  0.15810  0.22820  Biso   1.000  C
  C105     1.0000 0.90810  0.04550  0.02180  Biso   1.000  C
  C106     1.0000 0.59190  0.95450  0.52180  Biso   1.000  C
  C107     1.0000 0.70450  0.15810  0.27180  Biso   1.000  C
  C108     1.0000 0.79550  0.84190  0.77180  Biso   1.000  C
  C109     1.0000 0.40810  0.54550  0.52180  Biso   1.000  C
  C110     1.0000 0.09190  0.45450  0.02180  Biso   1.000  C
  C111     1.0000 0.20450  0.65810  0.77180  Biso   1.000  C
  C112     1.0000 0.29550  0.34190  0.27180  Biso   1.000  C
  C113     1.0000 0.12740  0.00140  0.93950  Biso   1.000  C
  C114     1.0000 0.37260  0.99860  0.43950  Biso   1.000  C
  C115     1.0000 0.74860  0.37740  0.18950  Biso   1.000  C
  C116     1.0000 0.75140  0.62260  0.68950  Biso   1.000  C
  C117     1.0000 0.62740  0.50140  0.43950  Biso   1.000  C
  C118     1.0000 0.87260  0.49860  0.93950  Biso   1.000  C
  C119     1.0000 0.24860  0.87740  0.68950  Biso   1.000  C
  C120     1.0000 0.25140  0.12260  0.18950  Biso   1.000  C
  C121     1.0000 0.87260  0.99860  0.06050  Biso   1.000  C
  C122     1.0000 0.62740  0.00140  0.56050  Biso   1.000  C
  C123     1.0000 0.75140  0.12260  0.31050  Biso   1.000  C
  C124     1.0000 0.74860  0.87740  0.81050  Biso   1.000  C
  C125     1.0000 0.37260  0.49860  0.56050  Biso   1.000  C
  C126     1.0000 0.12740  0.50140  0.06050  Biso   1.000  C
  C127     1.0000 0.25140  0.62260  0.81050  Biso   1.000  C
  C128     1.0000 0.24860  0.37740  0.31050  Biso   1.000  C
  H81      1.0000 0.09350  0.00460  0.92670  Biso   1.000  H
  H82      1.0000 0.40650  0.99540  0.42670  Biso   1.000  H
  H83      1.0000 0.74540  0.34350  0.17670  Biso   1.000  H
  H84      1.0000 0.75460  0.65650  0.67670  Biso   1.000  H
  H85      1.0000 0.59350  0.50460  0.42670  Biso   1.000  H
  H86      1.0000 0.90650  0.49540  0.92670  Biso   1.000  H
  H87      1.0000 0.24540  0.84350  0.67670  Biso   1.000  H
  H88      1.0000 0.25460  0.15650  0.17670  Biso   1.000  H
  H89      1.0000 0.90650  0.99540  0.07330  Biso   1.000  H
  H90      1.0000 0.59350  0.00460  0.57330  Biso   1.000  H
  H91      1.0000 0.75460  0.15650  0.32330  Biso   1.000  H
  H92      1.0000 0.74540  0.84350  0.82330  Biso   1.000  H
  H93      1.0000 0.40650  0.49540  0.57330  Biso   1.000  H
  H94      1.0000 0.09350  0.50460  0.07330  Biso   1.000  H
  H95      1.0000 0.25460  0.65650  0.82330  Biso   1.000  H
  H96      1.0000 0.24540  0.34350  0.32330  Biso   1.000  H
  H97      1.0000 0.12710  0.04870  0.94690  Biso   1.000  H
  H98      1.0000 0.37290  0.95130  0.44690  Biso   1.000  H
  H99      1.0000 0.70130  0.37710  0.19690  Biso   1.000  H
  H100     1.0000 0.79870  0.62290  0.69690  Biso   1.000  H
  H101     1.0000 0.62710  0.54870  0.44690  Biso   1.000  H
  H102     1.0000 0.87290  0.45130  0.94690  Biso   1.000  H
  H103     1.0000 0.20130  0.87710  0.69690  Biso   1.000  H
  H104     1.0000 0.29870  0.12290  0.19690  Biso   1.000  H
  H105     1.0000 0.87290  0.95130  0.05310  Biso   1.000  H
  H106     1.0000 0.62710  0.04870  0.55310  Biso   1.000  H
  H107     1.0000 0.79870  0.12290  0.30310  Biso   1.000  H
  H108     1.0000 0.70130  0.87710  0.80310  Biso   1.000  H
  H109     1.0000 0.37290  0.45130  0.55310  Biso   1.000  H
  H110     1.0000 0.12710  0.54870  0.05310  Biso   1.000  H
  H111     1.0000 0.29870  0.62290  0.80310  Biso   1.000  H
  H112     1.0000 0.20130  0.37710  0.30310  Biso   1.000  H
  C129     1.0000 0.19770  0.99190  0.93010  Biso   1.000  C
  C130     1.0000 0.30230  0.00810  0.43010  Biso   1.000  C
  C131     1.0000 0.75810  0.44770  0.18010  Biso   1.000  C
  C132     1.0000 0.74190  0.55230  0.68010  Biso   1.000  C
  C133     1.0000 0.69770  0.49190  0.43010  Biso   1.000  C
  C134     1.0000 0.80230  0.50810  0.93010  Biso   1.000  C
  C135     1.0000 0.25810  0.94770  0.68010  Biso   1.000  C
  C136     1.0000 0.24190  0.05230  0.18010  Biso   1.000  C
  C137     1.0000 0.80230  0.00810  0.06990  Biso   1.000  C
  C138     1.0000 0.69770  0.99190  0.56990  Biso   1.000  C
  C139     1.0000 0.74190  0.05230  0.31990  Biso   1.000  C
  C140     1.0000 0.75810  0.94770  0.81990  Biso   1.000  C
  C141     1.0000 0.30230  0.50810  0.56990  Biso   1.000  C
  C142     1.0000 0.19770  0.49190  0.06990  Biso   1.000  C
  C143     1.0000 0.24190  0.55230  0.81990  Biso   1.000  C
  C144     1.0000 0.25810  0.44770  0.31990  Biso   1.000  C
  H113     1.0000 0.20180  0.01650  0.91550  Biso   1.000  H
  H114     1.0000 0.29820  0.98350  0.41550  Biso   1.000  H
  H115     1.0000 0.73350  0.45180  0.16550  Biso   1.000  H
  H116     1.0000 0.76650  0.54820  0.66550  Biso   1.000  H
  H117     1.0000 0.70180  0.51650  0.41550  Biso   1.000  H
  H118     1.0000 0.79820  0.48350  0.91550  Biso   1.000  H
  H119     1.0000 0.23350  0.95180  0.66550  Biso   1.000  H
  H120     1.0000 0.26650  0.04820  0.16550  Biso   1.000  H
  H121     1.0000 0.79820  0.98350  0.08450  Biso   1.000  H
  H122     1.0000 0.70180  0.01650  0.58450  Biso   1.000  H
  H123     1.0000 0.76650  0.04820  0.33450  Biso   1.000  H
  H124     1.0000 0.73350  0.95180  0.83450  Biso   1.000  H
  H125     1.0000 0.29820  0.48350  0.58450  Biso   1.000  H
  H126     1.0000 0.20180  0.51650  0.08450  Biso   1.000  H
  H127     1.0000 0.26650  0.54820  0.83450  Biso   1.000  H
  H128     1.0000 0.23350  0.45180  0.33450  Biso   1.000  H
  H129     1.0000 0.20860  0.94040  0.92800  Biso   1.000  H
  H130     1.0000 0.29140  0.05960  0.42800  Biso   1.000  H
  H131     1.0000 0.80960  0.45860  0.17800  Biso   1.000  H
  H132     1.0000 0.69040  0.54140  0.67800  Biso   1.000  H
  H133     1.0000 0.70860  0.44040  0.42800  Biso   1.000  H
  H134     1.0000 0.79140  0.55960  0.92800  Biso   1.000  H
  H135     1.0000 0.30960  0.95860  0.67800  Biso   1.000  H
  H136     1.0000 0.19040  0.04140  0.17800  Biso   1.000  H
  H137     1.0000 0.79140  0.05960  0.07200  Biso   1.000  H
  H138     1.0000 0.70860  0.94040  0.57200  Biso   1.000  H
  H139     1.0000 0.69040  0.04140  0.32200  Biso   1.000  H
  H140     1.0000 0.80960  0.95860  0.82200  Biso   1.000  H
  H141     1.0000 0.29140  0.55960  0.57200  Biso   1.000  H
  H142     1.0000 0.20860  0.44040  0.07200  Biso   1.000  H
  H143     1.0000 0.19040  0.54140  0.82200  Biso   1.000  H
  H144     1.0000 0.30960  0.45860  0.32200  Biso   1.000  H
  C145     1.0000 0.24620  0.02430  0.94680  Biso   1.000  C
  C146     1.0000 0.25380  0.97570  0.44680  Biso   1.000  C
  C147     1.0000 0.72570  0.49620  0.19680  Biso   1.000  C
  C148     1.0000 0.77430  0.50380  0.69680  Biso   1.000  C
  C149     1.0000 0.74620  0.52430  0.44680  Biso   1.000  C
  C150     1.0000 0.75380  0.47570  0.94680  Biso   1.000  C
  C151     1.0000 0.22570  0.99620  0.69680  Biso   1.000  C
  C152     1.0000 0.27430  0.00380  0.19680  Biso   1.000  C
  C153     1.0000 0.75380  0.97570  0.05320  Biso   1.000  C
  C154     1.0000 0.74620  0.02430  0.55320  Biso   1.000  C
  C155     1.0000 0.77430  0.00380  0.30320  Biso   1.000  C
  C156     1.0000 0.72570  0.99620  0.80320  Biso   1.000  C
  C157     1.0000 0.25380  0.47570  0.55320  Biso   1.000  C
  C158     1.0000 0.24620  0.52430  0.05320  Biso   1.000  C
  C159     1.0000 0.27430  0.50380  0.80320  Biso   1.000  C
  C160     1.0000 0.22570  0.49620  0.30320  Biso   1.000  C
  H145     1.0000 0.24540  0.99620  0.96080  Biso   1.000  H
  H146     1.0000 0.25460  0.00380  0.46080  Biso   1.000  H
  H147     1.0000 0.75380  0.49540  0.21080  Biso   1.000  H
  H148     1.0000 0.74620  0.50460  0.71080  Biso   1.000  H
  H149     1.0000 0.74540  0.49620  0.46080  Biso   1.000  H
  H150     1.0000 0.75460  0.50380  0.96080  Biso   1.000  H
  H151     1.0000 0.25380  0.99540  0.71080  Biso   1.000  H
  H152     1.0000 0.24620  0.00460  0.21080  Biso   1.000  H
  H153     1.0000 0.75460  0.00380  0.03920  Biso   1.000  H
  H154     1.0000 0.74540  0.99620  0.53920  Biso   1.000  H
  H155     1.0000 0.74620  0.00460  0.28920  Biso   1.000  H
  H156     1.0000 0.75380  0.99540  0.78920  Biso   1.000  H
  H157     1.0000 0.25460  0.50380  0.53920  Biso   1.000  H
  H158     1.0000 0.24540  0.49620  0.03920  Biso   1.000  H
  H159     1.0000 0.24620  0.50460  0.78920  Biso   1.000  H
  H160     1.0000 0.25380  0.49540  0.28920  Biso   1.000  H
  H161     1.0000 0.23100  0.07390  0.95020  Biso   1.000  H
  H162     1.0000 0.26900  0.92610  0.45020  Biso   1.000  H
  H163     1.0000 0.67610  0.48100  0.20020  Biso   1.000  H
  H164     1.0000 0.82390  0.51900  0.70020  Biso   1.000  H
  H165     1.0000 0.73100  0.57390  0.45020  Biso   1.000  H
  H166     1.0000 0.76900  0.42610  0.95020  Biso   1.000  H
  H167     1.0000 0.17610  0.98100  0.70020  Biso   1.000  H
  H168     1.0000 0.32390  0.01900  0.20020  Biso   1.000  H
  H169     1.0000 0.76900  0.92610  0.04980  Biso   1.000  H
  H170     1.0000 0.73100  0.07390  0.54980  Biso   1.000  H
  H171     1.0000 0.82390  0.01900  0.29980  Biso   1.000  H
  H172     1.0000 0.67610  0.98100  0.79980  Biso   1.000  H
  H173     1.0000 0.26900  0.42610  0.54980  Biso   1.000  H
  H174     1.0000 0.23100  0.57390  0.04980  Biso   1.000  H
  H175     1.0000 0.32390  0.51900  0.79980  Biso   1.000  H
  H176     1.0000 0.17610  0.48100  0.29980  Biso   1.000  H
  C161     1.0000 0.32940  0.02420  0.93580  Biso   1.000  C
  C162     1.0000 0.17060  0.97580  0.43580  Biso   1.000  C
  C163     1.0000 0.72580  0.57940  0.18580  Biso   1.000  C
  C164     1.0000 0.77420  0.42060  0.68580  Biso   1.000  C
  C165     1.0000 0.82940  0.52420  0.43580  Biso   1.000  C
  C166     1.0000 0.67060  0.47580  0.93580  Biso   1.000  C
  C167     1.0000 0.22580  0.07940  0.68580  Biso   1.000  C
  C168     1.0000 0.27420  0.92060  0.18580  Biso   1.000  C
  C169     1.0000 0.67060  0.97580  0.06420  Biso   1.000  C
  C170     1.0000 0.82940  0.02420  0.56420  Biso   1.000  C
  C171     1.0000 0.77420  0.92060  0.31420  Biso   1.000  C
  C172     1.0000 0.72580  0.07940  0.81420  Biso   1.000  C
  C173     1.0000 0.17060  0.47580  0.56420  Biso   1.000  C
  C174     1.0000 0.32940  0.52420  0.06420  Biso   1.000  C
  C175     1.0000 0.27420  0.42060  0.81420  Biso   1.000  C
  C176     1.0000 0.22580  0.57940  0.31420  Biso   1.000  C
  H177     1.0000 0.34820  0.97480  0.93490  Biso   1.000  H
  H178     1.0000 0.15180  0.02520  0.43490  Biso   1.000  H
  H179     1.0000 0.77520  0.59820  0.18490  Biso   1.000  H
  H180     1.0000 0.72480  0.40180  0.68490  Biso   1.000  H
  H181     1.0000 0.84820  0.47480  0.43490  Biso   1.000  H
  H182     1.0000 0.65180  0.52520  0.93490  Biso   1.000  H
  H183     1.0000 0.27520  0.09820  0.68490  Biso   1.000  H
  H184     1.0000 0.22480  0.90180  0.18490  Biso   1.000  H
  H185     1.0000 0.65180  0.02520  0.06510  Biso   1.000  H
  H186     1.0000 0.84820  0.97480  0.56510  Biso   1.000  H
  H187     1.0000 0.72480  0.90180  0.31510  Biso   1.000  H
  H188     1.0000 0.77520  0.09820  0.81510  Biso   1.000  H
  H189     1.0000 0.15180  0.52520  0.56510  Biso   1.000  H
  H190     1.0000 0.34820  0.47480  0.06510  Biso   1.000  H
  H191     1.0000 0.22480  0.40180  0.81510  Biso   1.000  H
  H192     1.0000 0.27520  0.59820  0.31510  Biso   1.000  H
  H193     1.0000 0.32880  0.04500  0.92050  Biso   1.000  H
  H194     1.0000 0.17120  0.95500  0.42050  Biso   1.000  H
  H195     1.0000 0.70500  0.57880  0.17050  Biso   1.000  H
  H196     1.0000 0.79500  0.42120  0.67050  Biso   1.000  H
  H197     1.0000 0.82880  0.54500  0.42050  Biso   1.000  H
  H198     1.0000 0.67120  0.45500  0.92050  Biso   1.000  H
  H199     1.0000 0.20500  0.07880  0.67050  Biso   1.000  H
  H200     1.0000 0.29500  0.92120  0.17050  Biso   1.000  H
  H201     1.0000 0.67120  0.95500  0.07950  Biso   1.000  H
  H202     1.0000 0.82880  0.04500  0.57950  Biso   1.000  H
  H203     1.0000 0.79500  0.92120  0.32950  Biso   1.000  H
  H204     1.0000 0.70500  0.07880  0.82950  Biso   1.000  H
  H205     1.0000 0.17120  0.45500  0.57950  Biso   1.000  H
  H206     1.0000 0.32880  0.54500  0.07950  Biso   1.000  H
  H207     1.0000 0.29500  0.42120  0.82950  Biso   1.000  H
  H208     1.0000 0.20500  0.57880  0.32950  Biso   1.000  H
  C177     1.0000 0.39270  0.05410  0.97310  Biso   1.000  C
  C178     1.0000 0.10730  0.94590  0.47310  Biso   1.000  C
  C179     1.0000 0.69590  0.64270  0.22310  Biso   1.000  C
  C180     1.0000 0.80410  0.35730  0.72310  Biso   1.000  C
  C181     1.0000 0.89270  0.55410  0.47310  Biso   1.000  C
  C182     1.0000 0.60730  0.44590  0.97310  Biso   1.000  C
  C183     1.0000 0.19590  0.14270  0.72310  Biso   1.000  C
  C184     1.0000 0.30410  0.85730  0.22310  Biso   1.000  C
  C185     1.0000 0.60730  0.94590  0.02690  Biso   1.000  C
  C186     1.0000 0.89270  0.05410  0.52690  Biso   1.000  C
  C187     1.0000 0.80410  0.85730  0.27690  Biso   1.000  C
  C188     1.0000 0.69590  0.14270  0.77690  Biso   1.000  C
  C189     1.0000 0.10730  0.44590  0.52690  Biso   1.000  C
  C190     1.0000 0.39270  0.55410  0.02690  Biso   1.000  C
  C191     1.0000 0.30410  0.35730  0.77690  Biso   1.000  C
  C192     1.0000 0.19590  0.64270  0.27690  Biso   1.000  C
  C193     1.0000 0.37850  0.99990  0.98760  Biso   1.000  C
  C194     1.0000 0.12150  0.00010  0.48760  Biso   1.000  C
  C195     1.0000 0.75010  0.62850  0.23760  Biso   1.000  C
  C196     1.0000 0.74990  0.37150  0.73760  Biso   1.000  C
  C197     1.0000 0.87850  0.49990  0.48760  Biso   1.000  C
  C198     1.0000 0.62150  0.50010  0.98760  Biso   1.000  C
  C199     1.0000 0.25010  0.12850  0.73760  Biso   1.000  C
  C200     1.0000 0.24990  0.87150  0.23760  Biso   1.000  C
  C201     1.0000 0.62150  0.00010  0.01240  Biso   1.000  C
  C202     1.0000 0.87850  0.99990  0.51240  Biso   1.000  C
  C203     1.0000 0.74990  0.87150  0.26240  Biso   1.000  C
  C204     1.0000 0.75010  0.12850  0.76240  Biso   1.000  C
  C205     1.0000 0.12150  0.50010  0.51240  Biso   1.000  C
  C206     1.0000 0.37850  0.49990  0.01240  Biso   1.000  C
  C207     1.0000 0.24990  0.37150  0.76240  Biso   1.000  C
  C208     1.0000 0.25010  0.62850  0.26240  Biso   1.000  C
  H209     1.0000 0.35280  0.95880  0.98290  Biso   1.000  H
  H210     1.0000 0.14720  0.04120  0.48290  Biso   1.000  H
  H211     1.0000 0.79120  0.60280  0.23290  Biso   1.000  H
  H212     1.0000 0.70880  0.39720  0.73290  Biso   1.000  H
  H213     1.0000 0.85280  0.45880  0.48290  Biso   1.000  H
  H214     1.0000 0.64720  0.54120  0.98290  Biso   1.000  H
  H215     1.0000 0.29120  0.10280  0.73290  Biso   1.000  H
  H216     1.0000 0.20880  0.89720  0.23290  Biso   1.000  H
  H217     1.0000 0.64720  0.04120  0.01710  Biso   1.000  H
  H218     1.0000 0.85280  0.95880  0.51710  Biso   1.000  H
  H219     1.0000 0.70880  0.89720  0.26710  Biso   1.000  H
  H220     1.0000 0.79120  0.10280  0.76710  Biso   1.000  H
  H221     1.0000 0.14720  0.54120  0.51710  Biso   1.000  H
  H222     1.0000 0.35280  0.45880  0.01710  Biso   1.000  H
  H223     1.0000 0.20880  0.39720  0.76710  Biso   1.000  H
  H224     1.0000 0.29120  0.60280  0.26710  Biso   1.000  H
  C209     1.0000 0.40130  0.00530  0.00880  Biso   1.000  C
  C210     1.0000 0.09870  0.99470  0.50880  Biso   1.000  C
  C211     1.0000 0.74470  0.65130  0.25880  Biso   1.000  C
  C212     1.0000 0.75530  0.34870  0.75880  Biso   1.000  C
  C213     1.0000 0.90130  0.50530  0.50880  Biso   1.000  C
  C214     1.0000 0.59870  0.49470  0.00880  Biso   1.000  C
  C215     1.0000 0.24470  0.15130  0.75880  Biso   1.000  C
  C216     1.0000 0.25530  0.84870  0.25880  Biso   1.000  C
  C217     1.0000 0.59870  0.99470  0.99120  Biso   1.000  C
  C218     1.0000 0.90130  0.00530  0.49120  Biso   1.000  C
  C219     1.0000 0.75530  0.84870  0.24120  Biso   1.000  C
  C220     1.0000 0.74470  0.15130  0.74120  Biso   1.000  C
  C221     1.0000 0.09870  0.49470  0.49120  Biso   1.000  C
  C222     1.0000 0.40130  0.50530  0.99120  Biso   1.000  C
  C223     1.0000 0.25530  0.34870  0.74120  Biso   1.000  C
  C224     1.0000 0.24470  0.65130  0.24120  Biso   1.000  C
  H225     1.0000 0.38760  0.96960  0.01920  Biso   1.000  H
  H226     1.0000 0.11240  0.03040  0.51920  Biso   1.000  H
  H227     1.0000 0.78040  0.63760  0.26920  Biso   1.000  H
  H228     1.0000 0.71960  0.36240  0.76920  Biso   1.000  H
  H229     1.0000 0.88760  0.46960  0.51920  Biso   1.000  H
  H230     1.0000 0.61240  0.53040  0.01920  Biso   1.000  H
  H231     1.0000 0.28040  0.13760  0.76920  Biso   1.000  H
  H232     1.0000 0.21960  0.86240  0.26920  Biso   1.000  H
  H233     1.0000 0.61240  0.03040  0.98080  Biso   1.000  H
  H234     1.0000 0.88760  0.96960  0.48080  Biso   1.000  H
  H235     1.0000 0.71960  0.86240  0.23080  Biso   1.000  H
  H236     1.0000 0.78040  0.13760  0.73080  Biso   1.000  H
  H237     1.0000 0.11240  0.53040  0.48080  Biso   1.000  H
  H238     1.0000 0.38760  0.46960  0.98080  Biso   1.000  H
  H239     1.0000 0.21960  0.36240  0.73080  Biso   1.000  H
  H240     1.0000 0.28040  0.63760  0.23080  Biso   1.000  H
  C225     1.0000 0.44280  0.05930  0.01570  Biso   1.000  C
  C226     1.0000 0.05720  0.94070  0.51570  Biso   1.000  C
  C227     1.0000 0.69070  0.69280  0.26570  Biso   1.000  C
  C228     1.0000 0.80930  0.30720  0.76570  Biso   1.000  C
  C229     1.0000 0.94280  0.55930  0.51570  Biso   1.000  C
  C230     1.0000 0.55720  0.44070  0.01570  Biso   1.000  C
  C231     1.0000 0.19070  0.19280  0.76570  Biso   1.000  C
  C232     1.0000 0.30930  0.80720  0.26570  Biso   1.000  C
  C233     1.0000 0.55720  0.94070  0.98430  Biso   1.000  C
  C234     1.0000 0.94280  0.05930  0.48430  Biso   1.000  C
  C235     1.0000 0.80930  0.80720  0.23430  Biso   1.000  C
  C236     1.0000 0.69070  0.19280  0.73430  Biso   1.000  C
  C237     1.0000 0.05720  0.44070  0.48430  Biso   1.000  C
  C238     1.0000 0.44280  0.55930  0.98430  Biso   1.000  C
  C239     1.0000 0.30930  0.30720  0.73430  Biso   1.000  C
  C240     1.0000 0.19070  0.69280  0.23430  Biso   1.000  C
  H241     1.0000 0.45950  0.05950  0.03070  Biso   1.000  H
  H242     1.0000 0.04050  0.94050  0.53070  Biso   1.000  H
  H243     1.0000 0.69050  0.70950  0.28070  Biso   1.000  H
  H244     1.0000 0.80950  0.29050  0.78070  Biso   1.000  H
  H245     1.0000 0.95950  0.55950  0.53070  Biso   1.000  H
  H246     1.0000 0.54050  0.44050  0.03070  Biso   1.000  H
  H247     1.0000 0.19050  0.20950  0.78070  Biso   1.000  H
  H248     1.0000 0.30950  0.79050  0.28070  Biso   1.000  H
  H249     1.0000 0.54050  0.94050  0.96930  Biso   1.000  H
  H250     1.0000 0.95950  0.05950  0.46930  Biso   1.000  H
  H251     1.0000 0.80950  0.79050  0.21930  Biso   1.000  H
  H252     1.0000 0.69050  0.20950  0.71930  Biso   1.000  H
  H253     1.0000 0.04050  0.44050  0.46930  Biso   1.000  H
  H254     1.0000 0.45950  0.55950  0.96930  Biso   1.000  H
  H255     1.0000 0.30950  0.29050  0.71930  Biso   1.000  H
  H256     1.0000 0.19050  0.70950  0.21930  Biso   1.000  H
  C241     1.0000 0.46250  0.11630  0.00110  Biso   1.000  C
  C242     1.0000 0.03750  0.88370  0.50110  Biso   1.000  C
  C243     1.0000 0.63370  0.71250  0.25110  Biso   1.000  C
  C244     1.0000 0.86630  0.28750  0.75110  Biso   1.000  C
  C245     1.0000 0.96250  0.61630  0.50110  Biso   1.000  C
  C246     1.0000 0.53750  0.38370  0.00110  Biso   1.000  C
  C247     1.0000 0.13370  0.21250  0.75110  Biso   1.000  C
  C248     1.0000 0.36630  0.78750  0.25110  Biso   1.000  C
  C249     1.0000 0.53750  0.88370  0.99890  Biso   1.000  C
  C250     1.0000 0.96250  0.11630  0.49890  Biso   1.000  C
  C251     1.0000 0.86630  0.78750  0.24890  Biso   1.000  C
  C252     1.0000 0.63370  0.21250  0.74890  Biso   1.000  C
  C253     1.0000 0.03750  0.38370  0.49890  Biso   1.000  C
  C254     1.0000 0.46250  0.61630  0.99890  Biso   1.000  C
  C255     1.0000 0.36630  0.28750  0.74890  Biso   1.000  C
  C256     1.0000 0.13370  0.71250  0.24890  Biso   1.000  C
  H257     1.0000 0.49210  0.15480  0.00590  Biso   1.000  H
  H258     1.0000 0.00790  0.84520  0.50590  Biso   1.000  H
  H259     1.0000 0.59520  0.74210  0.25590  Biso   1.000  H
  H260     1.0000 0.90480  0.25790  0.75590  Biso   1.000  H
  H261     1.0000 0.99210  0.65480  0.50590  Biso   1.000  H
  H262     1.0000 0.50790  0.34520  0.00590  Biso   1.000  H
  H263     1.0000 0.09520  0.24210  0.75590  Biso   1.000  H
  H264     1.0000 0.40480  0.75790  0.25590  Biso   1.000  H
  H265     1.0000 0.50790  0.84520  0.99410  Biso   1.000  H
  H266     1.0000 0.99210  0.15480  0.49410  Biso   1.000  H
  H267     1.0000 0.90480  0.75790  0.24410  Biso   1.000  H
  H268     1.0000 0.59520  0.24210  0.74410  Biso   1.000  H
  H269     1.0000 0.00790  0.34520  0.49410  Biso   1.000  H
  H270     1.0000 0.49210  0.65480  0.99410  Biso   1.000  H
  H271     1.0000 0.40480  0.25790  0.74410  Biso   1.000  H
  H272     1.0000 0.09520  0.74210  0.24410  Biso   1.000  H
  C257     1.0000 0.43560  0.11220  0.97930  Biso   1.000  C
  C258     1.0000 0.06440  0.88780  0.47930  Biso   1.000  C
  C259     1.0000 0.63780  0.68560  0.22930  Biso   1.000  C
  C260     1.0000 0.86220  0.31440  0.72930  Biso   1.000  C
  C261     1.0000 0.93560  0.61220  0.47930  Biso   1.000  C
  C262     1.0000 0.56440  0.38780  0.97930  Biso   1.000  C
  C263     1.0000 0.13780  0.18560  0.72930  Biso   1.000  C
  C264     1.0000 0.36220  0.81440  0.22930  Biso   1.000  C
  C265     1.0000 0.56440  0.88780  0.02070  Biso   1.000  C
  C266     1.0000 0.93560  0.11220  0.52070  Biso   1.000  C
  C267     1.0000 0.86220  0.81440  0.27070  Biso   1.000  C
  C268     1.0000 0.63780  0.18560  0.77070  Biso   1.000  C
  C269     1.0000 0.06440  0.38780  0.52070  Biso   1.000  C
  C270     1.0000 0.43560  0.61220  0.02070  Biso   1.000  C
  C271     1.0000 0.36220  0.31440  0.77070  Biso   1.000  C
  C272     1.0000 0.13780  0.68560  0.27070  Biso   1.000  C
  C273     1.0000 0.40360  0.13150  0.94550  Biso   1.000  C
  C274     1.0000 0.09640  0.86850  0.44550  Biso   1.000  C
  C275     1.0000 0.61850  0.65360  0.19550  Biso   1.000  C
  C276     1.0000 0.88150  0.34640  0.69550  Biso   1.000  C
  C277     1.0000 0.90360  0.63150  0.44550  Biso   1.000  C
  C278     1.0000 0.59640  0.36850  0.94550  Biso   1.000  C
  C279     1.0000 0.11850  0.15360  0.69550  Biso   1.000  C
  C280     1.0000 0.38150  0.84640  0.19550  Biso   1.000  C
  C281     1.0000 0.59640  0.86850  0.05450  Biso   1.000  C
  C282     1.0000 0.90360  0.13150  0.55450  Biso   1.000  C
  C283     1.0000 0.88150  0.84640  0.30450  Biso   1.000  C
  C284     1.0000 0.61850  0.15360  0.80450  Biso   1.000  C
  C285     1.0000 0.09640  0.36850  0.55450  Biso   1.000  C
  C286     1.0000 0.40360  0.63150  0.05450  Biso   1.000  C
  C287     1.0000 0.38150  0.34640  0.80450  Biso   1.000  C
  C288     1.0000 0.11850  0.65360  0.30450  Biso   1.000  C
  H273     1.0000 0.39730  0.15380  0.93130  Biso   1.000  H
  H274     1.0000 0.10270  0.84620  0.43130  Biso   1.000  H
  H275     1.0000 0.59620  0.64730  0.18130  Biso   1.000  H
  H276     1.0000 0.90380  0.35270  0.68130  Biso   1.000  H
  H277     1.0000 0.89730  0.65380  0.43130  Biso   1.000  H
  H278     1.0000 0.60270  0.34620  0.93130  Biso   1.000  H
  H279     1.0000 0.09620  0.14730  0.68130  Biso   1.000  H
  H280     1.0000 0.40380  0.85270  0.18130  Biso   1.000  H
  H281     1.0000 0.60270  0.84620  0.06870  Biso   1.000  H
  H282     1.0000 0.89730  0.15380  0.56870  Biso   1.000  H
  H283     1.0000 0.90380  0.85270  0.31870  Biso   1.000  H
  H284     1.0000 0.59620  0.14730  0.81870  Biso   1.000  H
  H285     1.0000 0.10270  0.34620  0.56870  Biso   1.000  H
  H286     1.0000 0.39730  0.65380  0.06870  Biso   1.000  H
  H287     1.0000 0.40380  0.35270  0.81870  Biso   1.000  H
  H288     1.0000 0.09620  0.64730  0.31870  Biso   1.000  H
  C289     1.0000 0.86910  0.82570  0.94890  Biso   1.000  C
  C290     1.0000 0.63090  0.17430  0.44890  Biso   1.000  C
  C291     1.0000 0.92430  0.11910  0.19890  Biso   1.000  C
  C292     1.0000 0.57570  0.88090  0.69890  Biso   1.000  C
  C293     1.0000 0.36910  0.32570  0.44890  Biso   1.000  C
  C294     1.0000 0.13090  0.67430  0.94890  Biso   1.000  C
  C295     1.0000 0.42430  0.61910  0.69890  Biso   1.000  C
  C296     1.0000 0.07570  0.38090  0.19890  Biso   1.000  C
  C297     1.0000 0.13090  0.17430  0.05110  Biso   1.000  C
  C298     1.0000 0.36910  0.82570  0.55110  Biso   1.000  C
  C299     1.0000 0.57570  0.38090  0.30110  Biso   1.000  C
  C300     1.0000 0.92430  0.61910  0.80110  Biso   1.000  C
  C301     1.0000 0.63090  0.67430  0.55110  Biso   1.000  C
  C302     1.0000 0.86910  0.32570  0.05110  Biso   1.000  C
  C303     1.0000 0.07570  0.88090  0.80110  Biso   1.000  C
  C304     1.0000 0.42430  0.11910  0.30110  Biso   1.000  C
  H289     1.0000 0.88750  0.82730  0.93410  Biso   1.000  H
  H290     1.0000 0.61250  0.17270  0.43410  Biso   1.000  H
  H291     1.0000 0.92270  0.13750  0.18410  Biso   1.000  H
  H292     1.0000 0.57730  0.86250  0.68410  Biso   1.000  H
  H293     1.0000 0.38750  0.32730  0.43410  Biso   1.000  H
  H294     1.0000 0.11250  0.67270  0.93410  Biso   1.000  H
  H295     1.0000 0.42270  0.63750  0.68410  Biso   1.000  H
  H296     1.0000 0.07730  0.36250  0.18410  Biso   1.000  H
  H297     1.0000 0.11250  0.17270  0.06590  Biso   1.000  H
  H298     1.0000 0.38750  0.82730  0.56590  Biso   1.000  H
  H299     1.0000 0.57730  0.36250  0.31590  Biso   1.000  H
  H300     1.0000 0.92270  0.63750  0.81590  Biso   1.000  H
  H301     1.0000 0.61250  0.67270  0.56590  Biso   1.000  H
  H302     1.0000 0.88750  0.32730  0.06590  Biso   1.000  H
  H303     1.0000 0.07730  0.86250  0.81590  Biso   1.000  H
  H304     1.0000 0.42270  0.13750  0.31590  Biso   1.000  H
  C305     1.0000 0.86080  0.80790  0.98450  Biso   1.000  C
  C306     1.0000 0.63920  0.19210  0.48450  Biso   1.000  C
  C307     1.0000 0.94210  0.11080  0.23450  Biso   1.000  C
  C308     1.0000 0.55790  0.88920  0.73450  Biso   1.000  C
  C309     1.0000 0.36080  0.30790  0.48450  Biso   1.000  C
  C310     1.0000 0.13920  0.69210  0.98450  Biso   1.000  C
  C311     1.0000 0.44210  0.61080  0.73450  Biso   1.000  C
  C312     1.0000 0.05790  0.38920  0.23450  Biso   1.000  C
  C313     1.0000 0.13920  0.19210  0.01550  Biso   1.000  C
  C314     1.0000 0.36080  0.80790  0.51550  Biso   1.000  C
  C315     1.0000 0.55790  0.38920  0.26550  Biso   1.000  C
  C316     1.0000 0.94210  0.61080  0.76550  Biso   1.000  C
  C317     1.0000 0.63920  0.69210  0.51550  Biso   1.000  C
  C318     1.0000 0.86080  0.30790  0.01550  Biso   1.000  C
  C319     1.0000 0.05790  0.88920  0.76550  Biso   1.000  C
  C320     1.0000 0.44210  0.11080  0.26550  Biso   1.000  C
  C321     1.0000 0.87010  0.78790  0.00710  Biso   1.000  C
  C322     1.0000 0.62990  0.21210  0.50710  Biso   1.000  C
  C323     1.0000 0.96210  0.12010  0.25710  Biso   1.000  C
  C324     1.0000 0.53790  0.87990  0.75710  Biso   1.000  C
  C325     1.0000 0.37010  0.28790  0.50710  Biso   1.000  C
  C326     1.0000 0.12990  0.71210  0.00710  Biso   1.000  C
  C327     1.0000 0.46210  0.62010  0.75710  Biso   1.000  C
  C328     1.0000 0.03790  0.37990  0.25710  Biso   1.000  C
  C329     1.0000 0.12990  0.21210  0.99290  Biso   1.000  C
  C330     1.0000 0.37010  0.78790  0.49290  Biso   1.000  C
  C331     1.0000 0.53790  0.37990  0.24290  Biso   1.000  C
  C332     1.0000 0.96210  0.62010  0.74290  Biso   1.000  C
  C333     1.0000 0.62990  0.71210  0.49290  Biso   1.000  C
  C334     1.0000 0.87010  0.28790  0.99290  Biso   1.000  C
  C335     1.0000 0.03790  0.87990  0.74290  Biso   1.000  C
  C336     1.0000 0.46210  0.12010  0.24290  Biso   1.000  C
  H305     1.0000 0.91310  0.76550  0.01200  Biso   1.000  H
  H306     1.0000 0.58690  0.23450  0.51200  Biso   1.000  H
  H307     1.0000 0.98450  0.16310  0.26200  Biso   1.000  H
  H308     1.0000 0.51550  0.83690  0.76200  Biso   1.000  H
  H309     1.0000 0.41310  0.26550  0.51200  Biso   1.000  H
  H310     1.0000 0.08690  0.73450  0.01200  Biso   1.000  H
  H311     1.0000 0.48450  0.66310  0.76200  Biso   1.000  H
  H312     1.0000 0.01550  0.33690  0.26200  Biso   1.000  H
  H313     1.0000 0.08690  0.23450  0.98800  Biso   1.000  H
  H314     1.0000 0.41310  0.76550  0.48800  Biso   1.000  H
  H315     1.0000 0.51550  0.33690  0.23800  Biso   1.000  H
  H316     1.0000 0.98450  0.66310  0.73800  Biso   1.000  H
  H317     1.0000 0.58690  0.73450  0.48800  Biso   1.000  H
  H318     1.0000 0.91310  0.26550  0.98800  Biso   1.000  H
  H319     1.0000 0.01550  0.83690  0.73800  Biso   1.000  H
  H320     1.0000 0.48450  0.16310  0.23800  Biso   1.000  H
  C337     1.0000 0.81730  0.80140  0.02130  Biso   1.000  C
  C338     1.0000 0.68270  0.19860  0.52130  Biso   1.000  C
  C339     1.0000 0.94860  0.06730  0.27130  Biso   1.000  C
  C340     1.0000 0.55140  0.93270  0.77130  Biso   1.000  C
  C341     1.0000 0.31730  0.30140  0.52130  Biso   1.000  C
  C342     1.0000 0.18270  0.69860  0.02130  Biso   1.000  C
  C343     1.0000 0.44860  0.56730  0.77130  Biso   1.000  C
  C344     1.0000 0.05140  0.43270  0.27130  Biso   1.000  C
  C345     1.0000 0.18270  0.19860  0.97870  Biso   1.000  C
  C346     1.0000 0.31730  0.80140  0.47870  Biso   1.000  C
  C347     1.0000 0.55140  0.43270  0.22870  Biso   1.000  C
  C348     1.0000 0.94860  0.56730  0.72870  Biso   1.000  C
  C349     1.0000 0.68270  0.69860  0.47870  Biso   1.000  C
  C350     1.0000 0.81730  0.30140  0.97870  Biso   1.000  C
  C351     1.0000 0.05140  0.93270  0.72870  Biso   1.000  C
  C352     1.0000 0.44860  0.06730  0.22870  Biso   1.000  C
  H321     1.0000 0.82290  0.78850  0.03660  Biso   1.000  H
  H322     1.0000 0.67710  0.21150  0.53660  Biso   1.000  H
  H323     1.0000 0.96150  0.07290  0.28660  Biso   1.000  H
  H324     1.0000 0.53850  0.92710  0.78660  Biso   1.000  H
  H325     1.0000 0.32290  0.28850  0.53660  Biso   1.000  H
  H326     1.0000 0.17710  0.71150  0.03660  Biso   1.000  H
  H327     1.0000 0.46150  0.57290  0.78660  Biso   1.000  H
  H328     1.0000 0.03850  0.42710  0.28660  Biso   1.000  H
  H329     1.0000 0.17710  0.21150  0.96340  Biso   1.000  H
  H330     1.0000 0.32290  0.78850  0.46340  Biso   1.000  H
  H331     1.0000 0.53850  0.42710  0.21340  Biso   1.000  H
  H332     1.0000 0.96150  0.57290  0.71340  Biso   1.000  H
  H333     1.0000 0.67710  0.71150  0.46340  Biso   1.000  H
  H334     1.0000 0.82290  0.28850  0.96340  Biso   1.000  H
  H335     1.0000 0.03850  0.92710  0.71340  Biso   1.000  H
  H336     1.0000 0.46150  0.07290  0.21340  Biso   1.000  H
  C353     1.0000 0.75240  0.83450  0.01440  Biso   1.000  C
  C354     1.0000 0.74760  0.16550  0.51440  Biso   1.000  C
  C355     1.0000 0.91550  0.00240  0.26440  Biso   1.000  C
  C356     1.0000 0.58450  0.99760  0.76440  Biso   1.000  C
  C357     1.0000 0.25240  0.33450  0.51440  Biso   1.000  C
  C358     1.0000 0.24760  0.66550  0.01440  Biso   1.000  C
  C359     1.0000 0.41550  0.50240  0.76440  Biso   1.000  C
  C360     1.0000 0.08450  0.49760  0.26440  Biso   1.000  C
  C361     1.0000 0.24760  0.16550  0.98560  Biso   1.000  C
  C362     1.0000 0.25240  0.83450  0.48560  Biso   1.000  C
  C363     1.0000 0.58450  0.49760  0.23560  Biso   1.000  C
  C364     1.0000 0.91550  0.50240  0.73560  Biso   1.000  C
  C365     1.0000 0.74760  0.66550  0.48560  Biso   1.000  C
  C366     1.0000 0.75240  0.33450  0.98560  Biso   1.000  C
  C367     1.0000 0.08450  0.99760  0.73560  Biso   1.000  C
  C368     1.0000 0.41550  0.00240  0.23560  Biso   1.000  C
  H337     1.0000 0.71590  0.84190  0.02520  Biso   1.000  H
  H338     1.0000 0.78410  0.15810  0.52520  Biso   1.000  H
  H339     1.0000 0.90810  0.96590  0.27520  Biso   1.000  H
  H340     1.0000 0.59190  0.03410  0.77520  Biso   1.000  H
  H341     1.0000 0.21590  0.34190  0.52520  Biso   1.000  H
  H342     1.0000 0.28410  0.65810  0.02520  Biso   1.000  H
  H343     1.0000 0.40810  0.46590  0.77520  Biso   1.000  H
  H344     1.0000 0.09190  0.53410  0.27520  Biso   1.000  H
  H345     1.0000 0.28410  0.15810  0.97480  Biso   1.000  H
  H346     1.0000 0.21590  0.84190  0.47480  Biso   1.000  H
  H347     1.0000 0.59190  0.53410  0.22480  Biso   1.000  H
  H348     1.0000 0.90810  0.46590  0.72480  Biso   1.000  H
  H349     1.0000 0.78410  0.65810  0.47480  Biso   1.000  H
  H350     1.0000 0.71590  0.34190  0.97480  Biso   1.000  H
  H351     1.0000 0.09190  0.03410  0.72480  Biso   1.000  H
  H352     1.0000 0.40810  0.96590  0.22480  Biso   1.000  H
  C369     1.0000 0.74010  0.85650  0.99260  Biso   1.000  C
  C370     1.0000 0.75990  0.14350  0.49260  Biso   1.000  C
  C371     1.0000 0.89350  0.99010  0.24260  Biso   1.000  C
  C372     1.0000 0.60650  0.00990  0.74260  Biso   1.000  C
  C373     1.0000 0.24010  0.35650  0.49260  Biso   1.000  C
  C374     1.0000 0.25990  0.64350  0.99260  Biso   1.000  C
  C375     1.0000 0.39350  0.49010  0.74260  Biso   1.000  C
  C376     1.0000 0.10650  0.50990  0.24260  Biso   1.000  C
  C377     1.0000 0.25990  0.14350  0.00740  Biso   1.000  C
  C378     1.0000 0.24010  0.85650  0.50740  Biso   1.000  C
  C379     1.0000 0.60650  0.50990  0.25740  Biso   1.000  C
  C380     1.0000 0.89350  0.49010  0.75740  Biso   1.000  C
  C381     1.0000 0.75990  0.64350  0.50740  Biso   1.000  C
  C382     1.0000 0.74010  0.35650  0.00740  Biso   1.000  C
  C383     1.0000 0.10650  0.00990  0.75740  Biso   1.000  C
  C384     1.0000 0.39350  0.99010  0.25740  Biso   1.000  C
  H353     1.0000 0.69770  0.88070  0.98810  Biso   1.000  H
  H354     1.0000 0.80230  0.11930  0.48810  Biso   1.000  H
  H355     1.0000 0.86930  0.94770  0.23810  Biso   1.000  H
  H356     1.0000 0.63070  0.05230  0.73810  Biso   1.000  H
  H357     1.0000 0.19770  0.38070  0.48810  Biso   1.000  H
  H358     1.0000 0.30230  0.61930  0.98810  Biso   1.000  H
  H359     1.0000 0.36930  0.44770  0.73810  Biso   1.000  H
  H360     1.0000 0.13070  0.55230  0.23810  Biso   1.000  H
  H361     1.0000 0.30230  0.11930  0.01190  Biso   1.000  H
  H362     1.0000 0.19770  0.88070  0.51190  Biso   1.000  H
  H363     1.0000 0.63070  0.55230  0.26190  Biso   1.000  H
  H364     1.0000 0.86930  0.44770  0.76190  Biso   1.000  H
  H365     1.0000 0.80230  0.61930  0.51190  Biso   1.000  H
  H366     1.0000 0.69770  0.38070  0.01190  Biso   1.000  H
  H367     1.0000 0.13070  0.05230  0.76190  Biso   1.000  H
  H368     1.0000 0.36930  0.94770  0.26190  Biso   1.000  H
  C385     1.0000 0.79660  0.83950  0.97760  Biso   1.000  C
  C386     1.0000 0.70340  0.16050  0.47760  Biso   1.000  C
  C387     1.0000 0.91050  0.04660  0.22760  Biso   1.000  C
  C388     1.0000 0.58950  0.95340  0.72760  Biso   1.000  C
  C389     1.0000 0.29660  0.33950  0.47760  Biso   1.000  C
  C390     1.0000 0.20340  0.66050  0.97760  Biso   1.000  C
  C391     1.0000 0.41050  0.54660  0.72760  Biso   1.000  C
  C392     1.0000 0.08950  0.45340  0.22760  Biso   1.000  C
  C393     1.0000 0.20340  0.16050  0.02240  Biso   1.000  C
  C394     1.0000 0.29660  0.83950  0.52240  Biso   1.000  C
  C395     1.0000 0.58950  0.45340  0.27240  Biso   1.000  C
  C396     1.0000 0.91050  0.54660  0.77240  Biso   1.000  C
  C397     1.0000 0.70340  0.66050  0.52240  Biso   1.000  C
  C398     1.0000 0.79660  0.33950  0.02240  Biso   1.000  C
  C399     1.0000 0.08950  0.95340  0.77240  Biso   1.000  C
  C400     1.0000 0.41050  0.04660  0.27240  Biso   1.000  C
  C401     1.0000 0.75420  0.88630  0.93960  Biso   1.000  C
  C402     1.0000 0.74580  0.11370  0.43960  Biso   1.000  C
  C403     1.0000 0.86370  0.00420  0.18960  Biso   1.000  C
  C404     1.0000 0.63630  0.99580  0.68960  Biso   1.000  C
  C405     1.0000 0.25420  0.38630  0.43960  Biso   1.000  C
  C406     1.0000 0.24580  0.61370  0.93960  Biso   1.000  C
  C407     1.0000 0.36370  0.50420  0.68960  Biso   1.000  C
  C408     1.0000 0.13630  0.49580  0.18960  Biso   1.000  C
  C409     1.0000 0.24580  0.11370  0.06040  Biso   1.000  C
  C410     1.0000 0.25420  0.88630  0.56040  Biso   1.000  C
  C411     1.0000 0.63630  0.49580  0.31040  Biso   1.000  C
  C412     1.0000 0.86370  0.50420  0.81040  Biso   1.000  C
  C413     1.0000 0.74580  0.61370  0.56040  Biso   1.000  C
  C414     1.0000 0.75420  0.38630  0.06040  Biso   1.000  C
  C415     1.0000 0.13630  0.99580  0.81040  Biso   1.000  C
  C416     1.0000 0.36370  0.00420  0.31040  Biso   1.000  C
  H369     1.0000 0.75070  0.85510  0.92620  Biso   1.000  H
  H370     1.0000 0.74930  0.14490  0.42620  Biso   1.000  H
  H371     1.0000 0.89490  0.00070  0.17620  Biso   1.000  H
  H372     1.0000 0.60510  0.99930  0.67620  Biso   1.000  H
  H373     1.0000 0.25070  0.35510  0.42620  Biso   1.000  H
  H374     1.0000 0.24930  0.64490  0.92620  Biso   1.000  H
  H375     1.0000 0.39490  0.50070  0.67620  Biso   1.000  H
  H376     1.0000 0.10510  0.49930  0.17620  Biso   1.000  H
  H377     1.0000 0.24930  0.14490  0.07380  Biso   1.000  H
  H378     1.0000 0.25070  0.85510  0.57380  Biso   1.000  H
  H379     1.0000 0.60510  0.49930  0.32380  Biso   1.000  H
  H380     1.0000 0.89490  0.50070  0.82380  Biso   1.000  H
  H381     1.0000 0.74930  0.64490  0.57380  Biso   1.000  H
  H382     1.0000 0.75070  0.35510  0.07380  Biso   1.000  H
  H383     1.0000 0.10510  0.99930  0.82380  Biso   1.000  H
  H384     1.0000 0.39490  0.00070  0.32380  Biso   1.000  H
  H385     1.0000 0.70680  0.88480  0.94700  Biso   1.000  H
  H386     1.0000 0.79320  0.11520  0.44700  Biso   1.000  H
  H387     1.0000 0.86520  0.95680  0.19700  Biso   1.000  H
  H388     1.0000 0.63480  0.04320  0.69700  Biso   1.000  H
  H389     1.0000 0.20680  0.38480  0.44700  Biso   1.000  H
  H390     1.0000 0.29320  0.61520  0.94700  Biso   1.000  H
  H391     1.0000 0.36520  0.45680  0.69700  Biso   1.000  H
  H392     1.0000 0.13480  0.54320  0.19700  Biso   1.000  H
  H393     1.0000 0.29320  0.11520  0.05300  Biso   1.000  H
  H394     1.0000 0.20680  0.88480  0.55300  Biso   1.000  H
  H395     1.0000 0.63480  0.54320  0.30300  Biso   1.000  H
  H396     1.0000 0.86520  0.45680  0.80300  Biso   1.000  H
  H397     1.0000 0.79320  0.61520  0.55300  Biso   1.000  H
  H398     1.0000 0.70680  0.38480  0.05300  Biso   1.000  H
  H399     1.0000 0.13480  0.04320  0.80300  Biso   1.000  H
  H400     1.0000 0.36520  0.95680  0.30300  Biso   1.000  H
  C417     1.0000 0.76300  0.95910  0.93130  Biso   1.000  C
  C418     1.0000 0.73700  0.04090  0.43130  Biso   1.000  C
  C419     1.0000 0.79090  0.01300  0.18130  Biso   1.000  C
  C420     1.0000 0.70910  0.98700  0.68130  Biso   1.000  C
  C421     1.0000 0.26300  0.45910  0.43130  Biso   1.000  C
  C422     1.0000 0.23700  0.54090  0.93130  Biso   1.000  C
  C423     1.0000 0.29090  0.51300  0.68130  Biso   1.000  C
  C424     1.0000 0.20910  0.48700  0.18130  Biso   1.000  C
  C425     1.0000 0.23700  0.04090  0.06870  Biso   1.000  C
  C426     1.0000 0.26300  0.95910  0.56870  Biso   1.000  C
  C427     1.0000 0.70910  0.48700  0.31870  Biso   1.000  C
  C428     1.0000 0.79090  0.51300  0.81870  Biso   1.000  C
  C429     1.0000 0.73700  0.54090  0.56870  Biso   1.000  C
  C430     1.0000 0.76300  0.45910  0.06870  Biso   1.000  C
  C431     1.0000 0.20910  0.98700  0.81870  Biso   1.000  C
  C432     1.0000 0.29090  0.01300  0.31870  Biso   1.000  C
  H401     1.0000 0.74140  0.96370  0.91620  Biso   1.000  H
  H402     1.0000 0.75860  0.03630  0.41620  Biso   1.000  H
  H403     1.0000 0.78630  0.99140  0.16620  Biso   1.000  H
  H404     1.0000 0.71370  0.00860  0.66620  Biso   1.000  H
  H405     1.0000 0.24140  0.46370  0.41620  Biso   1.000  H
  H406     1.0000 0.25860  0.53630  0.91620  Biso   1.000  H
  H407     1.0000 0.28630  0.49140  0.66620  Biso   1.000  H
  H408     1.0000 0.21370  0.50860  0.16620  Biso   1.000  H
  H409     1.0000 0.25860  0.03630  0.08380  Biso   1.000  H
  H410     1.0000 0.24140  0.96370  0.58380  Biso   1.000  H
  H411     1.0000 0.71370  0.50860  0.33380  Biso   1.000  H
  H412     1.0000 0.78630  0.49140  0.83380  Biso   1.000  H
  H413     1.0000 0.75860  0.53630  0.58380  Biso   1.000  H
  H414     1.0000 0.74140  0.46370  0.08380  Biso   1.000  H
  H415     1.0000 0.21370  0.00860  0.83380  Biso   1.000  H
  H416     1.0000 0.28630  0.99140  0.33380  Biso   1.000  H
  H417     1.0000 0.81450  0.97120  0.93010  Biso   1.000  H
  H418     1.0000 0.68550  0.02880  0.43010  Biso   1.000  H
  H419     1.0000 0.77880  0.06450  0.18010  Biso   1.000  H
  H420     1.0000 0.72120  0.93550  0.68010  Biso   1.000  H
  H421     1.0000 0.31450  0.47120  0.43010  Biso   1.000  H
  H422     1.0000 0.18550  0.52880  0.93010  Biso   1.000  H
  H423     1.0000 0.27880  0.56450  0.68010  Biso   1.000  H
  H424     1.0000 0.22120  0.43550  0.18010  Biso   1.000  H
  H425     1.0000 0.18550  0.02880  0.06990  Biso   1.000  H
  H426     1.0000 0.31450  0.97120  0.56990  Biso   1.000  H
  H427     1.0000 0.72120  0.43550  0.31990  Biso   1.000  H
  H428     1.0000 0.77880  0.56450  0.81990  Biso   1.000  H
  H429     1.0000 0.68550  0.52880  0.56990  Biso   1.000  H
  H430     1.0000 0.81450  0.47120  0.06990  Biso   1.000  H
  H431     1.0000 0.22120  0.93550  0.81990  Biso   1.000  H
  H432     1.0000 0.27880  0.06450  0.31990  Biso   1.000  H
  C433     1.0000 0.72700  0.00810  0.94720  Biso   1.000  C
  C434     1.0000 0.77300  0.99190  0.44720  Biso   1.000  C
  C435     1.0000 0.74190  0.97700  0.19720  Biso   1.000  C
  C436     1.0000 0.75810  0.02300  0.69720  Biso   1.000  C
  C437     1.0000 0.22700  0.50810  0.44720  Biso   1.000  C
  C438     1.0000 0.27300  0.49190  0.94720  Biso   1.000  C
  C439     1.0000 0.24190  0.47700  0.69720  Biso   1.000  C
  C440     1.0000 0.25810  0.52300  0.19720  Biso   1.000  C
  C441     1.0000 0.27300  0.99190  0.05280  Biso   1.000  C
  C442     1.0000 0.22700  0.00810  0.55280  Biso   1.000  C
  C443     1.0000 0.75810  0.52300  0.30280  Biso   1.000  C
  C444     1.0000 0.74190  0.47700  0.80280  Biso   1.000  C
  C445     1.0000 0.77300  0.49190  0.55280  Biso   1.000  C
  C446     1.0000 0.72700  0.50810  0.05280  Biso   1.000  C
  C447     1.0000 0.25810  0.02300  0.80280  Biso   1.000  C
  C448     1.0000 0.24190  0.97700  0.30280  Biso   1.000  C
  H433     1.0000 0.75090  0.00580  0.96190  Biso   1.000  H
  H434     1.0000 0.74910  0.99420  0.46190  Biso   1.000  H
  H435     1.0000 0.74420  0.00090  0.21190  Biso   1.000  H
  H436     1.0000 0.75580  0.99910  0.71190  Biso   1.000  H
  H437     1.0000 0.25090  0.50580  0.46190  Biso   1.000  H
  H438     1.0000 0.24910  0.49420  0.96190  Biso   1.000  H
  H439     1.0000 0.24420  0.50090  0.71190  Biso   1.000  H
  H440     1.0000 0.25580  0.49910  0.21190  Biso   1.000  H
  H441     1.0000 0.24910  0.99420  0.03810  Biso   1.000  H
  H442     1.0000 0.25090  0.00580  0.53810  Biso   1.000  H
  H443     1.0000 0.75580  0.49910  0.28810  Biso   1.000  H
  H444     1.0000 0.74420  0.50090  0.78810  Biso   1.000  H
  H445     1.0000 0.74910  0.49420  0.53810  Biso   1.000  H
  H446     1.0000 0.75090  0.50580  0.03810  Biso   1.000  H
  H447     1.0000 0.25580  0.99910  0.78810  Biso   1.000  H
  H448     1.0000 0.24420  0.00090  0.28810  Biso   1.000  H
  H449     1.0000 0.67640  0.99370  0.94910  Biso   1.000  H
  H450     1.0000 0.82360  0.00630  0.44910  Biso   1.000  H
  H451     1.0000 0.75630  0.92640  0.19910  Biso   1.000  H
  H452     1.0000 0.74370  0.07360  0.69910  Biso   1.000  H
  H453     1.0000 0.17640  0.49370  0.44910  Biso   1.000  H
  H454     1.0000 0.32360  0.50630  0.94910  Biso   1.000  H
  H455     1.0000 0.25630  0.42640  0.69910  Biso   1.000  H
  H456     1.0000 0.24370  0.57360  0.19910  Biso   1.000  H
  H457     1.0000 0.32360  0.00630  0.05090  Biso   1.000  H
  H458     1.0000 0.17640  0.99370  0.55090  Biso   1.000  H
  H459     1.0000 0.74370  0.57360  0.30090  Biso   1.000  H
  H460     1.0000 0.75630  0.42640  0.80090  Biso   1.000  H
  H461     1.0000 0.82360  0.50630  0.55090  Biso   1.000  H
  H462     1.0000 0.67640  0.49370  0.05090  Biso   1.000  H
  H463     1.0000 0.24370  0.07360  0.80090  Biso   1.000  H
  H464     1.0000 0.25630  0.92640  0.30090  Biso   1.000  H
  C449     1.0000 0.73100  0.08910  0.93740  Biso   1.000  C
  C450     1.0000 0.76900  0.91090  0.43740  Biso   1.000  C
  C451     1.0000 0.66090  0.98100  0.18740  Biso   1.000  C
  C452     1.0000 0.83910  0.01900  0.68740  Biso   1.000  C
  C453     1.0000 0.23100  0.58910  0.43740  Biso   1.000  C
  C454     1.0000 0.26900  0.41090  0.93740  Biso   1.000  C
  C455     1.0000 0.16090  0.48100  0.68740  Biso   1.000  C
  C456     1.0000 0.33910  0.51900  0.18740  Biso   1.000  C
  C457     1.0000 0.26900  0.91090  0.06260  Biso   1.000  C
  C458     1.0000 0.23100  0.08910  0.56260  Biso   1.000  C
  C459     1.0000 0.83910  0.51900  0.31260  Biso   1.000  C
  C460     1.0000 0.66090  0.48100  0.81260  Biso   1.000  C
  C461     1.0000 0.76900  0.41090  0.56260  Biso   1.000  C
  C462     1.0000 0.73100  0.58910  0.06260  Biso   1.000  C
  C463     1.0000 0.33910  0.01900  0.81260  Biso   1.000  C
  C464     1.0000 0.16090  0.98100  0.31260  Biso   1.000  C
  H465     1.0000 0.78090  0.10710  0.93760  Biso   1.000  H
  H466     1.0000 0.71910  0.89290  0.43760  Biso   1.000  H
  H467     1.0000 0.64290  0.03090  0.18760  Biso   1.000  H
  H468     1.0000 0.85710  0.96910  0.68760  Biso   1.000  H
  H469     1.0000 0.28090  0.60710  0.43760  Biso   1.000  H
  H470     1.0000 0.21910  0.39290  0.93760  Biso   1.000  H
  H471     1.0000 0.14290  0.53090  0.68760  Biso   1.000  H
  H472     1.0000 0.35710  0.46910  0.18760  Biso   1.000  H
  H473     1.0000 0.21910  0.89290  0.06240  Biso   1.000  H
  H474     1.0000 0.28090  0.10710  0.56240  Biso   1.000  H
  H475     1.0000 0.85710  0.46910  0.31240  Biso   1.000  H
  H476     1.0000 0.64290  0.53090  0.81240  Biso   1.000  H
  H477     1.0000 0.71910  0.39290  0.56240  Biso   1.000  H
  H478     1.0000 0.78090  0.60710  0.06240  Biso   1.000  H
  H479     1.0000 0.35710  0.96910  0.81240  Biso   1.000  H
  H480     1.0000 0.14290  0.03090  0.31240  Biso   1.000  H
  H481     1.0000 0.71250  0.09120  0.92190  Biso   1.000  H
  H482     1.0000 0.78750  0.90880  0.42190  Biso   1.000  H
  H483     1.0000 0.65880  0.96250  0.17190  Biso   1.000  H
  H484     1.0000 0.84120  0.03750  0.67190  Biso   1.000  H
  H485     1.0000 0.21250  0.59120  0.42190  Biso   1.000  H
  H486     1.0000 0.28750  0.40880  0.92190  Biso   1.000  H
  H487     1.0000 0.15880  0.46250  0.67190  Biso   1.000  H
  H488     1.0000 0.34120  0.53750  0.17190  Biso   1.000  H
  H489     1.0000 0.28750  0.90880  0.07810  Biso   1.000  H
  H490     1.0000 0.21250  0.09120  0.57810  Biso   1.000  H
  H491     1.0000 0.84120  0.53750  0.32810  Biso   1.000  H
  H492     1.0000 0.65880  0.46250  0.82810  Biso   1.000  H
  H493     1.0000 0.78750  0.40880  0.57810  Biso   1.000  H
  H494     1.0000 0.71250  0.59120  0.07810  Biso   1.000  H
  H495     1.0000 0.34120  0.03750  0.82810  Biso   1.000  H
  H496     1.0000 0.15880  0.96250  0.32810  Biso   1.000  H
  C465     1.0000 0.69730  0.14760  0.97450  Biso   1.000  C
  C466     1.0000 0.80270  0.85240  0.47450  Biso   1.000  C
  C467     1.0000 0.60240  0.94730  0.22450  Biso   1.000  C
  C468     1.0000 0.89760  0.05270  0.72450  Biso   1.000  C
  C469     1.0000 0.19730  0.64760  0.47450  Biso   1.000  C
  C470     1.0000 0.30270  0.35240  0.97450  Biso   1.000  C
  C471     1.0000 0.10240  0.44730  0.72450  Biso   1.000  C
  C472     1.0000 0.39760  0.55270  0.22450  Biso   1.000  C
  C473     1.0000 0.30270  0.85240  0.02550  Biso   1.000  C
  C474     1.0000 0.19730  0.14760  0.52550  Biso   1.000  C
  C475     1.0000 0.89760  0.55270  0.27550  Biso   1.000  C
  C476     1.0000 0.60240  0.44730  0.77550  Biso   1.000  C
  C477     1.0000 0.80270  0.35240  0.52550  Biso   1.000  C
  C478     1.0000 0.69730  0.64760  0.02550  Biso   1.000  C
  C479     1.0000 0.39760  0.05270  0.77550  Biso   1.000  C
  C480     1.0000 0.10240  0.94730  0.27550  Biso   1.000  C
  C481     1.0000 0.75610  0.12940  0.98890  Biso   1.000  C
  C482     1.0000 0.74390  0.87060  0.48890  Biso   1.000  C
  C483     1.0000 0.62060  0.00610  0.23890  Biso   1.000  C
  C484     1.0000 0.87940  0.99390  0.73890  Biso   1.000  C
  C485     1.0000 0.25610  0.62940  0.48890  Biso   1.000  C
  C486     1.0000 0.24390  0.37060  0.98890  Biso   1.000  C
  C487     1.0000 0.12060  0.50610  0.73890  Biso   1.000  C
  C488     1.0000 0.37940  0.49390  0.23890  Biso   1.000  C
  C489     1.0000 0.24390  0.87060  0.01110  Biso   1.000  C
  C490     1.0000 0.25610  0.12940  0.51110  Biso   1.000  C
  C491     1.0000 0.87940  0.49390  0.26110  Biso   1.000  C
  C492     1.0000 0.62060  0.50610  0.76110  Biso   1.000  C
  C493     1.0000 0.74390  0.37060  0.51110  Biso   1.000  C
  C494     1.0000 0.75610  0.62940  0.01110  Biso   1.000  C
  C495     1.0000 0.37940  0.99390  0.76110  Biso   1.000  C
  C496     1.0000 0.12060  0.00610  0.26110  Biso   1.000  C
  H497     1.0000 0.79620  0.10200  0.98410  Biso   1.000  H
  H498     1.0000 0.70380  0.89800  0.48410  Biso   1.000  H
  H499     1.0000 0.64800  0.04620  0.23410  Biso   1.000  H
  H500     1.0000 0.85200  0.95380  0.73410  Biso   1.000  H
  H501     1.0000 0.29620  0.60200  0.48410  Biso   1.000  H
  H502     1.0000 0.20380  0.39800  0.98410  Biso   1.000  H
  H503     1.0000 0.14800  0.54620  0.73410  Biso   1.000  H
  H504     1.0000 0.35200  0.45380  0.23410  Biso   1.000  H
  H505     1.0000 0.20380  0.89800  0.01590  Biso   1.000  H
  H506     1.0000 0.29620  0.10200  0.51590  Biso   1.000  H
  H507     1.0000 0.85200  0.45380  0.26590  Biso   1.000  H
  H508     1.0000 0.64800  0.54620  0.76590  Biso   1.000  H
  H509     1.0000 0.70380  0.39800  0.51590  Biso   1.000  H
  H510     1.0000 0.79620  0.60200  0.01590  Biso   1.000  H
  H511     1.0000 0.35200  0.95380  0.76590  Biso   1.000  H
  H512     1.0000 0.14800  0.04620  0.26590  Biso   1.000  H
  C497     1.0000 0.74830  0.15610  0.01060  Biso   1.000  C
  C498     1.0000 0.75170  0.84390  0.51060  Biso   1.000  C
  C499     1.0000 0.59390  0.99830  0.26060  Biso   1.000  C
  C500     1.0000 0.90610  0.00170  0.76060  Biso   1.000  C
  C501     1.0000 0.24830  0.65610  0.51060  Biso   1.000  C
  C502     1.0000 0.25170  0.34390  0.01060  Biso   1.000  C
  C503     1.0000 0.09390  0.49830  0.76060  Biso   1.000  C
  C504     1.0000 0.40610  0.50170  0.26060  Biso   1.000  C
  C505     1.0000 0.25170  0.84390  0.98940  Biso   1.000  C
  C506     1.0000 0.24830  0.15610  0.48940  Biso   1.000  C
  C507     1.0000 0.90610  0.50170  0.23940  Biso   1.000  C
  C508     1.0000 0.59390  0.49830  0.73940  Biso   1.000  C
  C509     1.0000 0.75170  0.34390  0.48940  Biso   1.000  C
  C510     1.0000 0.74830  0.65610  0.98940  Biso   1.000  C
  C511     1.0000 0.40610  0.00170  0.73940  Biso   1.000  C
  C512     1.0000 0.09390  0.99830  0.23940  Biso   1.000  C
  H513     1.0000 0.78620  0.14900  0.02100  Biso   1.000  H
  H514     1.0000 0.71380  0.85100  0.52100  Biso   1.000  H
  H515     1.0000 0.60100  0.03620  0.27100  Biso   1.000  H
  H516     1.0000 0.89900  0.96380  0.77100  Biso   1.000  H
  H517     1.0000 0.28620  0.64900  0.52100  Biso   1.000  H
  H518     1.0000 0.21380  0.35100  0.02100  Biso   1.000  H
  H519     1.0000 0.10100  0.53620  0.77100  Biso   1.000  H
  H520     1.0000 0.39900  0.46380  0.27100  Biso   1.000  H
  H521     1.0000 0.21380  0.85100  0.97900  Biso   1.000  H
  H522     1.0000 0.28620  0.14900  0.47900  Biso   1.000  H
  H523     1.0000 0.89900  0.46380  0.22900  Biso   1.000  H
  H524     1.0000 0.60100  0.53620  0.72900  Biso   1.000  H
  H525     1.0000 0.71380  0.35100  0.47900  Biso   1.000  H
  H526     1.0000 0.78620  0.64900  0.97900  Biso   1.000  H
  H527     1.0000 0.39900  0.96380  0.72900  Biso   1.000  H
  H528     1.0000 0.10100  0.03620  0.22900  Biso   1.000  H
  C513     1.0000 0.68660  0.19300  0.01780  Biso   1.000  C
  C514     1.0000 0.81340  0.80700  0.51780  Biso   1.000  C
  C515     1.0000 0.55700  0.93660  0.26780  Biso   1.000  C
  C516     1.0000 0.94300  0.06340  0.76780  Biso   1.000  C
  C517     1.0000 0.18660  0.69300  0.51780  Biso   1.000  C
  C518     1.0000 0.31340  0.30700  0.01780  Biso   1.000  C
  C519     1.0000 0.05700  0.43660  0.76780  Biso   1.000  C
  C520     1.0000 0.44300  0.56340  0.26780  Biso   1.000  C
  C521     1.0000 0.31340  0.80700  0.98220  Biso   1.000  C
  C522     1.0000 0.18660  0.19300  0.48220  Biso   1.000  C
  C523     1.0000 0.94300  0.56340  0.23220  Biso   1.000  C
  C524     1.0000 0.55700  0.43660  0.73220  Biso   1.000  C
  C525     1.0000 0.81340  0.30700  0.48220  Biso   1.000  C
  C526     1.0000 0.68660  0.69300  0.98220  Biso   1.000  C
  C527     1.0000 0.44300  0.06340  0.73220  Biso   1.000  C
  C528     1.0000 0.05700  0.93660  0.23220  Biso   1.000  C
  H529     1.0000 0.68270  0.20770  0.03300  Biso   1.000  H
  H530     1.0000 0.81730  0.79230  0.53300  Biso   1.000  H
  H531     1.0000 0.54230  0.93270  0.28300  Biso   1.000  H
  H532     1.0000 0.95770  0.06730  0.78300  Biso   1.000  H
  H533     1.0000 0.18270  0.70770  0.53300  Biso   1.000  H
  H534     1.0000 0.31730  0.29230  0.03300  Biso   1.000  H
  H535     1.0000 0.04230  0.43270  0.78300  Biso   1.000  H
  H536     1.0000 0.45770  0.56730  0.28300  Biso   1.000  H
  H537     1.0000 0.31730  0.79230  0.96700  Biso   1.000  H
  H538     1.0000 0.18270  0.20770  0.46700  Biso   1.000  H
  H539     1.0000 0.95770  0.56730  0.21700  Biso   1.000  H
  H540     1.0000 0.54230  0.43270  0.71700  Biso   1.000  H
  H541     1.0000 0.81730  0.29230  0.46700  Biso   1.000  H
  H542     1.0000 0.68270  0.70770  0.96700  Biso   1.000  H
  H543     1.0000 0.45770  0.06730  0.71700  Biso   1.000  H
  H544     1.0000 0.04230  0.93270  0.21700  Biso   1.000  H
  C529     1.0000 0.63270  0.20780  0.00340  Biso   1.000  C
  C530     1.0000 0.86730  0.79220  0.50340  Biso   1.000  C
  C531     1.0000 0.54220  0.88270  0.25340  Biso   1.000  C
  C532     1.0000 0.95780  0.11730  0.75340  Biso   1.000  C
  C533     1.0000 0.13270  0.70780  0.50340  Biso   1.000  C
  C534     1.0000 0.36730  0.29220  0.00340  Biso   1.000  C
  C535     1.0000 0.04220  0.38270  0.75340  Biso   1.000  C
  C536     1.0000 0.45780  0.61730  0.25340  Biso   1.000  C
  C537     1.0000 0.36730  0.79220  0.99660  Biso   1.000  C
  C538     1.0000 0.13270  0.20780  0.49660  Biso   1.000  C
  C539     1.0000 0.95780  0.61730  0.24660  Biso   1.000  C
  C540     1.0000 0.54220  0.38270  0.74660  Biso   1.000  C
  C541     1.0000 0.86730  0.29220  0.49660  Biso   1.000  C
  C542     1.0000 0.63270  0.70780  0.99660  Biso   1.000  C
  C543     1.0000 0.45780  0.11730  0.74660  Biso   1.000  C
  C544     1.0000 0.04220  0.88270  0.24660  Biso   1.000  C
  H545     1.0000 0.59200  0.23390  0.00830  Biso   1.000  H
  H546     1.0000 0.90800  0.76610  0.50830  Biso   1.000  H
  H547     1.0000 0.51610  0.84200  0.25830  Biso   1.000  H
  H548     1.0000 0.98390  0.15800  0.75830  Biso   1.000  H
  H549     1.0000 0.09200  0.73390  0.50830  Biso   1.000  H
  H550     1.0000 0.40800  0.26610  0.00830  Biso   1.000  H
  H551     1.0000 0.01610  0.34200  0.75830  Biso   1.000  H
  H552     1.0000 0.48390  0.65800  0.25830  Biso   1.000  H
  H553     1.0000 0.40800  0.76610  0.99170  Biso   1.000  H
  H554     1.0000 0.09200  0.23390  0.49170  Biso   1.000  H
  H555     1.0000 0.98390  0.65800  0.24170  Biso   1.000  H
  H556     1.0000 0.51610  0.34200  0.74170  Biso   1.000  H
  H557     1.0000 0.90800  0.26610  0.49170  Biso   1.000  H
  H558     1.0000 0.59200  0.73390  0.99170  Biso   1.000  H
  H559     1.0000 0.48390  0.15800  0.74170  Biso   1.000  H
  H560     1.0000 0.01610  0.84200  0.24170  Biso   1.000  H
  C545     1.0000 0.63710  0.18450  0.98130  Biso   1.000  C
  C546     1.0000 0.86290  0.81550  0.48130  Biso   1.000  C
  C547     1.0000 0.56550  0.88710  0.23130  Biso   1.000  C
  C548     1.0000 0.93450  0.11290  0.73130  Biso   1.000  C
  C549     1.0000 0.13710  0.68450  0.48130  Biso   1.000  C
  C550     1.0000 0.36290  0.31550  0.98130  Biso   1.000  C
  C551     1.0000 0.06550  0.38710  0.73130  Biso   1.000  C
  C552     1.0000 0.43450  0.61290  0.23130  Biso   1.000  C
  C553     1.0000 0.36290  0.81550  0.01870  Biso   1.000  C
  C554     1.0000 0.13710  0.18450  0.51870  Biso   1.000  C
  C555     1.0000 0.93450  0.61290  0.26870  Biso   1.000  C
  C556     1.0000 0.56550  0.38710  0.76870  Biso   1.000  C
  C557     1.0000 0.86290  0.31550  0.51870  Biso   1.000  C
  C558     1.0000 0.63710  0.68450  0.01870  Biso   1.000  C
  C559     1.0000 0.43450  0.11290  0.76870  Biso   1.000  C
  C560     1.0000 0.06550  0.88710  0.26870  Biso   1.000  C
  C561     1.0000 0.62220  0.15960  0.94680  Biso   1.000  C
  C562     1.0000 0.87780  0.84040  0.44680  Biso   1.000  C
  C563     1.0000 0.59040  0.87220  0.19680  Biso   1.000  C
  C564     1.0000 0.90960  0.12780  0.69680  Biso   1.000  C
  C565     1.0000 0.12220  0.65960  0.44680  Biso   1.000  C
  C566     1.0000 0.37780  0.34040  0.94680  Biso   1.000  C
  C567     1.0000 0.09040  0.37220  0.69680  Biso   1.000  C
  C568     1.0000 0.40960  0.62780  0.19680  Biso   1.000  C
  C569     1.0000 0.37780  0.84040  0.05320  Biso   1.000  C
  C570     1.0000 0.12220  0.15960  0.55320  Biso   1.000  C
  C571     1.0000 0.90960  0.62780  0.30320  Biso   1.000  C
  C572     1.0000 0.59040  0.37220  0.80320  Biso   1.000  C
  C573     1.0000 0.87780  0.34040  0.55320  Biso   1.000  C
  C574     1.0000 0.62220  0.65960  0.05320  Biso   1.000  C
  C575     1.0000 0.40960  0.12780  0.80320  Biso   1.000  C
  C576     1.0000 0.09040  0.87220  0.30320  Biso   1.000  C
  H561     1.0000 0.60230  0.15660  0.93220  Biso   1.000  H
  H562     1.0000 0.89770  0.84340  0.43220  Biso   1.000  H
  H563     1.0000 0.59340  0.85230  0.18220  Biso   1.000  H
  H564     1.0000 0.90660  0.14770  0.68220  Biso   1.000  H
  H565     1.0000 0.10230  0.65660  0.43220  Biso   1.000  H
  H566     1.0000 0.39770  0.34340  0.93220  Biso   1.000  H
  H567     1.0000 0.09340  0.35230  0.68220  Biso   1.000  H
  H568     1.0000 0.40660  0.64770  0.18220  Biso   1.000  H
  H569     1.0000 0.39770  0.84340  0.06780  Biso   1.000  H
  H570     1.0000 0.10230  0.15660  0.56780  Biso   1.000  H
  H571     1.0000 0.90660  0.64770  0.31780  Biso   1.000  H
  H572     1.0000 0.59340  0.35230  0.81780  Biso   1.000  H
  H573     1.0000 0.89770  0.34340  0.56780  Biso   1.000  H
  H574     1.0000 0.60230  0.65660  0.06780  Biso   1.000  H
  H575     1.0000 0.40660  0.14770  0.81780  Biso   1.000  H
  H576     1.0000 0.09340  0.85230  0.31780  Biso   1.000  H
  O369     1.0000 0.51930  0.62430  0.10140  Biso   1.000  O
  O370     1.0000 0.98070  0.37570  0.60140  Biso   1.000  O
  O371     1.0000 0.12570  0.76930  0.35140  Biso   1.000  O
  O372     1.0000 0.37430  0.23070  0.85140  Biso   1.000  O
  O373     1.0000 0.01930  0.12430  0.60140  Biso   1.000  O
  O374     1.0000 0.48070  0.87570  0.10140  Biso   1.000  O
  O375     1.0000 0.62570  0.26930  0.85140  Biso   1.000  O
  O376     1.0000 0.87430  0.73070  0.35140  Biso   1.000  O
  O377     1.0000 0.48070  0.37570  0.89860  Biso   1.000  O
  O378     1.0000 0.01930  0.62430  0.39860  Biso   1.000  O
  O379     1.0000 0.37430  0.73070  0.14860  Biso   1.000  O
  O380     1.0000 0.12570  0.26930  0.64860  Biso   1.000  O
  O381     1.0000 0.98070  0.87570  0.39860  Biso   1.000  O
  O382     1.0000 0.51930  0.12430  0.89860  Biso   1.000  O
  O383     1.0000 0.87430  0.23070  0.64860  Biso   1.000  O
  O384     1.0000 0.62570  0.76930  0.14860  Biso   1.000  O
  O385     1.0000 0.87390  0.71120  0.90210  Biso   1.000  O
  O386     1.0000 0.62610  0.28880  0.40210  Biso   1.000  O
  O387     1.0000 0.03880  0.12390  0.15210  Biso   1.000  O
  O388     1.0000 0.46120  0.87610  0.65210  Biso   1.000  O
  O389     1.0000 0.37390  0.21120  0.40210  Biso   1.000  O
  O390     1.0000 0.12610  0.78880  0.90210  Biso   1.000  O
  O391     1.0000 0.53880  0.62390  0.65210  Biso   1.000  O
  O392     1.0000 0.96120  0.37610  0.15210  Biso   1.000  O
  O393     1.0000 0.12610  0.28880  0.09790  Biso   1.000  O
  O394     1.0000 0.37390  0.71120  0.59790  Biso   1.000  O
  O395     1.0000 0.46120  0.37610  0.34790  Biso   1.000  O
  O396     1.0000 0.03880  0.62390  0.84790  Biso   1.000  O
  O397     1.0000 0.62610  0.78880  0.59790  Biso   1.000  O
  O398     1.0000 0.87390  0.21120  0.09790  Biso   1.000  O
  O399     1.0000 0.96120  0.87610  0.84790  Biso   1.000  O
  O400     1.0000 0.53880  0.12390  0.34790  Biso   1.000  O
  O401     1.0000 0.38200  0.62980  0.11780  Biso   1.000  O
  O402     1.0000 0.11800  0.37020  0.61780  Biso   1.000  O
  O403     1.0000 0.12020  0.63200  0.36780  Biso   1.000  O
  O404     1.0000 0.37980  0.36800  0.86780  Biso   1.000  O
  O405     1.0000 0.88200  0.12980  0.61780  Biso   1.000  O
  O406     1.0000 0.61800  0.87020  0.11780  Biso   1.000  O
  O407     1.0000 0.62020  0.13200  0.86780  Biso   1.000  O
  O408     1.0000 0.87980  0.86800  0.36780  Biso   1.000  O
  O409     1.0000 0.61800  0.37020  0.88220  Biso   1.000  O
  O410     1.0000 0.88200  0.62980  0.38220  Biso   1.000  O
  O411     1.0000 0.37980  0.86800  0.13220  Biso   1.000  O
  O412     1.0000 0.12020  0.13200  0.63220  Biso   1.000  O
  O413     1.0000 0.11800  0.87020  0.38220  Biso   1.000  O
  O414     1.0000 0.38200  0.12980  0.88220  Biso   1.000  O
  O415     1.0000 0.87980  0.36800  0.63220  Biso   1.000  O
  O416     1.0000 0.62020  0.63200  0.13220  Biso   1.000  O
  O417     1.0000 0.31370  0.50270  0.12440  Biso   1.000  O
  O418     1.0000 0.18630  0.49730  0.62440  Biso   1.000  O
  O419     1.0000 0.24730  0.56370  0.37440  Biso   1.000  O
  O420     1.0000 0.25270  0.43630  0.87440  Biso   1.000  O
  O421     1.0000 0.81370  0.00270  0.62440  Biso   1.000  O
  O422     1.0000 0.68630  0.99730  0.12440  Biso   1.000  O
  O423     1.0000 0.74730  0.06370  0.87440  Biso   1.000  O
  O424     1.0000 0.75270  0.93630  0.37440  Biso   1.000  O
  O425     1.0000 0.68630  0.49730  0.87560  Biso   1.000  O
  O426     1.0000 0.81370  0.50270  0.37560  Biso   1.000  O
  O427     1.0000 0.25270  0.93630  0.12560  Biso   1.000  O
  O428     1.0000 0.24730  0.06370  0.62560  Biso   1.000  O
  O429     1.0000 0.18630  0.99730  0.37560  Biso   1.000  O
  O430     1.0000 0.31370  0.00270  0.87560  Biso   1.000  O
  O431     1.0000 0.75270  0.43630  0.62560  Biso   1.000  O
  O432     1.0000 0.74730  0.56370  0.12560  Biso   1.000  O
  C577     1.0000 0.74700  0.45500  0.93060  Biso   1.000  C
  C578     1.0000 0.75300  0.54500  0.43060  Biso   1.000  C
  C579     1.0000 0.29500  0.99700  0.18060  Biso   1.000  C
  C580     1.0000 0.20500  0.00300  0.68060  Biso   1.000  C
  C581     1.0000 0.24700  0.95500  0.43060  Biso   1.000  C
  C582     1.0000 0.25300  0.04500  0.93060  Biso   1.000  C
  C583     1.0000 0.79500  0.49700  0.68060  Biso   1.000  C
  C584     1.0000 0.70500  0.50300  0.18060  Biso   1.000  C
  C585     1.0000 0.25300  0.54500  0.06940  Biso   1.000  C
  C586     1.0000 0.24700  0.45500  0.56940  Biso   1.000  C
  C587     1.0000 0.20500  0.50300  0.31940  Biso   1.000  C
  C588     1.0000 0.29500  0.49700  0.81940  Biso   1.000  C
  C589     1.0000 0.75300  0.04500  0.56940  Biso   1.000  C
  C590     1.0000 0.74700  0.95500  0.06940  Biso   1.000  C
  C591     1.0000 0.70500  0.00300  0.81940  Biso   1.000  C
  C592     1.0000 0.79500  0.99700  0.31940  Biso   1.000  C
  C593     1.0000 0.24500  0.53060  0.94780  Biso   1.000  C
  C594     1.0000 0.25500  0.46940  0.44780  Biso   1.000  C
  C595     1.0000 0.21940  0.49500  0.19780  Biso   1.000  C
  C596     1.0000 0.28060  0.50500  0.69780  Biso   1.000  C
  C597     1.0000 0.74500  0.03060  0.44780  Biso   1.000  C
  C598     1.0000 0.75500  0.96940  0.94780  Biso   1.000  C
  C599     1.0000 0.71940  0.99500  0.69780  Biso   1.000  C
  C600     1.0000 0.78060  0.00500  0.19780  Biso   1.000  C
  C601     1.0000 0.75500  0.46940  0.05220  Biso   1.000  C
  C602     1.0000 0.74500  0.53060  0.55220  Biso   1.000  C
  C603     1.0000 0.28060  0.00500  0.30220  Biso   1.000  C
  C604     1.0000 0.21940  0.99500  0.80220  Biso   1.000  C
  C605     1.0000 0.25500  0.96940  0.55220  Biso   1.000  C
  C606     1.0000 0.24500  0.03060  0.05220  Biso   1.000  C
  C607     1.0000 0.78060  0.50500  0.80220  Biso   1.000  C
  C608     1.0000 0.71940  0.49500  0.30220  Biso   1.000  C
  C609     1.0000 0.28720  0.48450  0.93120  Biso   1.000  C
  C610     1.0000 0.21280  0.51550  0.43120  Biso   1.000  C
  C611     1.0000 0.26550  0.53720  0.18120  Biso   1.000  C
  C612     1.0000 0.23450  0.46280  0.68120  Biso   1.000  C
  C613     1.0000 0.78720  0.98450  0.43120  Biso   1.000  C
  C614     1.0000 0.71280  0.01550  0.93120  Biso   1.000  C
  C615     1.0000 0.76550  0.03720  0.68120  Biso   1.000  C
  C616     1.0000 0.73450  0.96280  0.18120  Biso   1.000  C
  C617     1.0000 0.71280  0.51550  0.06880  Biso   1.000  C
  C618     1.0000 0.78720  0.48450  0.56880  Biso   1.000  C
  C619     1.0000 0.23450  0.96280  0.31880  Biso   1.000  C
  C620     1.0000 0.26550  0.03720  0.81880  Biso   1.000  C
  C621     1.0000 0.21280  0.01550  0.56880  Biso   1.000  C
  C622     1.0000 0.28720  0.98450  0.06880  Biso   1.000  C
  C623     1.0000 0.73450  0.46280  0.81880  Biso   1.000  C
  C624     1.0000 0.76550  0.53720  0.31880  Biso   1.000  C
  C625     1.0000 0.79170  0.49900  0.94690  Biso   1.000  C
  C626     1.0000 0.70830  0.50100  0.44690  Biso   1.000  C
  C627     1.0000 0.25100  0.04170  0.19690  Biso   1.000  C
  C628     1.0000 0.24900  0.95830  0.69690  Biso   1.000  C
  C629     1.0000 0.29170  0.99900  0.44690  Biso   1.000  C
  C630     1.0000 0.20830  0.00100  0.94690  Biso   1.000  C
  C631     1.0000 0.75100  0.54170  0.69690  Biso   1.000  C
  C632     1.0000 0.74900  0.45830  0.19690  Biso   1.000  C
  C633     1.0000 0.20830  0.50100  0.05310  Biso   1.000  C
  C634     1.0000 0.29170  0.49900  0.55310  Biso   1.000  C
  C635     1.0000 0.24900  0.45830  0.30310  Biso   1.000  C
  C636     1.0000 0.25100  0.54170  0.80310  Biso   1.000  C
  C637     1.0000 0.70830  0.00100  0.55310  Biso   1.000  C
  C638     1.0000 0.79170  0.99900  0.05310  Biso   1.000  C
  C639     1.0000 0.74900  0.95830  0.80310  Biso   1.000  C
  C640     1.0000 0.75100  0.04170  0.30310  Biso   1.000  C
  H577     1.0000 0.75880  0.46670  0.91490  Biso   1.000  H
  H578     1.0000 0.74120  0.53330  0.41490  Biso   1.000  H
  H579     1.0000 0.28330  0.00880  0.16490  Biso   1.000  H
  H580     1.0000 0.21670  0.99120  0.66490  Biso   1.000  H
  H581     1.0000 0.25880  0.96670  0.41490  Biso   1.000  H
  H582     1.0000 0.24120  0.03330  0.91490  Biso   1.000  H
  H583     1.0000 0.78330  0.50880  0.66490  Biso   1.000  H
  H584     1.0000 0.71670  0.49120  0.16490  Biso   1.000  H
  H585     1.0000 0.24120  0.53330  0.08510  Biso   1.000  H
  H586     1.0000 0.25880  0.46670  0.58510  Biso   1.000  H
  H587     1.0000 0.21670  0.49120  0.33510  Biso   1.000  H
  H588     1.0000 0.28330  0.50880  0.83510  Biso   1.000  H
  H589     1.0000 0.74120  0.03330  0.58510  Biso   1.000  H
  H590     1.0000 0.75880  0.96670  0.08510  Biso   1.000  H
  H591     1.0000 0.71670  0.99120  0.83510  Biso   1.000  H
  H592     1.0000 0.78330  0.00880  0.33510  Biso   1.000  H
  H593     1.0000 0.75430  0.40320  0.93300  Biso   1.000  H
  H594     1.0000 0.74570  0.59680  0.43300  Biso   1.000  H
  H595     1.0000 0.34680  0.00430  0.18300  Biso   1.000  H
  H596     1.0000 0.15320  0.99570  0.68300  Biso   1.000  H
  H597     1.0000 0.25430  0.90320  0.43300  Biso   1.000  H
  H598     1.0000 0.24570  0.09680  0.93300  Biso   1.000  H
  H599     1.0000 0.84680  0.50430  0.68300  Biso   1.000  H
  H600     1.0000 0.65320  0.49570  0.18300  Biso   1.000  H
  H601     1.0000 0.24570  0.59680  0.06700  Biso   1.000  H
  H602     1.0000 0.25430  0.40320  0.56700  Biso   1.000  H
  H603     1.0000 0.15320  0.49570  0.31700  Biso   1.000  H
  H604     1.0000 0.34680  0.50430  0.81700  Biso   1.000  H
  H605     1.0000 0.74570  0.09680  0.56700  Biso   1.000  H
  H606     1.0000 0.75430  0.90320  0.06700  Biso   1.000  H
  H607     1.0000 0.65320  0.99570  0.81700  Biso   1.000  H
  H608     1.0000 0.84680  0.00430  0.31700  Biso   1.000  H
  H609     1.0000 0.26680  0.52680  0.96280  Biso   1.000  H
  H610     1.0000 0.23320  0.47320  0.46280  Biso   1.000  H
  H611     1.0000 0.22320  0.51680  0.21280  Biso   1.000  H
  H612     1.0000 0.27680  0.48320  0.71280  Biso   1.000  H
  H613     1.0000 0.76680  0.02680  0.46280  Biso   1.000  H
  H614     1.0000 0.73320  0.97320  0.96280  Biso   1.000  H
  H615     1.0000 0.72320  0.01680  0.71280  Biso   1.000  H
  H616     1.0000 0.77680  0.98320  0.21280  Biso   1.000  H
  H617     1.0000 0.73320  0.47320  0.03720  Biso   1.000  H
  H618     1.0000 0.76680  0.52680  0.53720  Biso   1.000  H
  H619     1.0000 0.27680  0.98320  0.28720  Biso   1.000  H
  H620     1.0000 0.22320  0.01680  0.78720  Biso   1.000  H
  H621     1.0000 0.23320  0.97320  0.53720  Biso   1.000  H
  H622     1.0000 0.26680  0.02680  0.03720  Biso   1.000  H
  H623     1.0000 0.77680  0.48320  0.78720  Biso   1.000  H
  H624     1.0000 0.72320  0.51680  0.28720  Biso   1.000  H
  H625     1.0000 0.19510  0.51320  0.94870  Biso   1.000  H
  H626     1.0000 0.30490  0.48680  0.44870  Biso   1.000  H
  H627     1.0000 0.23680  0.44510  0.19870  Biso   1.000  H
  H628     1.0000 0.26320  0.55490  0.69870  Biso   1.000  H
  H629     1.0000 0.69510  0.01320  0.44870  Biso   1.000  H
  H630     1.0000 0.80490  0.98680  0.94870  Biso   1.000  H
  H631     1.0000 0.73680  0.94510  0.69870  Biso   1.000  H
  H632     1.0000 0.76320  0.05490  0.19870  Biso   1.000  H
  H633     1.0000 0.80490  0.48680  0.05130  Biso   1.000  H
  H634     1.0000 0.69510  0.51320  0.55130  Biso   1.000  H
  H635     1.0000 0.26320  0.05490  0.30130  Biso   1.000  H
  H636     1.0000 0.23680  0.94510  0.80130  Biso   1.000  H
  H637     1.0000 0.30490  0.98680  0.55130  Biso   1.000  H
  H638     1.0000 0.19510  0.01320  0.05130  Biso   1.000  H
  H639     1.0000 0.76320  0.55490  0.80130  Biso   1.000  H
  H640     1.0000 0.73680  0.44510  0.30130  Biso   1.000  H
  H641     1.0000 0.27260  0.49470  0.91560  Biso   1.000  H
  H642     1.0000 0.22740  0.50530  0.41560  Biso   1.000  H
  H643     1.0000 0.25530  0.52260  0.16560  Biso   1.000  H
  H644     1.0000 0.24470  0.47740  0.66560  Biso   1.000  H
  H645     1.0000 0.77260  0.99470  0.41560  Biso   1.000  H
  H646     1.0000 0.72740  0.00530  0.91560  Biso   1.000  H
  H647     1.0000 0.75530  0.02260  0.66560  Biso   1.000  H
  H648     1.0000 0.74470  0.97740  0.16560  Biso   1.000  H
  H649     1.0000 0.72740  0.50530  0.08440  Biso   1.000  H
  H650     1.0000 0.77260  0.49470  0.58440  Biso   1.000  H
  H651     1.0000 0.24470  0.97740  0.33440  Biso   1.000  H
  H652     1.0000 0.25530  0.02260  0.83440  Biso   1.000  H
  H653     1.0000 0.22740  0.00530  0.58440  Biso   1.000  H
  H654     1.0000 0.27260  0.99470  0.08440  Biso   1.000  H
  H655     1.0000 0.74470  0.47740  0.83440  Biso   1.000  H
  H656     1.0000 0.75530  0.52260  0.33440  Biso   1.000  H
  H657     1.0000 0.33930  0.49300  0.93270  Biso   1.000  H
  H658     1.0000 0.16070  0.50700  0.43270  Biso   1.000  H
  H659     1.0000 0.25700  0.58930  0.18270  Biso   1.000  H
  H660     1.0000 0.24300  0.41070  0.68270  Biso   1.000  H
  H661     1.0000 0.83930  0.99300  0.43270  Biso   1.000  H
  H662     1.0000 0.66070  0.00700  0.93270  Biso   1.000  H
  H663     1.0000 0.75700  0.08930  0.68270  Biso   1.000  H
  H664     1.0000 0.74300  0.91070  0.18270  Biso   1.000  H
  H665     1.0000 0.66070  0.50700  0.06730  Biso   1.000  H
  H666     1.0000 0.83930  0.49300  0.56730  Biso   1.000  H
  H667     1.0000 0.24300  0.91070  0.31730  Biso   1.000  H
  H668     1.0000 0.25700  0.08930  0.81730  Biso   1.000  H
  H669     1.0000 0.16070  0.00700  0.56730  Biso   1.000  H
  H670     1.0000 0.33930  0.99300  0.06730  Biso   1.000  H
  H671     1.0000 0.74300  0.41070  0.81730  Biso   1.000  H
  H672     1.0000 0.75700  0.58930  0.31730  Biso   1.000  H
  H673     1.0000 0.78720  0.47940  0.96210  Biso   1.000  H
  H674     1.0000 0.71280  0.52060  0.46210  Biso   1.000  H
  H675     1.0000 0.27060  0.03720  0.21210  Biso   1.000  H
  H676     1.0000 0.22940  0.96280  0.71210  Biso   1.000  H
  H677     1.0000 0.28720  0.97940  0.46210  Biso   1.000  H
  H678     1.0000 0.21280  0.02060  0.96210  Biso   1.000  H
  H679     1.0000 0.77060  0.53720  0.71210  Biso   1.000  H
  H680     1.0000 0.72940  0.46280  0.21210  Biso   1.000  H
  H681     1.0000 0.21280  0.52060  0.03790  Biso   1.000  H
  H682     1.0000 0.28720  0.47940  0.53790  Biso   1.000  H
  H683     1.0000 0.22940  0.46280  0.28790  Biso   1.000  H
  H684     1.0000 0.27060  0.53720  0.78790  Biso   1.000  H
  H685     1.0000 0.71280  0.02060  0.53790  Biso   1.000  H
  H686     1.0000 0.78720  0.97940  0.03790  Biso   1.000  H
  H687     1.0000 0.72940  0.96280  0.78790  Biso   1.000  H
  H688     1.0000 0.77060  0.03720  0.28790  Biso   1.000  H
  H689     1.0000 0.77390  0.54930  0.94710  Biso   1.000  H
  H690     1.0000 0.72610  0.45070  0.44710  Biso   1.000  H
  H691     1.0000 0.20070  0.02390  0.19710  Biso   1.000  H
  H692     1.0000 0.29930  0.97610  0.69710  Biso   1.000  H
  H693     1.0000 0.27390  0.04930  0.44710  Biso   1.000  H
  H694     1.0000 0.22610  0.95070  0.94710  Biso   1.000  H
  H695     1.0000 0.70070  0.52390  0.69710  Biso   1.000  H
  H696     1.0000 0.79930  0.47610  0.19710  Biso   1.000  H
  H697     1.0000 0.22610  0.45070  0.05290  Biso   1.000  H
  H698     1.0000 0.27390  0.54930  0.55290  Biso   1.000  H
  H699     1.0000 0.29930  0.47610  0.30290  Biso   1.000  H
  H700     1.0000 0.20070  0.52390  0.80290  Biso   1.000  H
  H701     1.0000 0.72610  0.95070  0.55290  Biso   1.000  H
  H702     1.0000 0.77390  0.04930  0.05290  Biso   1.000  H
  H703     1.0000 0.79930  0.97610  0.80290  Biso   1.000  H
  H704     1.0000 0.70070  0.02390  0.30290  Biso   1.000  H
