data_image0
_cell_length_a       11.2178
_cell_length_b       18.8996
_cell_length_c       18.9486
_cell_angle_alpha    90
_cell_angle_beta     92.682
_cell_angle_gamma    90

_symmetry_space_group_name_H-M    "P 1"
_symmetry_int_tables_number       1

loop_
  _symmetry_equiv_pos_as_xyz
  'x, y, z'

loop_
  _atom_site_label
  _atom_site_occupancy
  _atom_site_fract_x
  _atom_site_fract_y
  _atom_site_fract_z
  _atom_site_thermal_displace_type
  _atom_site_B_iso_or_equiv
  _atom_site_type_symbol
  Cu1      1.0000 0.34301  0.86861  0.29073  Biso   1.000  Cu
  Cu2      1.0000 0.65699  0.36861  0.20927  Biso   1.000  Cu
  Cu3      1.0000 0.65699  0.13139  0.70927  Biso   1.000  Cu
  Cu4      1.0000 0.34301  0.63139  0.79073  Biso   1.000  Cu
  Cu5      1.0000 0.34634  0.76561  0.19873  Biso   1.000  Cu
  Cu6      1.0000 0.65366  0.26561  0.30127  Biso   1.000  Cu
  Cu7      1.0000 0.65366  0.23439  0.80127  Biso   1.000  Cu
  Cu8      1.0000 0.34634  0.73439  0.69873  Biso   1.000  Cu
  N1       1.0000 0.28000  0.98800  0.40990  Biso   1.000  N
  N2       1.0000 0.72000  0.48800  0.09010  Biso   1.000  N
  N3       1.0000 0.72000  0.01200  0.59010  Biso   1.000  N
  N4       1.0000 0.28000  0.51200  0.90990  Biso   1.000  N
  N5       1.0000 0.18690  0.04050  0.49140  Biso   1.000  N
  N6       1.0000 0.81310  0.54050  0.00860  Biso   1.000  N
  N7       1.0000 0.81310  0.95950  0.50860  Biso   1.000  N
  N8       1.0000 0.18690  0.45950  0.99140  Biso   1.000  N
  N9       1.0000 0.33270  0.82040  0.62350  Biso   1.000  N
  N10      1.0000 0.66730  0.32040  0.87650  Biso   1.000  N
  N11      1.0000 0.66730  0.17960  0.37650  Biso   1.000  N
  N12      1.0000 0.33270  0.67960  0.12350  Biso   1.000  N
  O1       1.0000 0.35320  0.94770  0.38060  Biso   1.000  O
  O2       1.0000 0.64680  0.44770  0.11940  Biso   1.000  O
  O3       1.0000 0.64680  0.05230  0.61940  Biso   1.000  O
  O4       1.0000 0.35320  0.55230  0.88060  Biso   1.000  O
  O5       1.0000 0.13610  0.05380  0.54870  Biso   1.000  O
  O6       1.0000 0.86390  0.55380  0.95130  Biso   1.000  O
  O7       1.0000 0.86390  0.94620  0.45130  Biso   1.000  O
  O8       1.0000 0.13610  0.44620  0.04870  Biso   1.000  O
  O9       1.0000 0.43700  0.80044  0.34807  Biso   1.000  O
  O10      1.0000 0.56300  0.30044  0.15193  Biso   1.000  O
  O11      1.0000 0.56300  0.19956  0.65193  Biso   1.000  O
  O12      1.0000 0.43700  0.69956  0.84807  Biso   1.000  O
  O13      1.0000 0.43640  0.71299  0.27032  Biso   1.000  O
  O14      1.0000 0.56360  0.21299  0.22968  Biso   1.000  O
  O15      1.0000 0.56360  0.28701  0.72968  Biso   1.000  O
  O16      1.0000 0.43640  0.78701  0.77032  Biso   1.000  O
  O17      1.0000 0.48630  0.90277  0.24995  Biso   1.000  O
  O18      1.0000 0.51370  0.40277  0.25005  Biso   1.000  O
  O19      1.0000 0.51370  0.09723  0.75005  Biso   1.000  O
  O20      1.0000 0.48630  0.59723  0.74995  Biso   1.000  O
  O21      1.0000 0.49390  0.81400  0.17374  Biso   1.000  O
  O22      1.0000 0.50610  0.31400  0.32626  Biso   1.000  O
  O23      1.0000 0.50610  0.18600  0.82626  Biso   1.000  O
  O24      1.0000 0.49390  0.68600  0.67374  Biso   1.000  O
  O25      1.0000 0.24630  0.91630  0.21507  Biso   1.000  O
  O26      1.0000 0.75370  0.41630  0.28493  Biso   1.000  O
  O27      1.0000 0.75370  0.08370  0.78493  Biso   1.000  O
  O28      1.0000 0.24630  0.58370  0.71507  Biso   1.000  O
  O29      1.0000 0.25670  0.82973  0.13665  Biso   1.000  O
  O30      1.0000 0.74330  0.32973  0.36335  Biso   1.000  O
  O31      1.0000 0.74330  0.17027  0.86335  Biso   1.000  O
  O32      1.0000 0.25670  0.67027  0.63665  Biso   1.000  O
  O33      1.0000 0.19990  0.82780  0.32664  Biso   1.000  O
  O34      1.0000 0.80010  0.32780  0.17336  Biso   1.000  O
  O35      1.0000 0.80010  0.17220  0.67336  Biso   1.000  O
  O36      1.0000 0.19990  0.67220  0.82664  Biso   1.000  O
  O37      1.0000 0.19800  0.74182  0.24679  Biso   1.000  O
  O38      1.0000 0.80200  0.24182  0.25321  Biso   1.000  O
  O39      1.0000 0.80200  0.25818  0.75321  Biso   1.000  O
  O40      1.0000 0.19800  0.75818  0.74679  Biso   1.000  O
  C1       1.0000 0.25210  0.98400  0.47680  Biso   1.000  C
  C2       1.0000 0.74790  0.48400  0.02320  Biso   1.000  C
  C3       1.0000 0.74790  0.01600  0.52320  Biso   1.000  C
  C4       1.0000 0.25210  0.51600  0.97680  Biso   1.000  C
  C5       1.0000 0.17230  0.09050  0.43090  Biso   1.000  C
  C6       1.0000 0.82770  0.59050  0.06910  Biso   1.000  C
  C7       1.0000 0.82770  0.90950  0.56910  Biso   1.000  C
  C8       1.0000 0.17230  0.40950  0.93090  Biso   1.000  C
  C9       1.0000 0.20800  0.04340  0.36960  Biso   1.000  C
  C10      1.0000 0.79200  0.54340  0.13040  Biso   1.000  C
  C11      1.0000 0.79200  0.95660  0.63040  Biso   1.000  C
  C12      1.0000 0.20800  0.45660  0.86960  Biso   1.000  C
  C13      1.0000 0.05260  0.12610  0.42650  Biso   1.000  C
  C14      1.0000 0.94740  0.62610  0.07350  Biso   1.000  C
  C15      1.0000 0.94740  0.87390  0.57350  Biso   1.000  C
  C16      1.0000 0.05260  0.37390  0.92650  Biso   1.000  C
  H1       1.0000 0.99120  0.09110  0.41940  Biso   1.000  H
  H2       1.0000 0.00880  0.59110  0.08060  Biso   1.000  H
  H3       1.0000 0.00880  0.90890  0.58060  Biso   1.000  H
  H4       1.0000 0.99120  0.40890  0.91940  Biso   1.000  H
  H5       1.0000 0.04920  0.15880  0.38760  Biso   1.000  H
  H6       1.0000 0.95080  0.65880  0.11240  Biso   1.000  H
  H7       1.0000 0.95080  0.84120  0.61240  Biso   1.000  H
  H8       1.0000 0.04920  0.34120  0.88760  Biso   1.000  H
  H9       1.0000 0.04070  0.15120  0.46960  Biso   1.000  H
  H10      1.0000 0.95930  0.65120  0.03040  Biso   1.000  H
  H11      1.0000 0.95930  0.84880  0.53040  Biso   1.000  H
  H12      1.0000 0.04070  0.34880  0.96960  Biso   1.000  H
  C17      1.0000 0.26970  0.14510  0.44800  Biso   1.000  C
  C18      1.0000 0.73030  0.64510  0.05200  Biso   1.000  C
  C19      1.0000 0.73030  0.85490  0.55200  Biso   1.000  C
  C20      1.0000 0.26970  0.35490  0.94800  Biso   1.000  C
  H13      1.0000 0.24880  0.17230  0.48830  Biso   1.000  H
  H14      1.0000 0.75120  0.67230  0.01170  Biso   1.000  H
  H15      1.0000 0.75120  0.82770  0.51170  Biso   1.000  H
  H16      1.0000 0.24880  0.32770  0.98830  Biso   1.000  H
  H17      1.0000 0.27740  0.17590  0.40820  Biso   1.000  H
  H18      1.0000 0.72260  0.67590  0.09180  Biso   1.000  H
  H19      1.0000 0.72260  0.82410  0.59180  Biso   1.000  H
  H20      1.0000 0.27740  0.32410  0.90820  Biso   1.000  H
  H21      1.0000 0.34410  0.12130  0.45820  Biso   1.000  H
  H22      1.0000 0.65590  0.62130  0.04180  Biso   1.000  H
  H23      1.0000 0.65590  0.87870  0.54180  Biso   1.000  H
  H24      1.0000 0.34410  0.37870  0.95820  Biso   1.000  H
  C21      1.0000 0.09690  0.00660  0.33780  Biso   1.000  C
  C22      1.0000 0.90310  0.50660  0.16220  Biso   1.000  C
  C23      1.0000 0.90310  0.99340  0.66220  Biso   1.000  C
  C24      1.0000 0.09690  0.49340  0.83780  Biso   1.000  C
  H25      1.0000 0.12010  0.96610  0.31110  Biso   1.000  H
  H26      1.0000 0.87990  0.46610  0.18890  Biso   1.000  H
  H27      1.0000 0.87990  0.03390  0.68890  Biso   1.000  H
  H28      1.0000 0.12010  0.53390  0.81110  Biso   1.000  H
  H29      1.0000 0.05300  0.03890  0.30740  Biso   1.000  H
  H30      1.0000 0.94700  0.53890  0.19260  Biso   1.000  H
  H31      1.0000 0.94700  0.96110  0.69260  Biso   1.000  H
  H32      1.0000 0.05300  0.46110  0.80740  Biso   1.000  H
  H33      1.0000 0.04760  0.99160  0.37510  Biso   1.000  H
  H34      1.0000 0.95240  0.49160  0.12490  Biso   1.000  H
  H35      1.0000 0.95240  0.00840  0.62490  Biso   1.000  H
  H36      1.0000 0.04760  0.50840  0.87510  Biso   1.000  H
  C25      1.0000 0.28500  0.07300  0.31300  Biso   1.000  C
  C26      1.0000 0.71500  0.57300  0.18700  Biso   1.000  C
  C27      1.0000 0.71500  0.92700  0.68700  Biso   1.000  C
  C28      1.0000 0.28500  0.42700  0.81300  Biso   1.000  C
  H37      1.0000 0.36200  0.08510  0.33320  Biso   1.000  H
  H38      1.0000 0.63800  0.58510  0.16680  Biso   1.000  H
  H39      1.0000 0.63800  0.91490  0.66680  Biso   1.000  H
  H40      1.0000 0.36200  0.41490  0.83320  Biso   1.000  H
  H41      1.0000 0.24750  0.11470  0.29280  Biso   1.000  H
  H42      1.0000 0.75250  0.61470  0.20720  Biso   1.000  H
  H43      1.0000 0.75250  0.88530  0.70720  Biso   1.000  H
  H44      1.0000 0.24750  0.38530  0.79280  Biso   1.000  H
  H45      1.0000 0.29310  0.03820  0.27650  Biso   1.000  H
  H46      1.0000 0.70690  0.53820  0.22350  Biso   1.000  H
  H47      1.0000 0.70690  0.96180  0.72350  Biso   1.000  H
  H48      1.0000 0.29310  0.46180  0.77650  Biso   1.000  H
  C29      1.0000 0.31540  0.80860  0.55600  Biso   1.000  C
  C30      1.0000 0.68460  0.30860  0.94400  Biso   1.000  C
  C31      1.0000 0.68460  0.19140  0.44400  Biso   1.000  C
  C32      1.0000 0.31540  0.69140  0.05600  Biso   1.000  C
  H49      1.0000 0.31760  0.76190  0.54070  Biso   1.000  H
  H50      1.0000 0.68240  0.26190  0.95930  Biso   1.000  H
  H51      1.0000 0.68240  0.23810  0.45930  Biso   1.000  H
  H52      1.0000 0.31760  0.73810  0.04070  Biso   1.000  H
  C33      1.0000 0.29410  0.86030  0.50610  Biso   1.000  C
  C34      1.0000 0.70590  0.36030  0.99390  Biso   1.000  C
  C35      1.0000 0.70590  0.13970  0.49390  Biso   1.000  C
  C36      1.0000 0.29410  0.63970  0.00610  Biso   1.000  C
  H53      1.0000 0.28650  0.84850  0.45840  Biso   1.000  H
  H54      1.0000 0.71350  0.34850  0.04160  Biso   1.000  H
  H55      1.0000 0.71350  0.15150  0.54160  Biso   1.000  H
  H56      1.0000 0.28650  0.65150  0.95840  Biso   1.000  H
  C37      1.0000 0.28430  0.92820  0.52660  Biso   1.000  C
  C38      1.0000 0.71570  0.42820  0.97340  Biso   1.000  C
  C39      1.0000 0.71570  0.07180  0.47340  Biso   1.000  C
  C40      1.0000 0.28430  0.57180  0.02660  Biso   1.000  C
  C41      1.0000 0.30210  0.94250  0.59750  Biso   1.000  C
  C42      1.0000 0.69790  0.44250  0.90250  Biso   1.000  C
  C43      1.0000 0.69790  0.05750  0.40250  Biso   1.000  C
  C44      1.0000 0.30210  0.55750  0.09750  Biso   1.000  C
  H57      1.0000 0.29780  0.98870  0.61430  Biso   1.000  H
  H58      1.0000 0.70220  0.48870  0.88570  Biso   1.000  H
  H59      1.0000 0.70220  0.01130  0.38570  Biso   1.000  H
  H60      1.0000 0.29780  0.51130  0.11430  Biso   1.000  H
  C45      1.0000 0.32650  0.88690  0.64310  Biso   1.000  C
  C46      1.0000 0.67350  0.38690  0.85690  Biso   1.000  C
  C47      1.0000 0.67350  0.11310  0.35690  Biso   1.000  C
  C48      1.0000 0.32650  0.61310  0.14310  Biso   1.000  C
  H61      1.0000 0.33940  0.89720  0.69080  Biso   1.000  H
  H62      1.0000 0.66060  0.39720  0.80920  Biso   1.000  H
  H63      1.0000 0.66060  0.10280  0.30920  Biso   1.000  H
  H64      1.0000 0.33940  0.60280  0.19080  Biso   1.000  H
  C49      1.0000 0.46450  0.73950  0.32950  Biso   1.000  C
  C50      1.0000 0.53550  0.23950  0.17050  Biso   1.000  C
  C51      1.0000 0.53550  0.26050  0.67050  Biso   1.000  C
  C52      1.0000 0.46450  0.76050  0.82950  Biso   1.000  C
  C53      1.0000 0.53460  0.69330  0.38190  Biso   1.000  C
  C54      1.0000 0.46540  0.19330  0.11810  Biso   1.000  C
  C55      1.0000 0.46540  0.30670  0.61810  Biso   1.000  C
  C56      1.0000 0.53460  0.80670  0.88190  Biso   1.000  C
  C57      1.0000 0.60760  0.73970  0.43390  Biso   1.000  C
  C58      1.0000 0.39240  0.23970  0.06610  Biso   1.000  C
  C59      1.0000 0.39240  0.26030  0.56610  Biso   1.000  C
  C60      1.0000 0.60760  0.76030  0.93390  Biso   1.000  C
  H65      1.0000 0.66040  0.76920  0.40840  Biso   1.000  H
  H66      1.0000 0.33960  0.26920  0.09160  Biso   1.000  H
  H67      1.0000 0.33960  0.23080  0.59160  Biso   1.000  H
  H68      1.0000 0.66040  0.73080  0.90840  Biso   1.000  H
  H69      1.0000 0.65360  0.71020  0.46620  Biso   1.000  H
  H70      1.0000 0.34640  0.21020  0.03380  Biso   1.000  H
  H71      1.0000 0.34640  0.28980  0.53380  Biso   1.000  H
  H72      1.0000 0.65360  0.78980  0.96620  Biso   1.000  H
  H73      1.0000 0.55490  0.76890  0.45980  Biso   1.000  H
  H74      1.0000 0.44510  0.26890  0.04020  Biso   1.000  H
  H75      1.0000 0.44510  0.23110  0.54020  Biso   1.000  H
  H76      1.0000 0.55490  0.73110  0.95980  Biso   1.000  H
  C61      1.0000 0.43880  0.65340  0.42140  Biso   1.000  C
  C62      1.0000 0.56120  0.15340  0.07860  Biso   1.000  C
  C63      1.0000 0.56120  0.34660  0.57860  Biso   1.000  C
  C64      1.0000 0.43880  0.84660  0.92140  Biso   1.000  C
  H77      1.0000 0.39540  0.68620  0.44910  Biso   1.000  H
  H78      1.0000 0.60460  0.18620  0.05090  Biso   1.000  H
  H79      1.0000 0.60460  0.31380  0.55090  Biso   1.000  H
  H80      1.0000 0.39540  0.81380  0.94910  Biso   1.000  H
  H81      1.0000 0.47620  0.61850  0.45190  Biso   1.000  H
  H82      1.0000 0.52380  0.11850  0.04810  Biso   1.000  H
  H83      1.0000 0.52380  0.38150  0.54810  Biso   1.000  H
  H84      1.0000 0.47620  0.88150  0.95190  Biso   1.000  H
  H85      1.0000 0.38480  0.63050  0.38780  Biso   1.000  H
  H86      1.0000 0.61520  0.13050  0.11220  Biso   1.000  H
  H87      1.0000 0.61520  0.36950  0.61220  Biso   1.000  H
  H88      1.0000 0.38480  0.86950  0.88780  Biso   1.000  H
  C65      1.0000 0.61330  0.64360  0.34390  Biso   1.000  C
  C66      1.0000 0.38670  0.14360  0.15610  Biso   1.000  C
  C67      1.0000 0.38670  0.35640  0.65610  Biso   1.000  C
  C68      1.0000 0.61330  0.85640  0.84390  Biso   1.000  C
  H89      1.0000 0.56490  0.61290  0.31410  Biso   1.000  H
  H90      1.0000 0.43510  0.11290  0.18590  Biso   1.000  H
  H91      1.0000 0.43510  0.38710  0.68590  Biso   1.000  H
  H92      1.0000 0.56490  0.88710  0.81410  Biso   1.000  H
  H93      1.0000 0.65950  0.61590  0.37760  Biso   1.000  H
  H94      1.0000 0.34050  0.11590  0.12240  Biso   1.000  H
  H95      1.0000 0.34050  0.38410  0.62240  Biso   1.000  H
  H96      1.0000 0.65950  0.88410  0.87760  Biso   1.000  H
  H97      1.0000 0.66590  0.67020  0.31540  Biso   1.000  H
  H98      1.0000 0.33410  0.17020  0.18460  Biso   1.000  H
  H99      1.0000 0.33410  0.32980  0.68460  Biso   1.000  H
  H100     1.0000 0.66590  0.82980  0.81540  Biso   1.000  H
  C69      1.0000 0.53370  0.86870  0.20120  Biso   1.000  C
  C70      1.0000 0.46630  0.36870  0.29880  Biso   1.000  C
  C71      1.0000 0.46630  0.13130  0.79880  Biso   1.000  C
  C72      1.0000 0.53370  0.63130  0.70120  Biso   1.000  C
  C73      1.0000 0.64720  0.89880  0.17450  Biso   1.000  C
  C74      1.0000 0.35280  0.39880  0.32550  Biso   1.000  C
  C75      1.0000 0.35280  0.10120  0.82550  Biso   1.000  C
  C76      1.0000 0.64720  0.60120  0.67450  Biso   1.000  C
  C77      1.0000 0.71310  0.94490  0.22780  Biso   1.000  C
  C78      1.0000 0.28690  0.44490  0.27220  Biso   1.000  C
  C79      1.0000 0.28690  0.05510  0.77220  Biso   1.000  C
  C80      1.0000 0.71310  0.55510  0.72780  Biso   1.000  C
  H101     1.0000 0.66180  0.98250  0.24190  Biso   1.000  H
  H102     1.0000 0.33820  0.48250  0.25810  Biso   1.000  H
  H103     1.0000 0.33820  0.01750  0.75810  Biso   1.000  H
  H104     1.0000 0.66180  0.51750  0.74190  Biso   1.000  H
  H105     1.0000 0.78230  0.96460  0.20720  Biso   1.000  H
  H106     1.0000 0.21770  0.46460  0.29280  Biso   1.000  H
  H107     1.0000 0.21770  0.03540  0.79280  Biso   1.000  H
  H108     1.0000 0.78230  0.53540  0.70720  Biso   1.000  H
  H109     1.0000 0.73750  0.91710  0.26840  Biso   1.000  H
  H110     1.0000 0.26250  0.41710  0.23160  Biso   1.000  H
  H111     1.0000 0.26250  0.08290  0.73160  Biso   1.000  H
  H112     1.0000 0.73750  0.58290  0.76840  Biso   1.000  H
  C81      1.0000 0.60600  0.94120  0.10870  Biso   1.000  C
  C82      1.0000 0.39400  0.44120  0.39130  Biso   1.000  C
  C83      1.0000 0.39400  0.05880  0.89130  Biso   1.000  C
  C84      1.0000 0.60600  0.55880  0.60870  Biso   1.000  C
  H113     1.0000 0.57760  0.90930  0.07220  Biso   1.000  H
  H114     1.0000 0.42240  0.40930  0.42780  Biso   1.000  H
  H115     1.0000 0.42240  0.09070  0.92780  Biso   1.000  H
  H116     1.0000 0.57760  0.59070  0.57220  Biso   1.000  H
  H117     1.0000 0.67170  0.96820  0.09230  Biso   1.000  H
  H118     1.0000 0.32830  0.46820  0.40770  Biso   1.000  H
  H119     1.0000 0.32830  0.03180  0.90770  Biso   1.000  H
  H120     1.0000 0.67170  0.53180  0.59230  Biso   1.000  H
  H121     1.0000 0.54270  0.97270  0.12050  Biso   1.000  H
  H122     1.0000 0.45730  0.47270  0.37950  Biso   1.000  H
  H123     1.0000 0.45730  0.02730  0.87950  Biso   1.000  H
  H124     1.0000 0.54270  0.52730  0.62050  Biso   1.000  H
  C85      1.0000 0.72460  0.83740  0.15030  Biso   1.000  C
  C86      1.0000 0.27540  0.33740  0.34970  Biso   1.000  C
  C87      1.0000 0.27540  0.16260  0.84970  Biso   1.000  C
  C88      1.0000 0.72460  0.66260  0.65030  Biso   1.000  C
  H125     1.0000 0.75420  0.81100  0.19070  Biso   1.000  H
  H126     1.0000 0.24580  0.31100  0.30930  Biso   1.000  H
  H127     1.0000 0.24580  0.18900  0.80930  Biso   1.000  H
  H128     1.0000 0.75420  0.68900  0.69070  Biso   1.000  H
  H129     1.0000 0.79060  0.85580  0.12550  Biso   1.000  H
  H130     1.0000 0.20940  0.35580  0.37450  Biso   1.000  H
  H131     1.0000 0.20940  0.14420  0.87450  Biso   1.000  H
  H132     1.0000 0.79060  0.64420  0.62550  Biso   1.000  H
  H133     1.0000 0.67760  0.80690  0.11950  Biso   1.000  H
  H134     1.0000 0.32240  0.30690  0.38050  Biso   1.000  H
  H135     1.0000 0.32240  0.19310  0.88050  Biso   1.000  H
  H136     1.0000 0.67760  0.69310  0.61950  Biso   1.000  H
  C89      1.0000 0.22160  0.88930  0.15510  Biso   1.000  C
  C90      1.0000 0.77840  0.38930  0.34490  Biso   1.000  C
  C91      1.0000 0.77840  0.11070  0.84490  Biso   1.000  C
  C92      1.0000 0.22160  0.61070  0.65510  Biso   1.000  C
  C93      1.0000 0.14730  0.93110  0.10140  Biso   1.000  C
  C94      1.0000 0.85270  0.43110  0.39860  Biso   1.000  C
  C95      1.0000 0.85270  0.06890  0.89860  Biso   1.000  C
  C96      1.0000 0.14730  0.56890  0.60140  Biso   1.000  C
  C97      1.0000 0.22360  0.94560  0.03860  Biso   1.000  C
  C98      1.0000 0.77640  0.44560  0.46140  Biso   1.000  C
  C99      1.0000 0.77640  0.05440  0.96140  Biso   1.000  C
  C100     1.0000 0.22360  0.55440  0.53860  Biso   1.000  C
  H137     1.0000 0.29610  0.96870  0.05460  Biso   1.000  H
  H138     1.0000 0.70390  0.46870  0.44540  Biso   1.000  H
  H139     1.0000 0.70390  0.03130  0.94540  Biso   1.000  H
  H140     1.0000 0.29610  0.53130  0.55460  Biso   1.000  H
  H141     1.0000 0.18040  0.97540  0.00540  Biso   1.000  H
  H142     1.0000 0.81960  0.47540  0.49460  Biso   1.000  H
  H143     1.0000 0.81960  0.02460  0.99460  Biso   1.000  H
  H144     1.0000 0.18040  0.52460  0.50540  Biso   1.000  H
  H145     1.0000 0.24240  0.90160  0.01620  Biso   1.000  H
  H146     1.0000 0.75760  0.40160  0.48380  Biso   1.000  H
  H147     1.0000 0.75760  0.09840  0.98380  Biso   1.000  H
  H148     1.0000 0.24240  0.59840  0.51620  Biso   1.000  H
  C101     1.0000 0.04200  0.88470  0.07720  Biso   1.000  C
  C102     1.0000 0.95800  0.38470  0.42280  Biso   1.000  C
  C103     1.0000 0.95800  0.11530  0.92280  Biso   1.000  C
  C104     1.0000 0.04200  0.61530  0.57720  Biso   1.000  C
  H149     1.0000 0.07070  0.83910  0.06330  Biso   1.000  H
  H150     1.0000 0.92930  0.33910  0.43670  Biso   1.000  H
  H151     1.0000 0.92930  0.16090  0.93670  Biso   1.000  H
  H152     1.0000 0.07070  0.66090  0.56330  Biso   1.000  H
  H153     1.0000 0.99970  0.90660  0.03780  Biso   1.000  H
  H154     1.0000 0.00030  0.40660  0.46220  Biso   1.000  H
  H155     1.0000 0.00030  0.09340  0.96220  Biso   1.000  H
  H156     1.0000 0.99970  0.59340  0.53780  Biso   1.000  H
  H157     1.0000 0.98930  0.87900  0.11530  Biso   1.000  H
  H158     1.0000 0.01070  0.37900  0.38470  Biso   1.000  H
  H159     1.0000 0.01070  0.12100  0.88470  Biso   1.000  H
  H160     1.0000 0.98930  0.62100  0.61530  Biso   1.000  H
  C105     1.0000 0.10500  0.00070  0.13060  Biso   1.000  C
  C106     1.0000 0.89500  0.50070  0.36940  Biso   1.000  C
  C107     1.0000 0.89500  0.99930  0.86940  Biso   1.000  C
  C108     1.0000 0.10500  0.49930  0.63060  Biso   1.000  C
  H161     1.0000 0.05760  0.99190  0.17070  Biso   1.000  H
  H162     1.0000 0.94240  0.49190  0.32930  Biso   1.000  H
  H163     1.0000 0.94240  0.00810  0.82930  Biso   1.000  H
  H164     1.0000 0.05760  0.50810  0.67070  Biso   1.000  H
  H165     1.0000 0.05730  0.02510  0.09480  Biso   1.000  H
  H166     1.0000 0.94270  0.52510  0.40520  Biso   1.000  H
  H167     1.0000 0.94270  0.97490  0.90520  Biso   1.000  H
  H168     1.0000 0.05730  0.47490  0.59480  Biso   1.000  H
  H169     1.0000 0.17250  0.02930  0.14480  Biso   1.000  H
  H170     1.0000 0.82750  0.52930  0.35520  Biso   1.000  H
  H171     1.0000 0.82750  0.97070  0.85520  Biso   1.000  H
  H172     1.0000 0.17250  0.47070  0.64480  Biso   1.000  H
  C109     1.0000 0.15690  0.77290  0.29800  Biso   1.000  C
  C110     1.0000 0.84310  0.27290  0.20200  Biso   1.000  C
  C111     1.0000 0.84310  0.22710  0.70200  Biso   1.000  C
  C112     1.0000 0.15690  0.72710  0.79800  Biso   1.000  C
  C113     1.0000 0.04670  0.74200  0.32930  Biso   1.000  C
  C114     1.0000 0.95330  0.24200  0.17070  Biso   1.000  C
  C115     1.0000 0.95330  0.25800  0.67070  Biso   1.000  C
  C116     1.0000 0.04670  0.75800  0.82930  Biso   1.000  C
  C117     1.0000 0.96670  0.80340  0.35230  Biso   1.000  C
  C118     1.0000 0.03330  0.30340  0.14770  Biso   1.000  C
  C119     1.0000 0.03330  0.19660  0.64770  Biso   1.000  C
  C120     1.0000 0.96670  0.69660  0.85230  Biso   1.000  C
  H173     1.0000 0.01330  0.83590  0.38110  Biso   1.000  H
  H174     1.0000 0.98670  0.33590  0.11890  Biso   1.000  H
  H175     1.0000 0.98670  0.16410  0.61890  Biso   1.000  H
  H176     1.0000 0.01330  0.66410  0.88110  Biso   1.000  H
  H177     1.0000 0.90290  0.78500  0.37890  Biso   1.000  H
  H178     1.0000 0.09710  0.28500  0.12110  Biso   1.000  H
  H179     1.0000 0.09710  0.21500  0.62110  Biso   1.000  H
  H180     1.0000 0.90290  0.71500  0.87890  Biso   1.000  H
  H181     1.0000 0.93420  0.82760  0.31120  Biso   1.000  H
  H182     1.0000 0.06580  0.32760  0.18880  Biso   1.000  H
  H183     1.0000 0.06580  0.17240  0.68880  Biso   1.000  H
  H184     1.0000 0.93420  0.67240  0.81120  Biso   1.000  H
  C121     1.0000 0.97600  0.69300  0.28060  Biso   1.000  C
  C122     1.0000 0.02400  0.19300  0.21940  Biso   1.000  C
  C123     1.0000 0.02400  0.30700  0.71940  Biso   1.000  C
  C124     1.0000 0.97600  0.80700  0.78060  Biso   1.000  C
  H185     1.0000 0.95440  0.71730  0.23740  Biso   1.000  H
  H186     1.0000 0.04560  0.21730  0.26260  Biso   1.000  H
  H187     1.0000 0.04560  0.28270  0.76260  Biso   1.000  H
  H188     1.0000 0.95440  0.78270  0.73740  Biso   1.000  H
  H189     1.0000 0.90510  0.67810  0.30290  Biso   1.000  H
  H190     1.0000 0.09490  0.17810  0.19710  Biso   1.000  H
  H191     1.0000 0.09490  0.32190  0.69710  Biso   1.000  H
  H192     1.0000 0.90510  0.82190  0.80290  Biso   1.000  H
  H193     1.0000 0.02360  0.65230  0.27050  Biso   1.000  H
  H194     1.0000 0.97640  0.15230  0.22950  Biso   1.000  H
  H195     1.0000 0.97640  0.34770  0.72950  Biso   1.000  H
  H196     1.0000 0.02360  0.84770  0.77050  Biso   1.000  H
  C125     1.0000 0.08720  0.70250  0.39620  Biso   1.000  C
  C126     1.0000 0.91280  0.20250  0.10380  Biso   1.000  C
  C127     1.0000 0.91280  0.29750  0.60380  Biso   1.000  C
  C128     1.0000 0.08720  0.79750  0.89620  Biso   1.000  C
  H197     1.0000 0.14290  0.66620  0.38470  Biso   1.000  H
  H198     1.0000 0.85710  0.16620  0.11530  Biso   1.000  H
  H199     1.0000 0.85710  0.33380  0.61530  Biso   1.000  H
  H200     1.0000 0.14290  0.83380  0.88470  Biso   1.000  H
  H201     1.0000 0.01940  0.68140  0.41690  Biso   1.000  H
  H202     1.0000 0.98060  0.18140  0.08310  Biso   1.000  H
  H203     1.0000 0.98060  0.31860  0.58310  Biso   1.000  H
  H204     1.0000 0.01940  0.81860  0.91690  Biso   1.000  H
  H205     1.0000 0.12490  0.73500  0.42920  Biso   1.000  H
  H206     1.0000 0.87510  0.23500  0.07080  Biso   1.000  H
  H207     1.0000 0.87510  0.26500  0.57080  Biso   1.000  H
  H208     1.0000 0.12490  0.76500  0.92920  Biso   1.000  H
  C129     1.0000 0.51500  0.61480  0.36600  Biso   1.000  C
  C130     1.0000 0.48500  0.11480  0.13400  Biso   1.000  C
  C131     1.0000 0.48500  0.38520  0.63400  Biso   1.000  C
  C132     1.0000 0.51500  0.88520  0.86600  Biso   1.000  C
  C133     1.0000 0.66440  0.71000  0.37140  Biso   1.000  C
  C134     1.0000 0.33560  0.21000  0.12860  Biso   1.000  C
  C135     1.0000 0.33560  0.29000  0.62860  Biso   1.000  C
  C136     1.0000 0.66440  0.79000  0.87140  Biso   1.000  C
  C137     1.0000 0.50400  0.70800  0.45680  Biso   1.000  C
  C138     1.0000 0.49600  0.20800  0.04320  Biso   1.000  C
  C139     1.0000 0.49600  0.29200  0.54320  Biso   1.000  C
  C140     1.0000 0.50400  0.79200  0.95680  Biso   1.000  C
  C141     1.0000 0.69300  0.88400  0.10200  Biso   1.000  C
  C142     1.0000 0.30700  0.38400  0.39800  Biso   1.000  C
  C143     1.0000 0.30700  0.11600  0.89800  Biso   1.000  C
  C144     1.0000 0.69300  0.61600  0.60200  Biso   1.000  C
  C145     1.0000 0.74100  0.86700  0.22800  Biso   1.000  C
  C146     1.0000 0.25900  0.36700  0.27200  Biso   1.000  C
  C147     1.0000 0.25900  0.13300  0.77200  Biso   1.000  C
  C148     1.0000 0.74100  0.63300  0.72800  Biso   1.000  C
  C149     1.0000 0.65600  0.97900  0.18600  Biso   1.000  C
  C150     1.0000 0.34400  0.47900  0.31400  Biso   1.000  C
  C151     1.0000 0.34400  0.02100  0.81400  Biso   1.000  C
  C152     1.0000 0.65600  0.52100  0.68600  Biso   1.000  C
  C153     1.0000 0.03500  0.95700  0.13580  Biso   1.000  C
  C154     1.0000 0.96500  0.45700  0.36420  Biso   1.000  C
  C155     1.0000 0.96500  0.04300  0.86420  Biso   1.000  C
  C156     1.0000 0.03500  0.54300  0.63580  Biso   1.000  C
  C157     1.0000 0.22300  0.99400  0.08100  Biso   1.000  C
  C158     1.0000 0.77700  0.49400  0.41900  Biso   1.000  C
  C159     1.0000 0.77700  0.00600  0.91900  Biso   1.000  C
  C160     1.0000 0.22300  0.50600  0.58100  Biso   1.000  C
  C161     1.0000 0.11000  0.88780  0.03600  Biso   1.000  C
  C162     1.0000 0.89000  0.38780  0.46400  Biso   1.000  C
  C163     1.0000 0.89000  0.11220  0.96400  Biso   1.000  C
  C164     1.0000 0.11000  0.61220  0.53600  Biso   1.000  C
  C165     1.0000 0.27200  0.06400  0.38600  Biso   1.000  C
  C166     1.0000 0.72800  0.56400  0.11400  Biso   1.000  C
  C167     1.0000 0.72800  0.93600  0.61400  Biso   1.000  C
  C168     1.0000 0.27200  0.43600  0.88600  Biso   1.000  C
  C169     1.0000 0.06700  0.66100  0.33600  Biso   1.000  C
  C170     1.0000 0.93300  0.16100  0.16400  Biso   1.000  C
  C171     1.0000 0.93300  0.33900  0.66400  Biso   1.000  C
  C172     1.0000 0.06700  0.83900  0.83600  Biso   1.000  C
  C173     1.0000 0.94800  0.75400  0.27350  Biso   1.000  C
  C174     1.0000 0.05200  0.25400  0.22650  Biso   1.000  C
  C175     1.0000 0.05200  0.24600  0.72650  Biso   1.000  C
  C176     1.0000 0.94800  0.74600  0.77350  Biso   1.000  C
  C177     1.0000 0.01900  0.76990  0.40110  Biso   1.000  C
  C178     1.0000 0.98100  0.26990  0.09890  Biso   1.000  C
  C179     1.0000 0.98100  0.23010  0.59890  Biso   1.000  C
  C180     1.0000 0.01900  0.73010  0.90110  Biso   1.000  C
  C181     1.0000 0.07500  0.05100  0.38700  Biso   1.000  C
  C182     1.0000 0.92500  0.55100  0.11300  Biso   1.000  C
  C183     1.0000 0.92500  0.94900  0.61300  Biso   1.000  C
  C184     1.0000 0.07500  0.44900  0.88700  Biso   1.000  C
  C185     1.0000 0.14300  0.16600  0.44600  Biso   1.000  C
  C186     1.0000 0.85700  0.66600  0.05400  Biso   1.000  C
  C187     1.0000 0.85700  0.83400  0.55400  Biso   1.000  C
  C188     1.0000 0.14300  0.33400  0.94600  Biso   1.000  C
  C189     1.0000 0.36800  0.11500  0.41700  Biso   1.000  C
  C190     1.0000 0.63200  0.61500  0.08300  Biso   1.000  C
  C191     1.0000 0.63200  0.88500  0.58300  Biso   1.000  C
  C192     1.0000 0.36800  0.38500  0.91700  Biso   1.000  C
  C193     1.0000 0.25000  0.07300  0.30700  Biso   1.000  C
  C194     1.0000 0.75000  0.57300  0.19300  Biso   1.000  C
  C195     1.0000 0.75000  0.92700  0.69300  Biso   1.000  C
  C196     1.0000 0.25000  0.42700  0.80700  Biso   1.000  C
  H209     1.0000 0.43130  0.60410  0.36660  Biso   1.000  H
  H210     1.0000 0.56870  0.10410  0.13340  Biso   1.000  H
  H211     1.0000 0.56870  0.39590  0.63340  Biso   1.000  H
  H212     1.0000 0.43130  0.89590  0.86660  Biso   1.000  H
  H213     1.0000 0.55780  0.58690  0.40110  Biso   1.000  H
  H214     1.0000 0.44220  0.08690  0.09890  Biso   1.000  H
  H215     1.0000 0.44220  0.41310  0.59890  Biso   1.000  H
  H216     1.0000 0.55780  0.91310  0.90110  Biso   1.000  H
  H217     1.0000 0.54340  0.60400  0.32020  Biso   1.000  H
  H218     1.0000 0.45660  0.10400  0.17980  Biso   1.000  H
  H219     1.0000 0.45660  0.39600  0.67980  Biso   1.000  H
  H220     1.0000 0.54340  0.89600  0.82020  Biso   1.000  H
  H221     1.0000 0.68250  0.70040  0.32330  Biso   1.000  H
  H222     1.0000 0.31750  0.20040  0.17670  Biso   1.000  H
  H223     1.0000 0.31750  0.29960  0.67670  Biso   1.000  H
  H224     1.0000 0.68250  0.79960  0.82330  Biso   1.000  H
  H225     1.0000 0.71390  0.68130  0.40260  Biso   1.000  H
  H226     1.0000 0.28610  0.18130  0.09740  Biso   1.000  H
  H227     1.0000 0.28610  0.31870  0.59740  Biso   1.000  H
  H228     1.0000 0.71390  0.81870  0.90260  Biso   1.000  H
  H229     1.0000 0.67920  0.75910  0.38160  Biso   1.000  H
  H230     1.0000 0.32080  0.25910  0.11840  Biso   1.000  H
  H231     1.0000 0.32080  0.24090  0.61840  Biso   1.000  H
  H232     1.0000 0.67920  0.74090  0.88160  Biso   1.000  H
  H233     1.0000 0.51160  0.75770  0.46630  Biso   1.000  H
  H234     1.0000 0.48840  0.25770  0.03370  Biso   1.000  H
  H235     1.0000 0.48840  0.24230  0.53370  Biso   1.000  H
  H236     1.0000 0.51160  0.74230  0.96630  Biso   1.000  H
  H237     1.0000 0.55660  0.68200  0.48850  Biso   1.000  H
  H238     1.0000 0.44340  0.18200  0.01150  Biso   1.000  H
  H239     1.0000 0.44340  0.31800  0.51150  Biso   1.000  H
  H240     1.0000 0.55660  0.81800  0.98850  Biso   1.000  H
  H241     1.0000 0.42290  0.69360  0.46340  Biso   1.000  H
  H242     1.0000 0.57710  0.19360  0.03660  Biso   1.000  H
  H243     1.0000 0.57710  0.30640  0.53660  Biso   1.000  H
  H244     1.0000 0.42290  0.80640  0.96340  Biso   1.000  H
  H245     1.0000 0.68160  0.83530  0.09030  Biso   1.000  H
  H246     1.0000 0.31840  0.33530  0.40970  Biso   1.000  H
  H247     1.0000 0.31840  0.16470  0.90970  Biso   1.000  H
  H248     1.0000 0.68160  0.66470  0.59030  Biso   1.000  H
  H249     1.0000 0.77700  0.89530  0.10210  Biso   1.000  H
  H250     1.0000 0.22300  0.39530  0.39790  Biso   1.000  H
  H251     1.0000 0.22300  0.10470  0.89790  Biso   1.000  H
  H252     1.0000 0.77700  0.60470  0.60210  Biso   1.000  H
  H253     1.0000 0.65090  0.91320  0.06750  Biso   1.000  H
  H254     1.0000 0.34910  0.41320  0.43250  Biso   1.000  H
  H255     1.0000 0.34910  0.08680  0.93250  Biso   1.000  H
  H256     1.0000 0.65090  0.58680  0.56750  Biso   1.000  H
  H257     1.0000 0.72050  0.87930  0.27520  Biso   1.000  H
  H258     1.0000 0.27950  0.37930  0.22480  Biso   1.000  H
  H259     1.0000 0.27950  0.12070  0.72480  Biso   1.000  H
  H260     1.0000 0.72050  0.62070  0.77520  Biso   1.000  H
  H261     1.0000 0.81830  0.88590  0.21920  Biso   1.000  H
  H262     1.0000 0.18170  0.38590  0.28080  Biso   1.000  H
  H263     1.0000 0.18170  0.11410  0.78080  Biso   1.000  H
  H264     1.0000 0.81830  0.61410  0.71920  Biso   1.000  H
  H265     1.0000 0.74210  0.81660  0.22320  Biso   1.000  H
  H266     1.0000 0.25790  0.31660  0.27680  Biso   1.000  H
  H267     1.0000 0.25790  0.18340  0.77680  Biso   1.000  H
  H268     1.0000 0.74210  0.68340  0.72320  Biso   1.000  H
  H269     1.0000 0.59350  0.00230  0.15820  Biso   1.000  H
  H270     1.0000 0.40650  0.50230  0.34180  Biso   1.000  H
  H271     1.0000 0.40650  0.99770  0.84180  Biso   1.000  H
  H272     1.0000 0.59350  0.49770  0.65820  Biso   1.000  H
  H273     1.0000 0.73190  0.99580  0.17210  Biso   1.000  H
  H274     1.0000 0.26810  0.49580  0.32790  Biso   1.000  H
  H275     1.0000 0.26810  0.00420  0.82790  Biso   1.000  H
  H276     1.0000 0.73190  0.50420  0.67210  Biso   1.000  H
  H277     1.0000 0.64690  0.98970  0.23510  Biso   1.000  H
  H278     1.0000 0.35310  0.48970  0.26490  Biso   1.000  H
  H279     1.0000 0.35310  0.01030  0.76490  Biso   1.000  H
  H280     1.0000 0.64690  0.51030  0.73510  Biso   1.000  H
  H281     1.0000 0.98290  0.91810  0.14370  Biso   1.000  H
  H282     1.0000 0.01710  0.41810  0.35630  Biso   1.000  H
  H283     1.0000 0.01710  0.08190  0.85630  Biso   1.000  H
  H284     1.0000 0.98290  0.58190  0.64370  Biso   1.000  H
  H285     1.0000 0.99440  0.99100  0.10520  Biso   1.000  H
  H286     1.0000 0.00560  0.49100  0.39480  Biso   1.000  H
  H287     1.0000 0.00560  0.00900  0.89480  Biso   1.000  H
  H288     1.0000 0.99440  0.50900  0.60520  Biso   1.000  H
  H289     1.0000 0.05660  0.97950  0.18020  Biso   1.000  H
  H290     1.0000 0.94340  0.47950  0.31980  Biso   1.000  H
  H291     1.0000 0.94340  0.02050  0.81980  Biso   1.000  H
  H292     1.0000 0.05660  0.52050  0.68020  Biso   1.000  H
  H293     1.0000 0.23480  0.02460  0.12060  Biso   1.000  H
  H294     1.0000 0.76520  0.52460  0.37940  Biso   1.000  H
  H295     1.0000 0.76520  0.97540  0.87940  Biso   1.000  H
  H296     1.0000 0.23480  0.47540  0.62060  Biso   1.000  H
  H297     1.0000 0.18300  0.01870  0.04250  Biso   1.000  H
  H298     1.0000 0.81700  0.51870  0.45750  Biso   1.000  H
  H299     1.0000 0.81700  0.98130  0.95750  Biso   1.000  H
  H300     1.0000 0.18300  0.48130  0.54250  Biso   1.000  H
  H301     1.0000 0.29880  0.97690  0.06630  Biso   1.000  H
  H302     1.0000 0.70120  0.47690  0.43370  Biso   1.000  H
  H303     1.0000 0.70120  0.02310  0.93370  Biso   1.000  H
  H304     1.0000 0.29880  0.52310  0.56630  Biso   1.000  H
  H305     1.0000 0.17700  0.88140  0.00760  Biso   1.000  H
  H306     1.0000 0.82300  0.38140  0.49240  Biso   1.000  H
  H307     1.0000 0.82300  0.11860  0.99240  Biso   1.000  H
  H308     1.0000 0.17700  0.61860  0.50760  Biso   1.000  H
  H309     1.0000 0.04750  0.91220  0.00990  Biso   1.000  H
  H310     1.0000 0.95250  0.41220  0.49010  Biso   1.000  H
  H311     1.0000 0.95250  0.08780  0.99010  Biso   1.000  H
  H312     1.0000 0.04750  0.58780  0.50990  Biso   1.000  H
  H313     1.0000 0.08100  0.84250  0.05090  Biso   1.000  H
  H314     1.0000 0.91900  0.34250  0.44910  Biso   1.000  H
  H315     1.0000 0.91900  0.15750  0.94910  Biso   1.000  H
  H316     1.0000 0.08100  0.65750  0.55090  Biso   1.000  H
  H317     1.0000 0.07810  0.64130  0.29000  Biso   1.000  H
  H318     1.0000 0.92190  0.14130  0.21000  Biso   1.000  H
  H319     1.0000 0.92190  0.35870  0.71000  Biso   1.000  H
  H320     1.0000 0.07810  0.85870  0.79000  Biso   1.000  H
  H321     1.0000 0.99910  0.63940  0.35610  Biso   1.000  H
  H322     1.0000 0.00090  0.13940  0.14390  Biso   1.000  H
  H323     1.0000 0.00090  0.36060  0.64390  Biso   1.000  H
  H324     1.0000 0.99910  0.86060  0.85610  Biso   1.000  H
  H325     1.0000 0.13700  0.65210  0.36590  Biso   1.000  H
  H326     1.0000 0.86300  0.15210  0.13410  Biso   1.000  H
  H327     1.0000 0.86300  0.34790  0.63410  Biso   1.000  H
  H328     1.0000 0.13700  0.84790  0.86590  Biso   1.000  H
  H329     1.0000 0.92320  0.80220  0.27380  Biso   1.000  H
  H330     1.0000 0.07680  0.30220  0.22620  Biso   1.000  H
  H331     1.0000 0.07680  0.19780  0.72620  Biso   1.000  H
  H332     1.0000 0.92320  0.69780  0.77380  Biso   1.000  H
  H333     1.0000 0.88090  0.72390  0.28340  Biso   1.000  H
  H334     1.0000 0.11910  0.22390  0.21660  Biso   1.000  H
  H335     1.0000 0.11910  0.27610  0.71660  Biso   1.000  H
  H336     1.0000 0.88090  0.77610  0.78340  Biso   1.000  H
  H337     1.0000 0.97580  0.74180  0.22790  Biso   1.000  H
  H338     1.0000 0.02420  0.24180  0.27210  Biso   1.000  H
  H339     1.0000 0.02420  0.25820  0.77210  Biso   1.000  H
  H340     1.0000 0.97580  0.75820  0.72790  Biso   1.000  H
  H341     1.0000 0.08490  0.76050  0.43390  Biso   1.000  H
  H342     1.0000 0.91510  0.26050  0.06610  Biso   1.000  H
  H343     1.0000 0.91510  0.23950  0.56610  Biso   1.000  H
  H344     1.0000 0.08490  0.73950  0.93390  Biso   1.000  H
  H345     1.0000 0.94860  0.74700  0.41700  Biso   1.000  H
  H346     1.0000 0.05140  0.24700  0.08300  Biso   1.000  H
  H347     1.0000 0.05140  0.25300  0.58300  Biso   1.000  H
  H348     1.0000 0.94860  0.75300  0.91700  Biso   1.000  H
  H349     1.0000 0.00540  0.82000  0.39830  Biso   1.000  H
  H350     1.0000 0.99460  0.32000  0.10170  Biso   1.000  H
  H351     1.0000 0.99460  0.18000  0.60170  Biso   1.000  H
  H352     1.0000 0.00540  0.68000  0.89830  Biso   1.000  H
  H353     1.0000 0.09010  0.00130  0.38900  Biso   1.000  H
  H354     1.0000 0.90990  0.50130  0.11100  Biso   1.000  H
  H355     1.0000 0.90990  0.99870  0.61100  Biso   1.000  H
  H356     1.0000 0.09010  0.49870  0.88900  Biso   1.000  H
  H357     1.0000 0.07430  0.06710  0.33900  Biso   1.000  H
  H358     1.0000 0.92570  0.56710  0.16100  Biso   1.000  H
  H359     1.0000 0.92570  0.93290  0.66100  Biso   1.000  H
  H360     1.0000 0.07430  0.43290  0.83900  Biso   1.000  H
  H361     1.0000 0.99840  0.06080  0.40620  Biso   1.000  H
  H362     1.0000 0.00160  0.56080  0.09380  Biso   1.000  H
  H363     1.0000 0.00160  0.93920  0.59380  Biso   1.000  H
  H364     1.0000 0.99840  0.43920  0.90620  Biso   1.000  H
  H365     1.0000 0.06120  0.16970  0.45820  Biso   1.000  H
  H366     1.0000 0.93880  0.66970  0.04180  Biso   1.000  H
  H367     1.0000 0.93880  0.83030  0.54180  Biso   1.000  H
  H368     1.0000 0.06120  0.33030  0.95820  Biso   1.000  H
  H369     1.0000 0.15460  0.19420  0.40420  Biso   1.000  H
  H370     1.0000 0.84540  0.69420  0.09580  Biso   1.000  H
  H371     1.0000 0.84540  0.80580  0.59580  Biso   1.000  H
  H372     1.0000 0.15460  0.30580  0.90420  Biso   1.000  H
  H373     1.0000 0.19410  0.18330  0.48390  Biso   1.000  H
  H374     1.0000 0.80590  0.68330  0.01610  Biso   1.000  H
  H375     1.0000 0.80590  0.81670  0.51610  Biso   1.000  H
  H376     1.0000 0.19410  0.31670  0.98390  Biso   1.000  H
  H377     1.0000 0.37770  0.10820  0.46710  Biso   1.000  H
  H378     1.0000 0.62230  0.60820  0.03290  Biso   1.000  H
  H379     1.0000 0.62230  0.89180  0.53290  Biso   1.000  H
  H380     1.0000 0.37770  0.39180  0.96710  Biso   1.000  H
  H381     1.0000 0.34240  0.16320  0.40770  Biso   1.000  H
  H382     1.0000 0.65760  0.66320  0.09230  Biso   1.000  H
  H383     1.0000 0.65760  0.83680  0.59230  Biso   1.000  H
  H384     1.0000 0.34240  0.33680  0.90770  Biso   1.000  H
  H385     1.0000 0.44200  0.10690  0.39540  Biso   1.000  H
  H386     1.0000 0.55800  0.60690  0.10460  Biso   1.000  H
  H387     1.0000 0.55800  0.89310  0.60460  Biso   1.000  H
  H388     1.0000 0.44200  0.39310  0.89540  Biso   1.000  H
  H389     1.0000 0.31660  0.06140  0.28240  Biso   1.000  H
  H390     1.0000 0.68340  0.56140  0.21760  Biso   1.000  H
  H391     1.0000 0.68340  0.93860  0.71760  Biso   1.000  H
  H392     1.0000 0.31660  0.43860  0.78240  Biso   1.000  H
  H393     1.0000 0.22530  0.12170  0.29770  Biso   1.000  H
  H394     1.0000 0.77470  0.62170  0.20230  Biso   1.000  H
  H395     1.0000 0.77470  0.87830  0.70230  Biso   1.000  H
  H396     1.0000 0.22530  0.37830  0.79770  Biso   1.000  H
  H397     1.0000 0.18200  0.04290  0.29190  Biso   1.000  H
  H398     1.0000 0.81800  0.54290  0.20810  Biso   1.000  H
  H399     1.0000 0.81800  0.95710  0.70810  Biso   1.000  H
  H400     1.0000 0.18200  0.45710  0.79190  Biso   1.000  H
