data_image0
_cell_length_a       31.7036
_cell_length_b       16.0921
_cell_length_c       15.3216
_cell_angle_alpha    90
_cell_angle_beta     96.689
_cell_angle_gamma    90

_symmetry_space_group_name_H-M    "P 1"
_symmetry_int_tables_number       1

loop_
  _symmetry_equiv_pos_as_xyz
  'x, y, z'

loop_
  _atom_site_label
  _atom_site_occupancy
  _atom_site_fract_x
  _atom_site_fract_y
  _atom_site_fract_z
  _atom_site_thermal_displace_type
  _atom_site_B_iso_or_equiv
  _atom_site_type_symbol
  Cu1      1.0000 0.85255  0.24471  0.76913  Biso   1.000  Cu
  Cu2      1.0000 0.35255  0.74471  0.76913  Biso   1.000  Cu
  Cu3      1.0000 0.14745  0.24471  0.73087  Biso   1.000  Cu
  Cu4      1.0000 0.64745  0.74471  0.73087  Biso   1.000  Cu
  Cu5      1.0000 0.14745  0.75529  0.23087  Biso   1.000  Cu
  Cu6      1.0000 0.64745  0.25529  0.23087  Biso   1.000  Cu
  Cu7      1.0000 0.85255  0.75529  0.26913  Biso   1.000  Cu
  Cu8      1.0000 0.35255  0.25529  0.26913  Biso   1.000  Cu
  Cu9      1.0000 0.18327  0.26274  0.03228  Biso   1.000  Cu
  Cu10     1.0000 0.68327  0.76274  0.03228  Biso   1.000  Cu
  Cu11     1.0000 0.81673  0.26274  0.46772  Biso   1.000  Cu
  Cu12     1.0000 0.31672  0.76274  0.46772  Biso   1.000  Cu
  Cu13     1.0000 0.81673  0.73726  0.96772  Biso   1.000  Cu
  Cu14     1.0000 0.31672  0.23726  0.96772  Biso   1.000  Cu
  Cu15     1.0000 0.18327  0.73726  0.53228  Biso   1.000  Cu
  Cu16     1.0000 0.68327  0.23726  0.53228  Biso   1.000  Cu
  S1       1.0000 0.25901  0.26628  0.17927  Biso   1.000  S
  S2       1.0000 0.75901  0.76628  0.17927  Biso   1.000  S
  S3       1.0000 0.74099  0.26628  0.32073  Biso   1.000  S
  S4       1.0000 0.24099  0.76628  0.32073  Biso   1.000  S
  S5       1.0000 0.74099  0.73372  0.82073  Biso   1.000  S
  S6       1.0000 0.24099  0.23372  0.82073  Biso   1.000  S
  S7       1.0000 0.25901  0.73372  0.67927  Biso   1.000  S
  S8       1.0000 0.75901  0.23372  0.67927  Biso   1.000  S
  O1       1.0000 0.30612  0.26349  0.17683  Biso   1.000  O
  O2       1.0000 0.80612  0.76349  0.17683  Biso   1.000  O
  O3       1.0000 0.69388  0.26349  0.32317  Biso   1.000  O
  O4       1.0000 0.19388  0.76349  0.32317  Biso   1.000  O
  O5       1.0000 0.69388  0.73651  0.82317  Biso   1.000  O
  O6       1.0000 0.19388  0.23651  0.82317  Biso   1.000  O
  O7       1.0000 0.30612  0.73651  0.67683  Biso   1.000  O
  O8       1.0000 0.80612  0.23651  0.67683  Biso   1.000  O
  O9       1.0000 0.24710  0.34000  0.22440  Biso   1.000  O
  O10      1.0000 0.74710  0.84000  0.22440  Biso   1.000  O
  O11      1.0000 0.75290  0.34000  0.27560  Biso   1.000  O
  O12      1.0000 0.25290  0.84000  0.27560  Biso   1.000  O
  O13      1.0000 0.75290  0.66000  0.77560  Biso   1.000  O
  O14      1.0000 0.25290  0.16000  0.77560  Biso   1.000  O
  O15      1.0000 0.24710  0.66000  0.72440  Biso   1.000  O
  O16      1.0000 0.74710  0.16000  0.72440  Biso   1.000  O
  O17      1.0000 0.24163  0.26929  0.08402  Biso   1.000  O
  O18      1.0000 0.74163  0.76929  0.08402  Biso   1.000  O
  O19      1.0000 0.75837  0.26929  0.41598  Biso   1.000  O
  O20      1.0000 0.25837  0.76929  0.41598  Biso   1.000  O
  O21      1.0000 0.75837  0.73071  0.91598  Biso   1.000  O
  O22      1.0000 0.25837  0.23071  0.91598  Biso   1.000  O
  O23      1.0000 0.24163  0.73071  0.58402  Biso   1.000  O
  O24      1.0000 0.74163  0.23071  0.58402  Biso   1.000  O
  O25      1.0000 0.24490  0.19070  0.22000  Biso   1.000  O
  O26      1.0000 0.74490  0.69070  0.22000  Biso   1.000  O
  O27      1.0000 0.75510  0.19070  0.28000  Biso   1.000  O
  O28      1.0000 0.25510  0.69070  0.28000  Biso   1.000  O
  O29      1.0000 0.75510  0.80930  0.78000  Biso   1.000  O
  O30      1.0000 0.25510  0.30930  0.78000  Biso   1.000  O
  O31      1.0000 0.24490  0.80930  0.72000  Biso   1.000  O
  O32      1.0000 0.74490  0.30930  0.72000  Biso   1.000  O
  O33      1.0000 0.81886  0.25747  0.89000  Biso   1.000  O
  O34      1.0000 0.31886  0.75747  0.89000  Biso   1.000  O
  O35      1.0000 0.18114  0.25747  0.61000  Biso   1.000  O
  O36      1.0000 0.68114  0.75747  0.61000  Biso   1.000  O
  O37      1.0000 0.18114  0.74253  0.11000  Biso   1.000  O
  O38      1.0000 0.68114  0.24253  0.11000  Biso   1.000  O
  O39      1.0000 0.81886  0.74253  0.39000  Biso   1.000  O
  O40      1.0000 0.31886  0.24253  0.39000  Biso   1.000  O
  O41      1.0000 0.16136  0.22770  0.16290  Biso   1.000  O
  O42      1.0000 0.66136  0.72770  0.16290  Biso   1.000  O
  O43      1.0000 0.83864  0.22770  0.33710  Biso   1.000  O
  O44      1.0000 0.33864  0.72770  0.33710  Biso   1.000  O
  O45      1.0000 0.83864  0.77230  0.83710  Biso   1.000  O
  O46      1.0000 0.33864  0.27230  0.83710  Biso   1.000  O
  O47      1.0000 0.16136  0.77230  0.66290  Biso   1.000  O
  O48      1.0000 0.66136  0.27230  0.66290  Biso   1.000  O
  C1       1.0000 0.83587  0.06160  0.78080  Biso   1.000  C
  C2       1.0000 0.33587  0.56160  0.78080  Biso   1.000  C
  C3       1.0000 0.16413  0.06160  0.71920  Biso   1.000  C
  C4       1.0000 0.66413  0.56160  0.71920  Biso   1.000  C
  C5       1.0000 0.16413  0.93840  0.21920  Biso   1.000  C
  C6       1.0000 0.66413  0.43840  0.21920  Biso   1.000  C
  C7       1.0000 0.83587  0.93840  0.28080  Biso   1.000  C
  C8       1.0000 0.33587  0.43840  0.28080  Biso   1.000  C
  H1       1.0000 0.80770  0.07350  0.75560  Biso   1.000  H
  H2       1.0000 0.30770  0.57350  0.75560  Biso   1.000  H
  H3       1.0000 0.19230  0.07350  0.74440  Biso   1.000  H
  H4       1.0000 0.69230  0.57350  0.74440  Biso   1.000  H
  H5       1.0000 0.19230  0.92650  0.24440  Biso   1.000  H
  H6       1.0000 0.69230  0.42650  0.24440  Biso   1.000  H
  H7       1.0000 0.80770  0.92650  0.25560  Biso   1.000  H
  H8       1.0000 0.30770  0.42650  0.25560  Biso   1.000  H
  C9       1.0000 0.84615  0.98100  0.80730  Biso   1.000  C
  C10      1.0000 0.34615  0.48100  0.80730  Biso   1.000  C
  C11      1.0000 0.15385  0.98100  0.69270  Biso   1.000  C
  C12      1.0000 0.65385  0.48100  0.69270  Biso   1.000  C
  C13      1.0000 0.15385  0.01900  0.19270  Biso   1.000  C
  C14      1.0000 0.65385  0.51900  0.19270  Biso   1.000  C
  C15      1.0000 0.84615  0.01900  0.30730  Biso   1.000  C
  C16      1.0000 0.34615  0.51900  0.30730  Biso   1.000  C
  H9       1.0000 0.82550  0.93810  0.79950  Biso   1.000  H
  H10      1.0000 0.32550  0.43810  0.79950  Biso   1.000  H
  H11      1.0000 0.17450  0.93810  0.70050  Biso   1.000  H
  H12      1.0000 0.67450  0.43810  0.70050  Biso   1.000  H
  H13      1.0000 0.17450  0.06190  0.20050  Biso   1.000  H
  H14      1.0000 0.67450  0.56190  0.20050  Biso   1.000  H
  H15      1.0000 0.82550  0.06190  0.29950  Biso   1.000  H
  H16      1.0000 0.32550  0.56190  0.29950  Biso   1.000  H
  C17      1.0000 0.88701  0.96400  0.84520  Biso   1.000  C
  C18      1.0000 0.38701  0.46400  0.84520  Biso   1.000  C
  C19      1.0000 0.11299  0.96400  0.65480  Biso   1.000  C
  C20      1.0000 0.61299  0.46400  0.65480  Biso   1.000  C
  C21      1.0000 0.11299  0.03600  0.15480  Biso   1.000  C
  C22      1.0000 0.61299  0.53600  0.15480  Biso   1.000  C
  C23      1.0000 0.88701  0.03600  0.34520  Biso   1.000  C
  C24      1.0000 0.38701  0.53600  0.34520  Biso   1.000  C
  H17      1.0000 0.89460  0.90940  0.86480  Biso   1.000  H
  H18      1.0000 0.39460  0.40940  0.86480  Biso   1.000  H
  H19      1.0000 0.10540  0.90940  0.63520  Biso   1.000  H
  H20      1.0000 0.60540  0.40940  0.63520  Biso   1.000  H
  H21      1.0000 0.10540  0.09060  0.13520  Biso   1.000  H
  H22      1.0000 0.60540  0.59060  0.13520  Biso   1.000  H
  H23      1.0000 0.89460  0.09060  0.36480  Biso   1.000  H
  H24      1.0000 0.39460  0.59060  0.36480  Biso   1.000  H
  C25      1.0000 0.91687  0.02760  0.85440  Biso   1.000  C
  C26      1.0000 0.41687  0.52760  0.85440  Biso   1.000  C
  C27      1.0000 0.08313  0.02760  0.64560  Biso   1.000  C
  C28      1.0000 0.58313  0.52760  0.64560  Biso   1.000  C
  C29      1.0000 0.08313  0.97240  0.14560  Biso   1.000  C
  C30      1.0000 0.58313  0.47240  0.14560  Biso   1.000  C
  C31      1.0000 0.91687  0.97240  0.35440  Biso   1.000  C
  C32      1.0000 0.41687  0.47240  0.35440  Biso   1.000  C
  H25      1.0000 0.94500  0.01720  0.88050  Biso   1.000  H
  H26      1.0000 0.44500  0.51720  0.88050  Biso   1.000  H
  H27      1.0000 0.05500  0.01720  0.61950  Biso   1.000  H
  H28      1.0000 0.55500  0.51720  0.61950  Biso   1.000  H
  H29      1.0000 0.05500  0.98280  0.11950  Biso   1.000  H
  H30      1.0000 0.55500  0.48280  0.11950  Biso   1.000  H
  H31      1.0000 0.94500  0.98280  0.38050  Biso   1.000  H
  H32      1.0000 0.44500  0.48280  0.38050  Biso   1.000  H
  C33      1.0000 0.90489  0.10570  0.82500  Biso   1.000  C
  C34      1.0000 0.40489  0.60570  0.82500  Biso   1.000  C
  C35      1.0000 0.09511  0.10570  0.67500  Biso   1.000  C
  C36      1.0000 0.59511  0.60570  0.67500  Biso   1.000  C
  C37      1.0000 0.09511  0.89430  0.17500  Biso   1.000  C
  C38      1.0000 0.59511  0.39430  0.17500  Biso   1.000  C
  C39      1.0000 0.90489  0.89430  0.32500  Biso   1.000  C
  C40      1.0000 0.40489  0.39430  0.32500  Biso   1.000  C
  C41      1.0000 0.93323  0.17930  0.83060  Biso   1.000  C
  C42      1.0000 0.43323  0.67930  0.83060  Biso   1.000  C
  C43      1.0000 0.06677  0.17930  0.66940  Biso   1.000  C
  C44      1.0000 0.56677  0.67930  0.66940  Biso   1.000  C
  C45      1.0000 0.06677  0.82070  0.16940  Biso   1.000  C
  C46      1.0000 0.56677  0.32070  0.16940  Biso   1.000  C
  C47      1.0000 0.93323  0.82070  0.33060  Biso   1.000  C
  C48      1.0000 0.43323  0.32070  0.33060  Biso   1.000  C
  C49      1.0000 0.97655  0.17980  0.85710  Biso   1.000  C
  C50      1.0000 0.47655  0.67980  0.85710  Biso   1.000  C
  C51      1.0000 0.02345  0.17980  0.64290  Biso   1.000  C
  C52      1.0000 0.52345  0.67980  0.64290  Biso   1.000  C
  C53      1.0000 0.02345  0.82020  0.14290  Biso   1.000  C
  C54      1.0000 0.52345  0.32020  0.14290  Biso   1.000  C
  C55      1.0000 0.97655  0.82020  0.35710  Biso   1.000  C
  C56      1.0000 0.47655  0.32020  0.35710  Biso   1.000  C
  H33      1.0000 0.99130  0.12940  0.87190  Biso   1.000  H
  H34      1.0000 0.49130  0.62940  0.87190  Biso   1.000  H
  H35      1.0000 0.00870  0.12940  0.62810  Biso   1.000  H
  H36      1.0000 0.50870  0.62940  0.62810  Biso   1.000  H
  H37      1.0000 0.00870  0.87060  0.12810  Biso   1.000  H
  H38      1.0000 0.50870  0.37060  0.12810  Biso   1.000  H
  H39      1.0000 0.99130  0.87060  0.37190  Biso   1.000  H
  H40      1.0000 0.49130  0.37060  0.37190  Biso   1.000  H
  C57      1.0000 0.99825  0.25610  0.86170  Biso   1.000  C
  C58      1.0000 0.49825  0.75610  0.86170  Biso   1.000  C
  C59      1.0000 0.00175  0.25610  0.63830  Biso   1.000  C
  C60      1.0000 0.50175  0.75610  0.63830  Biso   1.000  C
  C61      1.0000 0.00175  0.74390  0.13830  Biso   1.000  C
  C62      1.0000 0.50175  0.24390  0.13830  Biso   1.000  C
  C63      1.0000 0.99825  0.74390  0.36170  Biso   1.000  C
  C64      1.0000 0.49825  0.24390  0.36170  Biso   1.000  C
  C65      1.0000 0.97546  0.32890  0.83940  Biso   1.000  C
  C66      1.0000 0.47546  0.82890  0.83940  Biso   1.000  C
  C67      1.0000 0.02454  0.32890  0.66060  Biso   1.000  C
  C68      1.0000 0.52454  0.82890  0.66060  Biso   1.000  C
  C69      1.0000 0.02454  0.67110  0.16060  Biso   1.000  C
  C70      1.0000 0.52454  0.17110  0.16060  Biso   1.000  C
  C71      1.0000 0.97546  0.67110  0.33940  Biso   1.000  C
  C72      1.0000 0.47546  0.17110  0.33940  Biso   1.000  C
  H41      1.0000 0.98940  0.38130  0.84250  Biso   1.000  H
  H42      1.0000 0.48940  0.88130  0.84250  Biso   1.000  H
  H43      1.0000 0.01060  0.38130  0.65750  Biso   1.000  H
  H44      1.0000 0.51060  0.88130  0.65750  Biso   1.000  H
  H45      1.0000 0.01060  0.61870  0.15750  Biso   1.000  H
  H46      1.0000 0.51060  0.11870  0.15750  Biso   1.000  H
  H47      1.0000 0.98940  0.61870  0.34250  Biso   1.000  H
  H48      1.0000 0.48940  0.11870  0.34250  Biso   1.000  H
  C73      1.0000 0.93205  0.32350  0.81260  Biso   1.000  C
  C74      1.0000 0.43205  0.82350  0.81260  Biso   1.000  C
  C75      1.0000 0.06795  0.32350  0.68740  Biso   1.000  C
  C76      1.0000 0.56795  0.82350  0.68740  Biso   1.000  C
  C77      1.0000 0.06795  0.67650  0.18740  Biso   1.000  C
  C78      1.0000 0.56795  0.17650  0.18740  Biso   1.000  C
  C79      1.0000 0.93205  0.67650  0.31260  Biso   1.000  C
  C80      1.0000 0.43205  0.17650  0.31260  Biso   1.000  C
  C81      1.0000 0.90217  0.39290  0.78700  Biso   1.000  C
  C82      1.0000 0.40217  0.89290  0.78700  Biso   1.000  C
  C83      1.0000 0.09783  0.39290  0.71300  Biso   1.000  C
  C84      1.0000 0.59783  0.89290  0.71300  Biso   1.000  C
  C85      1.0000 0.09783  0.60710  0.21300  Biso   1.000  C
  C86      1.0000 0.59783  0.10710  0.21300  Biso   1.000  C
  C87      1.0000 0.90217  0.60710  0.28700  Biso   1.000  C
  C88      1.0000 0.40217  0.10710  0.28700  Biso   1.000  C
  C89      1.0000 0.91272  0.47580  0.79210  Biso   1.000  C
  C90      1.0000 0.41272  0.97580  0.79210  Biso   1.000  C
  C91      1.0000 0.08728  0.47580  0.70790  Biso   1.000  C
  C92      1.0000 0.58728  0.97580  0.70790  Biso   1.000  C
  C93      1.0000 0.08728  0.52420  0.20790  Biso   1.000  C
  C94      1.0000 0.58728  0.02420  0.20790  Biso   1.000  C
  C95      1.0000 0.91272  0.52420  0.29210  Biso   1.000  C
  C96      1.0000 0.41272  0.02420  0.29210  Biso   1.000  C
  H49      1.0000 0.94070  0.49250  0.81380  Biso   1.000  H
  H50      1.0000 0.44070  0.99250  0.81380  Biso   1.000  H
  H51      1.0000 0.05930  0.49250  0.68620  Biso   1.000  H
  H52      1.0000 0.55930  0.99250  0.68620  Biso   1.000  H
  H53      1.0000 0.05930  0.50750  0.18620  Biso   1.000  H
  H54      1.0000 0.55930  0.00750  0.18620  Biso   1.000  H
  H55      1.0000 0.94070  0.50750  0.31380  Biso   1.000  H
  H56      1.0000 0.44070  0.00750  0.31380  Biso   1.000  H
  C97      1.0000 0.88192  0.53510  0.76510  Biso   1.000  C
  C98      1.0000 0.38192  0.03510  0.76510  Biso   1.000  C
  C99      1.0000 0.11808  0.53510  0.73490  Biso   1.000  C
  C100     1.0000 0.61808  0.03510  0.73490  Biso   1.000  C
  C101     1.0000 0.11808  0.46490  0.23490  Biso   1.000  C
  C102     1.0000 0.61808  0.96490  0.23490  Biso   1.000  C
  C103     1.0000 0.88192  0.46490  0.26510  Biso   1.000  C
  C104     1.0000 0.38192  0.96490  0.26510  Biso   1.000  C
  H57      1.0000 0.88860  0.59260  0.76780  Biso   1.000  H
  H58      1.0000 0.38860  0.09260  0.76780  Biso   1.000  H
  H59      1.0000 0.11140  0.59260  0.73220  Biso   1.000  H
  H60      1.0000 0.61140  0.09260  0.73220  Biso   1.000  H
  H61      1.0000 0.11140  0.40740  0.23220  Biso   1.000  H
  H62      1.0000 0.61140  0.90740  0.23220  Biso   1.000  H
  H63      1.0000 0.88860  0.40740  0.26780  Biso   1.000  H
  H64      1.0000 0.38860  0.90740  0.26780  Biso   1.000  H
  C105     1.0000 0.84162  0.50860  0.73440  Biso   1.000  C
  C106     1.0000 0.34162  0.00860  0.73440  Biso   1.000  C
  C107     1.0000 0.15838  0.50860  0.76560  Biso   1.000  C
  C108     1.0000 0.65838  0.00860  0.76560  Biso   1.000  C
  C109     1.0000 0.15838  0.49140  0.26560  Biso   1.000  C
  C110     1.0000 0.65838  0.99140  0.26560  Biso   1.000  C
  C111     1.0000 0.84162  0.49140  0.23440  Biso   1.000  C
  C112     1.0000 0.34162  0.99140  0.23440  Biso   1.000  C
  H65      1.0000 0.82010  0.54780  0.71550  Biso   1.000  H
  H66      1.0000 0.32010  0.04780  0.71550  Biso   1.000  H
  H67      1.0000 0.17990  0.54780  0.78450  Biso   1.000  H
  H68      1.0000 0.67990  0.04780  0.78450  Biso   1.000  H
  H69      1.0000 0.17990  0.45220  0.28450  Biso   1.000  H
  H70      1.0000 0.67990  0.95220  0.28450  Biso   1.000  H
  H71      1.0000 0.82010  0.45220  0.21550  Biso   1.000  H
  H72      1.0000 0.32010  0.95220  0.21550  Biso   1.000  H
  C113     1.0000 0.83289  0.42420  0.73150  Biso   1.000  C
  C114     1.0000 0.33289  0.92420  0.73150  Biso   1.000  C
  C115     1.0000 0.16711  0.42420  0.76850  Biso   1.000  C
  C116     1.0000 0.66711  0.92420  0.76850  Biso   1.000  C
  C117     1.0000 0.16711  0.57580  0.26850  Biso   1.000  C
  C118     1.0000 0.66711  0.07580  0.26850  Biso   1.000  C
  C119     1.0000 0.83289  0.57580  0.23150  Biso   1.000  C
  C120     1.0000 0.33289  0.07580  0.23150  Biso   1.000  C
  H73      1.0000 0.80500  0.40620  0.71070  Biso   1.000  H
  H74      1.0000 0.30500  0.90620  0.71070  Biso   1.000  H
  H75      1.0000 0.19500  0.40620  0.78930  Biso   1.000  H
  H76      1.0000 0.69500  0.90620  0.78930  Biso   1.000  H
  H77      1.0000 0.19500  0.59380  0.28930  Biso   1.000  H
  H78      1.0000 0.69500  0.09380  0.28930  Biso   1.000  H
  H79      1.0000 0.80500  0.59380  0.21070  Biso   1.000  H
  H80      1.0000 0.30500  0.09380  0.21070  Biso   1.000  H
  C121     1.0000 0.19603  0.44730  0.06460  Biso   1.000  C
  C122     1.0000 0.69603  0.94730  0.06460  Biso   1.000  C
  C123     1.0000 0.80397  0.44730  0.43540  Biso   1.000  C
  C124     1.0000 0.30397  0.94730  0.43540  Biso   1.000  C
  C125     1.0000 0.80397  0.55270  0.93540  Biso   1.000  C
  C126     1.0000 0.30397  0.05270  0.93540  Biso   1.000  C
  C127     1.0000 0.19603  0.55270  0.56460  Biso   1.000  C
  C128     1.0000 0.69603  0.05270  0.56460  Biso   1.000  C
  H81      1.0000 0.22350  0.43370  0.09270  Biso   1.000  H
  H82      1.0000 0.72350  0.93370  0.09270  Biso   1.000  H
  H83      1.0000 0.77650  0.43370  0.40730  Biso   1.000  H
  H84      1.0000 0.27650  0.93370  0.40730  Biso   1.000  H
  H85      1.0000 0.77650  0.56630  0.90730  Biso   1.000  H
  H86      1.0000 0.27650  0.06630  0.90730  Biso   1.000  H
  H87      1.0000 0.22350  0.56630  0.59270  Biso   1.000  H
  H88      1.0000 0.72350  0.06630  0.59270  Biso   1.000  H
  C129     1.0000 0.18385  0.52970  0.06040  Biso   1.000  C
  C130     1.0000 0.68385  0.02970  0.06040  Biso   1.000  C
  C131     1.0000 0.81615  0.52970  0.43960  Biso   1.000  C
  C132     1.0000 0.31615  0.02970  0.43960  Biso   1.000  C
  C133     1.0000 0.81615  0.47030  0.93960  Biso   1.000  C
  C134     1.0000 0.31615  0.97030  0.93960  Biso   1.000  C
  C135     1.0000 0.18385  0.47030  0.56040  Biso   1.000  C
  C136     1.0000 0.68385  0.97030  0.56040  Biso   1.000  C
  H89      1.0000 0.20280  0.57200  0.08370  Biso   1.000  H
  H90      1.0000 0.70280  0.07200  0.08370  Biso   1.000  H
  H91      1.0000 0.79720  0.57200  0.41630  Biso   1.000  H
  H92      1.0000 0.29720  0.07200  0.41630  Biso   1.000  H
  H93      1.0000 0.79720  0.42800  0.91630  Biso   1.000  H
  H94      1.0000 0.29720  0.92800  0.91630  Biso   1.000  H
  H95      1.0000 0.20280  0.42800  0.58370  Biso   1.000  H
  H96      1.0000 0.70280  0.92800  0.58370  Biso   1.000  H
  C137     1.0000 0.14357  0.54950  0.02150  Biso   1.000  C
  C138     1.0000 0.64357  0.04950  0.02150  Biso   1.000  C
  C139     1.0000 0.85643  0.54950  0.47850  Biso   1.000  C
  C140     1.0000 0.35643  0.04950  0.47850  Biso   1.000  C
  C141     1.0000 0.85643  0.45050  0.97850  Biso   1.000  C
  C142     1.0000 0.35643  0.95050  0.97850  Biso   1.000  C
  C143     1.0000 0.14357  0.45050  0.52150  Biso   1.000  C
  C144     1.0000 0.64357  0.95050  0.52150  Biso   1.000  C
  H97      1.0000 0.13440  0.60570  0.01870  Biso   1.000  H
  H98      1.0000 0.63440  0.10570  0.01870  Biso   1.000  H
  H99      1.0000 0.86560  0.60570  0.48130  Biso   1.000  H
  H100     1.0000 0.36560  0.10570  0.48130  Biso   1.000  H
  H101     1.0000 0.86560  0.39430  0.98130  Biso   1.000  H
  H102     1.0000 0.36560  0.89430  0.98130  Biso   1.000  H
  H103     1.0000 0.13440  0.39430  0.51870  Biso   1.000  H
  H104     1.0000 0.63440  0.89430  0.51870  Biso   1.000  H
  C145     1.0000 0.11668  0.48700  0.98670  Biso   1.000  C
  C146     1.0000 0.61668  0.98700  0.98670  Biso   1.000  C
  C147     1.0000 0.88332  0.48700  0.51330  Biso   1.000  C
  C148     1.0000 0.38332  0.98700  0.51330  Biso   1.000  C
  C149     1.0000 0.88332  0.51300  0.01330  Biso   1.000  C
  C150     1.0000 0.38332  0.01300  0.01330  Biso   1.000  C
  C151     1.0000 0.11668  0.51300  0.48670  Biso   1.000  C
  C152     1.0000 0.61668  0.01300  0.48670  Biso   1.000  C
  H105     1.0000 0.08890  0.49960  0.95960  Biso   1.000  H
  H106     1.0000 0.58890  0.99960  0.95960  Biso   1.000  H
  H107     1.0000 0.91110  0.49960  0.54040  Biso   1.000  H
  H108     1.0000 0.41110  0.99960  0.54040  Biso   1.000  H
  H109     1.0000 0.91110  0.50040  0.04040  Biso   1.000  H
  H110     1.0000 0.41110  0.00040  0.04040  Biso   1.000  H
  H111     1.0000 0.08890  0.50040  0.45960  Biso   1.000  H
  H112     1.0000 0.58890  0.00040  0.45960  Biso   1.000  H
  C153     1.0000 0.13106  0.40570  0.99200  Biso   1.000  C
  C154     1.0000 0.63106  0.90570  0.99200  Biso   1.000  C
  C155     1.0000 0.86894  0.40570  0.50800  Biso   1.000  C
  C156     1.0000 0.36894  0.90570  0.50800  Biso   1.000  C
  C157     1.0000 0.86894  0.59430  0.00800  Biso   1.000  C
  C158     1.0000 0.36894  0.09430  0.00800  Biso   1.000  C
  C159     1.0000 0.13106  0.59430  0.49200  Biso   1.000  C
  C160     1.0000 0.63106  0.09430  0.49200  Biso   1.000  C
  C161     1.0000 0.10589  0.33360  0.95620  Biso   1.000  C
  C162     1.0000 0.60589  0.83360  0.95620  Biso   1.000  C
  C163     1.0000 0.89411  0.33360  0.54380  Biso   1.000  C
  C164     1.0000 0.39411  0.83360  0.54380  Biso   1.000  C
  C165     1.0000 0.89411  0.66640  0.04380  Biso   1.000  C
  C166     1.0000 0.39411  0.16640  0.04380  Biso   1.000  C
  C167     1.0000 0.10589  0.66640  0.45620  Biso   1.000  C
  C168     1.0000 0.60589  0.16640  0.45620  Biso   1.000  C
  C169     1.0000 0.06378  0.33380  0.92030  Biso   1.000  C
  C170     1.0000 0.56378  0.83380  0.92030  Biso   1.000  C
  C171     1.0000 0.93622  0.33380  0.57970  Biso   1.000  C
  C172     1.0000 0.43622  0.83380  0.57970  Biso   1.000  C
  C173     1.0000 0.93622  0.66620  0.07970  Biso   1.000  C
  C174     1.0000 0.43622  0.16620  0.07970  Biso   1.000  C
  C175     1.0000 0.06378  0.66620  0.42030  Biso   1.000  C
  C176     1.0000 0.56378  0.16620  0.42030  Biso   1.000  C
  H113     1.0000 0.04820  0.38430  0.91460  Biso   1.000  H
  H114     1.0000 0.54820  0.88430  0.91460  Biso   1.000  H
  H115     1.0000 0.95180  0.38430  0.58540  Biso   1.000  H
  H116     1.0000 0.45180  0.88430  0.58540  Biso   1.000  H
  H117     1.0000 0.95180  0.61570  0.08540  Biso   1.000  H
  H118     1.0000 0.45180  0.11570  0.08540  Biso   1.000  H
  H119     1.0000 0.04820  0.61570  0.41460  Biso   1.000  H
  H120     1.0000 0.54820  0.11570  0.41460  Biso   1.000  H
  C177     1.0000 0.04442  0.25840  0.89250  Biso   1.000  C
  C178     1.0000 0.54442  0.75840  0.89250  Biso   1.000  C
  C179     1.0000 0.95558  0.25840  0.60750  Biso   1.000  C
  C180     1.0000 0.45558  0.75840  0.60750  Biso   1.000  C
  C181     1.0000 0.95558  0.74160  0.10750  Biso   1.000  C
  C182     1.0000 0.45558  0.24160  0.10750  Biso   1.000  C
  C183     1.0000 0.04442  0.74160  0.39250  Biso   1.000  C
  C184     1.0000 0.54442  0.24160  0.39250  Biso   1.000  C
  C185     1.0000 0.06899  0.18570  0.89790  Biso   1.000  C
  C186     1.0000 0.56899  0.68570  0.89790  Biso   1.000  C
  C187     1.0000 0.93101  0.18570  0.60210  Biso   1.000  C
  C188     1.0000 0.43101  0.68570  0.60210  Biso   1.000  C
  C189     1.0000 0.93101  0.81430  0.10210  Biso   1.000  C
  C190     1.0000 0.43101  0.31430  0.10210  Biso   1.000  C
  C191     1.0000 0.06899  0.81430  0.39790  Biso   1.000  C
  C192     1.0000 0.56899  0.31430  0.39790  Biso   1.000  C
  H121     1.0000 0.05710  0.13440  0.87650  Biso   1.000  H
  H122     1.0000 0.55710  0.63440  0.87650  Biso   1.000  H
  H123     1.0000 0.94290  0.13440  0.62350  Biso   1.000  H
  H124     1.0000 0.44290  0.63440  0.62350  Biso   1.000  H
  H125     1.0000 0.94290  0.86560  0.12350  Biso   1.000  H
  H126     1.0000 0.44290  0.36560  0.12350  Biso   1.000  H
  H127     1.0000 0.05710  0.86560  0.37650  Biso   1.000  H
  H128     1.0000 0.55710  0.36560  0.37650  Biso   1.000  H
  C193     1.0000 0.11115  0.19000  0.93520  Biso   1.000  C
  C194     1.0000 0.61115  0.69000  0.93520  Biso   1.000  C
  C195     1.0000 0.88885  0.19000  0.56480  Biso   1.000  C
  C196     1.0000 0.38885  0.69000  0.56480  Biso   1.000  C
  C197     1.0000 0.88885  0.81000  0.06480  Biso   1.000  C
  C198     1.0000 0.38885  0.31000  0.06480  Biso   1.000  C
  C199     1.0000 0.11115  0.81000  0.43520  Biso   1.000  C
  C200     1.0000 0.61115  0.31000  0.43520  Biso   1.000  C
  C201     1.0000 0.14139  0.11990  0.95240  Biso   1.000  C
  C202     1.0000 0.64139  0.61990  0.95240  Biso   1.000  C
  C203     1.0000 0.85861  0.11990  0.54760  Biso   1.000  C
  C204     1.0000 0.35861  0.61990  0.54760  Biso   1.000  C
  C205     1.0000 0.85861  0.88010  0.04760  Biso   1.000  C
  C206     1.0000 0.35861  0.38010  0.04760  Biso   1.000  C
  C207     1.0000 0.14139  0.88010  0.45240  Biso   1.000  C
  C208     1.0000 0.64139  0.38010  0.45240  Biso   1.000  C
  C209     1.0000 0.13325  0.03880  0.92510  Biso   1.000  C
  C210     1.0000 0.63325  0.53880  0.92510  Biso   1.000  C
  C211     1.0000 0.86675  0.03880  0.57490  Biso   1.000  C
  C212     1.0000 0.36675  0.53880  0.57490  Biso   1.000  C
  C213     1.0000 0.86675  0.96120  0.07490  Biso   1.000  C
  C214     1.0000 0.36675  0.46120  0.07490  Biso   1.000  C
  C215     1.0000 0.13325  0.96120  0.42510  Biso   1.000  C
  C216     1.0000 0.63325  0.46120  0.42510  Biso   1.000  C
  H129     1.0000 0.10700  0.02470  0.89210  Biso   1.000  H
  H130     1.0000 0.60700  0.52470  0.89210  Biso   1.000  H
  H131     1.0000 0.89300  0.02470  0.60790  Biso   1.000  H
  H132     1.0000 0.39300  0.52470  0.60790  Biso   1.000  H
  H133     1.0000 0.89300  0.97530  0.10790  Biso   1.000  H
  H134     1.0000 0.39300  0.47530  0.10790  Biso   1.000  H
  H135     1.0000 0.10700  0.97530  0.39210  Biso   1.000  H
  H136     1.0000 0.60700  0.47530  0.39210  Biso   1.000  H
  C217     1.0000 0.16378  0.97870  0.94650  Biso   1.000  C
  C218     1.0000 0.66378  0.47870  0.94650  Biso   1.000  C
  C219     1.0000 0.83622  0.97870  0.55350  Biso   1.000  C
  C220     1.0000 0.33622  0.47870  0.55350  Biso   1.000  C
  C221     1.0000 0.83622  0.02130  0.05350  Biso   1.000  C
  C222     1.0000 0.33622  0.52130  0.05350  Biso   1.000  C
  C223     1.0000 0.16378  0.02130  0.44650  Biso   1.000  C
  C224     1.0000 0.66378  0.52130  0.44650  Biso   1.000  C
  H137     1.0000 0.15880  0.92270  0.92830  Biso   1.000  H
  H138     1.0000 0.65880  0.42270  0.92830  Biso   1.000  H
  H139     1.0000 0.84120  0.92270  0.57170  Biso   1.000  H
  H140     1.0000 0.34120  0.42270  0.57170  Biso   1.000  H
  H141     1.0000 0.84120  0.07730  0.07170  Biso   1.000  H
  H142     1.0000 0.34120  0.57730  0.07170  Biso   1.000  H
  H143     1.0000 0.15880  0.07730  0.42830  Biso   1.000  H
  H144     1.0000 0.65880  0.57730  0.42830  Biso   1.000  H
  C225     1.0000 0.20189  0.00090  0.99510  Biso   1.000  C
  C226     1.0000 0.70189  0.50090  0.99510  Biso   1.000  C
  C227     1.0000 0.79811  0.00090  0.50490  Biso   1.000  C
  C228     1.0000 0.29811  0.50090  0.50490  Biso   1.000  C
  C229     1.0000 0.79811  0.99910  0.00490  Biso   1.000  C
  C230     1.0000 0.29811  0.49910  0.00490  Biso   1.000  C
  C231     1.0000 0.20189  0.99910  0.49510  Biso   1.000  C
  C232     1.0000 0.70189  0.49910  0.49510  Biso   1.000  C
  H145     1.0000 0.22320  0.96040  0.01110  Biso   1.000  H
  H146     1.0000 0.72320  0.46040  0.01110  Biso   1.000  H
  H147     1.0000 0.77680  0.96040  0.48890  Biso   1.000  H
  H148     1.0000 0.27680  0.46040  0.48890  Biso   1.000  H
  H149     1.0000 0.77680  0.03960  0.98890  Biso   1.000  H
  H150     1.0000 0.27680  0.53960  0.98890  Biso   1.000  H
  H151     1.0000 0.22320  0.03960  0.51110  Biso   1.000  H
  H152     1.0000 0.72320  0.53960  0.51110  Biso   1.000  H
  C233     1.0000 0.20814  0.08290  0.01980  Biso   1.000  C
  C234     1.0000 0.70814  0.58290  0.01980  Biso   1.000  C
  C235     1.0000 0.79186  0.08290  0.48020  Biso   1.000  C
  C236     1.0000 0.29186  0.58290  0.48020  Biso   1.000  C
  C237     1.0000 0.79186  0.91710  0.98020  Biso   1.000  C
  C238     1.0000 0.29186  0.41710  0.98020  Biso   1.000  C
  C239     1.0000 0.20814  0.91710  0.51980  Biso   1.000  C
  C240     1.0000 0.70814  0.41710  0.51980  Biso   1.000  C
  H153     1.0000 0.23420  0.09820  0.05290  Biso   1.000  H
  H154     1.0000 0.73420  0.59820  0.05290  Biso   1.000  H
  H155     1.0000 0.76580  0.09820  0.44710  Biso   1.000  H
  H156     1.0000 0.26580  0.59820  0.44710  Biso   1.000  H
  H157     1.0000 0.76580  0.90180  0.94710  Biso   1.000  H
  H158     1.0000 0.26580  0.40180  0.94710  Biso   1.000  H
  H159     1.0000 0.23420  0.90180  0.55290  Biso   1.000  H
  H160     1.0000 0.73420  0.40180  0.55290  Biso   1.000  H
  N1       1.0000 0.86442  0.12300  0.78960  Biso   1.000  N
  N2       1.0000 0.36442  0.62300  0.78960  Biso   1.000  N
  N3       1.0000 0.13558  0.12300  0.71040  Biso   1.000  N
  N4       1.0000 0.63558  0.62300  0.71040  Biso   1.000  N
  N5       1.0000 0.13558  0.87700  0.21040  Biso   1.000  N
  N6       1.0000 0.63558  0.37700  0.21040  Biso   1.000  N
  N7       1.0000 0.86442  0.87700  0.28960  Biso   1.000  N
  N8       1.0000 0.36442  0.37700  0.28960  Biso   1.000  N
  N9       1.0000 0.91237  0.24966  0.80870  Biso   1.000  N
  N10      1.0000 0.41237  0.74966  0.80870  Biso   1.000  N
  N11      1.0000 0.08763  0.24966  0.69130  Biso   1.000  N
  N12      1.0000 0.58763  0.74966  0.69130  Biso   1.000  N
  N13      1.0000 0.08763  0.75034  0.19130  Biso   1.000  N
  N14      1.0000 0.58763  0.25034  0.19130  Biso   1.000  N
  N15      1.0000 0.91237  0.75034  0.30870  Biso   1.000  N
  N16      1.0000 0.41237  0.25034  0.30870  Biso   1.000  N
  N17      1.0000 0.86247  0.36720  0.75710  Biso   1.000  N
  N18      1.0000 0.36247  0.86720  0.75710  Biso   1.000  N
  N19      1.0000 0.13753  0.36720  0.74290  Biso   1.000  N
  N20      1.0000 0.63753  0.86720  0.74290  Biso   1.000  N
  N21      1.0000 0.13753  0.63280  0.24290  Biso   1.000  N
  N22      1.0000 0.63753  0.13280  0.24290  Biso   1.000  N
  N23      1.0000 0.86247  0.63280  0.25710  Biso   1.000  N
  N24      1.0000 0.36247  0.13280  0.25710  Biso   1.000  N
  N25      1.0000 0.17074  0.38580  0.03090  Biso   1.000  N
  N26      1.0000 0.67074  0.88580  0.03090  Biso   1.000  N
  N27      1.0000 0.82926  0.38580  0.46910  Biso   1.000  N
  N28      1.0000 0.32926  0.88580  0.46910  Biso   1.000  N
  N29      1.0000 0.82926  0.61420  0.96910  Biso   1.000  N
  N30      1.0000 0.32926  0.11420  0.96910  Biso   1.000  N
  N31      1.0000 0.17074  0.61420  0.53090  Biso   1.000  N
  N32      1.0000 0.67074  0.11420  0.53090  Biso   1.000  N
  N33      1.0000 0.12809  0.26290  0.96400  Biso   1.000  N
  N34      1.0000 0.62809  0.76290  0.96400  Biso   1.000  N
  N35      1.0000 0.87191  0.26290  0.53600  Biso   1.000  N
  N36      1.0000 0.37191  0.76290  0.53600  Biso   1.000  N
  N37      1.0000 0.87191  0.73710  0.03600  Biso   1.000  N
  N38      1.0000 0.37191  0.23710  0.03600  Biso   1.000  N
  N39      1.0000 0.12809  0.73710  0.46400  Biso   1.000  N
  N40      1.0000 0.62809  0.23710  0.46400  Biso   1.000  N
  N41      1.0000 0.17880  0.14160  0.99880  Biso   1.000  N
  N42      1.0000 0.67880  0.64160  0.99880  Biso   1.000  N
  N43      1.0000 0.82120  0.14160  0.50120  Biso   1.000  N
  N44      1.0000 0.32120  0.64160  0.50120  Biso   1.000  N
  N45      1.0000 0.82120  0.85840  0.00120  Biso   1.000  N
  N46      1.0000 0.32120  0.35840  0.00120  Biso   1.000  N
  N47      1.0000 0.17880  0.85840  0.49880  Biso   1.000  N
  N48      1.0000 0.67880  0.35840  0.49880  Biso   1.000  N
  Mo1      1.0000 0.09697  0.24207  0.40352  Biso   1.000  Mo
  Mo2      1.0000 0.59698  0.74207  0.40352  Biso   1.000  Mo
  Mo3      1.0000 0.90302  0.24207  0.09648  Biso   1.000  Mo
  Mo4      1.0000 0.40302  0.74207  0.09648  Biso   1.000  Mo
  Mo5      1.0000 0.90302  0.75793  0.59648  Biso   1.000  Mo
  Mo6      1.0000 0.40302  0.25793  0.59648  Biso   1.000  Mo
  Mo7      1.0000 0.09697  0.75793  0.90352  Biso   1.000  Mo
  Mo8      1.0000 0.59698  0.25793  0.90352  Biso   1.000  Mo
  Mo9      1.0000 0.97544  0.09841  0.14395  Biso   1.000  Mo
  Mo10     1.0000 0.47544  0.59841  0.14395  Biso   1.000  Mo
  Mo11     1.0000 0.02456  0.09841  0.35605  Biso   1.000  Mo
  Mo12     1.0000 0.52456  0.59841  0.35605  Biso   1.000  Mo
  Mo13     1.0000 0.02456  0.90159  0.85605  Biso   1.000  Mo
  Mo14     1.0000 0.52456  0.40159  0.85605  Biso   1.000  Mo
  Mo15     1.0000 0.97544  0.90159  0.64395  Biso   1.000  Mo
  Mo16     1.0000 0.47544  0.40159  0.64395  Biso   1.000  Mo
  Mo17     1.0000 0.04487  0.24044  0.19177  Biso   1.000  Mo
  Mo18     1.0000 0.54487  0.74044  0.19177  Biso   1.000  Mo
  Mo19     1.0000 0.95513  0.24044  0.30823  Biso   1.000  Mo
  Mo20     1.0000 0.45513  0.74044  0.30823  Biso   1.000  Mo
  Mo21     1.0000 0.95513  0.75956  0.80823  Biso   1.000  Mo
  Mo22     1.0000 0.45513  0.25956  0.80823  Biso   1.000  Mo
  Mo23     1.0000 0.04487  0.75956  0.69177  Biso   1.000  Mo
  Mo24     1.0000 0.54487  0.25956  0.69177  Biso   1.000  Mo
  Mo25     1.0000 0.97680  0.38270  0.14129  Biso   1.000  Mo
  Mo26     1.0000 0.47680  0.88270  0.14129  Biso   1.000  Mo
  Mo27     1.0000 0.02320  0.38270  0.35871  Biso   1.000  Mo
  Mo28     1.0000 0.52320  0.88270  0.35871  Biso   1.000  Mo
  Mo29     1.0000 0.02320  0.61730  0.85871  Biso   1.000  Mo
  Mo30     1.0000 0.52320  0.11730  0.85871  Biso   1.000  Mo
  Mo31     1.0000 0.97680  0.61730  0.64129  Biso   1.000  Mo
  Mo32     1.0000 0.47680  0.11730  0.64129  Biso   1.000  Mo
  O49      1.0000 0.09481  0.24224  0.25729  Biso   1.000  O
  O50      1.0000 0.59481  0.74224  0.25729  Biso   1.000  O
  O51      1.0000 0.90519  0.24224  0.24271  Biso   1.000  O
  O52      1.0000 0.40519  0.74224  0.24271  Biso   1.000  O
  O53      1.0000 0.90519  0.75776  0.74271  Biso   1.000  O
  O54      1.0000 0.40519  0.25776  0.74271  Biso   1.000  O
  O55      1.0000 0.09481  0.75776  0.75729  Biso   1.000  O
  O56      1.0000 0.59481  0.25776  0.75729  Biso   1.000  O
  O57      1.0000 0.15148  0.24281  0.41800  Biso   1.000  O
  O58      1.0000 0.65148  0.74281  0.41800  Biso   1.000  O
  O59      1.0000 0.84852  0.24281  0.08200  Biso   1.000  O
  O60      1.0000 0.34852  0.74281  0.08200  Biso   1.000  O
  O61      1.0000 0.84852  0.75719  0.58200  Biso   1.000  O
  O62      1.0000 0.34852  0.25719  0.58200  Biso   1.000  O
  O63      1.0000 0.15148  0.75719  0.91800  Biso   1.000  O
  O64      1.0000 0.65148  0.25719  0.91800  Biso   1.000  O
  O65      1.0000 0.08359  0.24390  0.50760  Biso   1.000  O
  O66      1.0000 0.58359  0.74390  0.50760  Biso   1.000  O
  O67      1.0000 0.91641  0.24390  0.99240  Biso   1.000  O
  O68      1.0000 0.41641  0.74390  0.99240  Biso   1.000  O
  O69      1.0000 0.91641  0.75610  0.49240  Biso   1.000  O
  O70      1.0000 0.41641  0.25610  0.49240  Biso   1.000  O
  O71      1.0000 0.08359  0.75610  0.00760  Biso   1.000  O
  O72      1.0000 0.58359  0.25610  0.00760  Biso   1.000  O
  O73      1.0000 0.08273  0.12888  0.37580  Biso   1.000  O
  O74      1.0000 0.58273  0.62888  0.37580  Biso   1.000  O
  O75      1.0000 0.91727  0.12888  0.12420  Biso   1.000  O
  O76      1.0000 0.41727  0.62888  0.12420  Biso   1.000  O
  O77      1.0000 0.91727  0.87112  0.62420  Biso   1.000  O
  O78      1.0000 0.41727  0.37112  0.62420  Biso   1.000  O
  O79      1.0000 0.08273  0.87112  0.87580  Biso   1.000  O
  O80      1.0000 0.58273  0.37112  0.87580  Biso   1.000  O
  O81      1.0000 0.99068  0.10301  0.04154  Biso   1.000  O
  O82      1.0000 0.49068  0.60301  0.04154  Biso   1.000  O
  O83      1.0000 0.00932  0.10301  0.45846  Biso   1.000  O
  O84      1.0000 0.50932  0.60301  0.45846  Biso   1.000  O
  O85      1.0000 0.00932  0.89699  0.95846  Biso   1.000  O
  O86      1.0000 0.50932  0.39699  0.95846  Biso   1.000  O
  O87      1.0000 0.99068  0.89699  0.54154  Biso   1.000  O
  O88      1.0000 0.49068  0.39699  0.54154  Biso   1.000  O
  O89      1.0000 0.97121  0.99470  0.16490  Biso   1.000  O
  O90      1.0000 0.47121  0.49470  0.16490  Biso   1.000  O
  O91      1.0000 0.02879  0.99470  0.33510  Biso   1.000  O
  O92      1.0000 0.52879  0.49470  0.33510  Biso   1.000  O
  O93      1.0000 0.02879  0.00530  0.83510  Biso   1.000  O
  O94      1.0000 0.52879  0.50530  0.83510  Biso   1.000  O
  O95      1.0000 0.97121  0.00530  0.66490  Biso   1.000  O
  O96      1.0000 0.47121  0.50530  0.66490  Biso   1.000  O
  O97      1.0000 0.03231  0.12419  0.20897  Biso   1.000  O
  O98      1.0000 0.53231  0.62419  0.20897  Biso   1.000  O
  O99      1.0000 0.96769  0.12419  0.29103  Biso   1.000  O
  O100     1.0000 0.46769  0.62419  0.29103  Biso   1.000  O
  O101     1.0000 0.96769  0.87581  0.79103  Biso   1.000  O
  O102     1.0000 0.46769  0.37581  0.79103  Biso   1.000  O
  O103     1.0000 0.03231  0.87581  0.70897  Biso   1.000  O
  O104     1.0000 0.53231  0.37581  0.70897  Biso   1.000  O
  O105     1.0000 0.05851  0.23869  0.08895  Biso   1.000  O
  O106     1.0000 0.55851  0.73869  0.08895  Biso   1.000  O
  O107     1.0000 0.94149  0.23869  0.41105  Biso   1.000  O
  O108     1.0000 0.44149  0.73869  0.41105  Biso   1.000  O
  O109     1.0000 0.94149  0.76131  0.91105  Biso   1.000  O
  O110     1.0000 0.44149  0.26131  0.91105  Biso   1.000  O
  O111     1.0000 0.05851  0.76131  0.58895  Biso   1.000  O
  O112     1.0000 0.55851  0.26131  0.58895  Biso   1.000  O
  O113     1.0000 0.03251  0.35742  0.20769  Biso   1.000  O
  O114     1.0000 0.53251  0.85742  0.20769  Biso   1.000  O
  O115     1.0000 0.96749  0.35742  0.29231  Biso   1.000  O
  O116     1.0000 0.46749  0.85742  0.29231  Biso   1.000  O
  O117     1.0000 0.96749  0.64258  0.79231  Biso   1.000  O
  O118     1.0000 0.46749  0.14258  0.79231  Biso   1.000  O
  O119     1.0000 0.03251  0.64258  0.70769  Biso   1.000  O
  O120     1.0000 0.53251  0.14258  0.70769  Biso   1.000  O
  O121     1.0000 0.97461  0.48699  0.16094  Biso   1.000  O
  O122     1.0000 0.47461  0.98699  0.16094  Biso   1.000  O
  O123     1.0000 0.02539  0.48699  0.33906  Biso   1.000  O
  O124     1.0000 0.52539  0.98699  0.33906  Biso   1.000  O
  O125     1.0000 0.02539  0.51301  0.83906  Biso   1.000  O
  O126     1.0000 0.52539  0.01301  0.83906  Biso   1.000  O
  O127     1.0000 0.97461  0.51301  0.66094  Biso   1.000  O
  O128     1.0000 0.47461  0.01301  0.66094  Biso   1.000  O
  O129     1.0000 0.99030  0.37510  0.03753  Biso   1.000  O
  O130     1.0000 0.49030  0.87510  0.03753  Biso   1.000  O
  O131     1.0000 0.00970  0.37510  0.46247  Biso   1.000  O
  O132     1.0000 0.50970  0.87510  0.46247  Biso   1.000  O
  O133     1.0000 0.00970  0.62490  0.96247  Biso   1.000  O
  O134     1.0000 0.50970  0.12490  0.96247  Biso   1.000  O
  O135     1.0000 0.99030  0.62490  0.53753  Biso   1.000  O
  O136     1.0000 0.49030  0.12490  0.53753  Biso   1.000  O
  O137     1.0000 0.08167  0.35483  0.37483  Biso   1.000  O
  O138     1.0000 0.58167  0.85483  0.37483  Biso   1.000  O
  O139     1.0000 0.91833  0.35483  0.12517  Biso   1.000  O
  O140     1.0000 0.41833  0.85483  0.12517  Biso   1.000  O
  O141     1.0000 0.91833  0.64517  0.62517  Biso   1.000  O
  O142     1.0000 0.41833  0.14517  0.62517  Biso   1.000  O
  O143     1.0000 0.08167  0.64517  0.87483  Biso   1.000  O
  O144     1.0000 0.58167  0.14517  0.87483  Biso   1.000  O
  O145     1.0000 0.02196  0.24124  0.33381  Biso   1.000  O
  O146     1.0000 0.52196  0.74124  0.33381  Biso   1.000  O
  O147     1.0000 0.97804  0.24124  0.16619  Biso   1.000  O
  O148     1.0000 0.47804  0.74124  0.16619  Biso   1.000  O
  O149     1.0000 0.97804  0.75876  0.66619  Biso   1.000  O
  O150     1.0000 0.47804  0.25876  0.66619  Biso   1.000  O
  O151     1.0000 0.02196  0.75876  0.83381  Biso   1.000  O
  O152     1.0000 0.52196  0.25876  0.83381  Biso   1.000  O
  O153     1.0000 0.23951  0.31990  0.39940  Biso   1.000  O
  O154     1.0000 0.73951  0.81990  0.39940  Biso   1.000  O
  O155     1.0000 0.76049  0.31990  0.10060  Biso   1.000  O
  O156     1.0000 0.26049  0.81990  0.10060  Biso   1.000  O
  O157     1.0000 0.76049  0.68010  0.60060  Biso   1.000  O
  O158     1.0000 0.26049  0.18010  0.60060  Biso   1.000  O
  O159     1.0000 0.23951  0.68010  0.89940  Biso   1.000  O
  O160     1.0000 0.73951  0.18010  0.89940  Biso   1.000  O
  O161     1.0000 0.23970  0.17050  0.39280  Biso   1.000  O
  O162     1.0000 0.73970  0.67050  0.39280  Biso   1.000  O
  O163     1.0000 0.76030  0.17050  0.10720  Biso   1.000  O
  O164     1.0000 0.26030  0.67050  0.10720  Biso   1.000  O
  O165     1.0000 0.76030  0.82950  0.60720  Biso   1.000  O
  O166     1.0000 0.26030  0.32950  0.60720  Biso   1.000  O
  O167     1.0000 0.23970  0.82950  0.89280  Biso   1.000  O
  O168     1.0000 0.73970  0.32950  0.89280  Biso   1.000  O
  O169     1.0000 0.22500  0.36320  0.39780  Biso   1.000  O
  O170     1.0000 0.72500  0.86320  0.39780  Biso   1.000  O
  O171     1.0000 0.77500  0.36320  0.10220  Biso   1.000  O
  O172     1.0000 0.27500  0.86320  0.10220  Biso   1.000  O
  O173     1.0000 0.77500  0.63680  0.60220  Biso   1.000  O
  O174     1.0000 0.27500  0.13680  0.60220  Biso   1.000  O
  O175     1.0000 0.22500  0.63680  0.89780  Biso   1.000  O
  O176     1.0000 0.72500  0.13680  0.89780  Biso   1.000  O
