data_image0
_cell_length_a       28.339
_cell_length_b       25.097
_cell_length_c       15.483
_cell_angle_alpha    90
_cell_angle_beta     90
_cell_angle_gamma    90

_symmetry_space_group_name_H-M    "P 1"
_symmetry_int_tables_number       1

loop_
  _symmetry_equiv_pos_as_xyz
  'x, y, z'

loop_
  _atom_site_label
  _atom_site_occupancy
  _atom_site_fract_x
  _atom_site_fract_y
  _atom_site_fract_z
  _atom_site_thermal_displace_type
  _atom_site_B_iso_or_equiv
  _atom_site_type_symbol
  Cu1      1.0000 0.28042  0.09796  0.18542  Biso   1.000  Cu
  Cu2      1.0000 0.71958  0.40204  0.68542  Biso   1.000  Cu
  Cu3      1.0000 0.71958  0.59796  0.31458  Biso   1.000  Cu
  Cu4      1.0000 0.28042  0.90204  0.81458  Biso   1.000  Cu
  Cu5      1.0000 0.78042  0.59796  0.18542  Biso   1.000  Cu
  Cu6      1.0000 0.21958  0.90204  0.68542  Biso   1.000  Cu
  Cu7      1.0000 0.21958  0.09796  0.31458  Biso   1.000  Cu
  Cu8      1.0000 0.78042  0.40204  0.81458  Biso   1.000  Cu
  Cu9      1.0000 0.71958  0.90204  0.81458  Biso   1.000  Cu
  Cu10     1.0000 0.28042  0.59796  0.31458  Biso   1.000  Cu
  Cu11     1.0000 0.28042  0.40204  0.68542  Biso   1.000  Cu
  Cu12     1.0000 0.71958  0.09796  0.18542  Biso   1.000  Cu
  Cu13     1.0000 0.21958  0.40204  0.81458  Biso   1.000  Cu
  Cu14     1.0000 0.78042  0.09796  0.31458  Biso   1.000  Cu
  Cu15     1.0000 0.78042  0.90204  0.68542  Biso   1.000  Cu
  Cu16     1.0000 0.21958  0.59796  0.18542  Biso   1.000  Cu
  Cu17     1.0000 0.00000  0.88449  0.31930  Biso   1.000  Cu
  Cu18     1.0000 0.00000  0.61551  0.81930  Biso   1.000  Cu
  Cu19     1.0000 0.00000  0.38449  0.18070  Biso   1.000  Cu
  Cu20     1.0000 0.00000  0.11551  0.68070  Biso   1.000  Cu
  Cu21     1.0000 0.50000  0.38449  0.31930  Biso   1.000  Cu
  Cu22     1.0000 0.50000  0.11551  0.81930  Biso   1.000  Cu
  Cu23     1.0000 0.50000  0.88449  0.18070  Biso   1.000  Cu
  Cu24     1.0000 0.50000  0.61551  0.68070  Biso   1.000  Cu
  Cu25     1.0000 0.00000  0.80900  0.19969  Biso   1.000  Cu
  Cu26     1.0000 0.00000  0.69100  0.69969  Biso   1.000  Cu
  Cu27     1.0000 0.00000  0.30900  0.30031  Biso   1.000  Cu
  Cu28     1.0000 0.00000  0.19100  0.80031  Biso   1.000  Cu
  Cu29     1.0000 0.50000  0.30900  0.19969  Biso   1.000  Cu
  Cu30     1.0000 0.50000  0.19100  0.69969  Biso   1.000  Cu
  Cu31     1.0000 0.50000  0.80900  0.30031  Biso   1.000  Cu
  Cu32     1.0000 0.50000  0.69100  0.80031  Biso   1.000  Cu
  C1       1.0000 0.10960  0.91790  0.14090  Biso   1.000  C
  C2       1.0000 0.89040  0.58210  0.64090  Biso   1.000  C
  C3       1.0000 0.89040  0.41790  0.35910  Biso   1.000  C
  C4       1.0000 0.10960  0.08210  0.85910  Biso   1.000  C
  C5       1.0000 0.60960  0.41790  0.14090  Biso   1.000  C
  C6       1.0000 0.39040  0.08210  0.64090  Biso   1.000  C
  C7       1.0000 0.39040  0.91790  0.35910  Biso   1.000  C
  C8       1.0000 0.60960  0.58210  0.85910  Biso   1.000  C
  C9       1.0000 0.89040  0.08210  0.85910  Biso   1.000  C
  C10      1.0000 0.10960  0.41790  0.35910  Biso   1.000  C
  C11      1.0000 0.10960  0.58210  0.64090  Biso   1.000  C
  C12      1.0000 0.89040  0.91790  0.14090  Biso   1.000  C
  C13      1.0000 0.39040  0.58210  0.85910  Biso   1.000  C
  C14      1.0000 0.60960  0.91790  0.35910  Biso   1.000  C
  C15      1.0000 0.60960  0.08210  0.64090  Biso   1.000  C
  C16      1.0000 0.39040  0.41790  0.14090  Biso   1.000  C
  C17      1.0000 0.13250  0.96090  0.17670  Biso   1.000  C
  C18      1.0000 0.86750  0.53910  0.67670  Biso   1.000  C
  C19      1.0000 0.86750  0.46090  0.32330  Biso   1.000  C
  C20      1.0000 0.13250  0.03910  0.82330  Biso   1.000  C
  C21      1.0000 0.63250  0.46090  0.17670  Biso   1.000  C
  C22      1.0000 0.36750  0.03910  0.67670  Biso   1.000  C
  C23      1.0000 0.36750  0.96090  0.32330  Biso   1.000  C
  C24      1.0000 0.63250  0.53910  0.82330  Biso   1.000  C
  C25      1.0000 0.86750  0.03910  0.82330  Biso   1.000  C
  C26      1.0000 0.13250  0.46090  0.32330  Biso   1.000  C
  C27      1.0000 0.13250  0.53910  0.67670  Biso   1.000  C
  C28      1.0000 0.86750  0.96090  0.17670  Biso   1.000  C
  C29      1.0000 0.36750  0.53910  0.82330  Biso   1.000  C
  C30      1.0000 0.63250  0.96090  0.32330  Biso   1.000  C
  C31      1.0000 0.63250  0.03910  0.67670  Biso   1.000  C
  C32      1.0000 0.36750  0.46090  0.17670  Biso   1.000  C
  H1       1.0000 0.11970  0.97800  0.22450  Biso   1.000  H
  H2       1.0000 0.88030  0.52200  0.72450  Biso   1.000  H
  H3       1.0000 0.88030  0.47800  0.27550  Biso   1.000  H
  H4       1.0000 0.11970  0.02200  0.77550  Biso   1.000  H
  H5       1.0000 0.61970  0.47800  0.22450  Biso   1.000  H
  H6       1.0000 0.38030  0.02200  0.72450  Biso   1.000  H
  H7       1.0000 0.38030  0.97800  0.27550  Biso   1.000  H
  H8       1.0000 0.61970  0.52200  0.77550  Biso   1.000  H
  H9       1.0000 0.88030  0.02200  0.77550  Biso   1.000  H
  H10      1.0000 0.11970  0.47800  0.27550  Biso   1.000  H
  H11      1.0000 0.11970  0.52200  0.72450  Biso   1.000  H
  H12      1.0000 0.88030  0.97800  0.22450  Biso   1.000  H
  H13      1.0000 0.38030  0.52200  0.77550  Biso   1.000  H
  H14      1.0000 0.61970  0.97800  0.27550  Biso   1.000  H
  H15      1.0000 0.61970  0.02200  0.72450  Biso   1.000  H
  H16      1.0000 0.38030  0.47800  0.22450  Biso   1.000  H
  C33      1.0000 0.17470  0.97880  0.14160  Biso   1.000  C
  C34      1.0000 0.82530  0.52120  0.64160  Biso   1.000  C
  C35      1.0000 0.82530  0.47880  0.35840  Biso   1.000  C
  C36      1.0000 0.17470  0.02120  0.85840  Biso   1.000  C
  C37      1.0000 0.67470  0.47880  0.14160  Biso   1.000  C
  C38      1.0000 0.32530  0.02120  0.64160  Biso   1.000  C
  C39      1.0000 0.32530  0.97880  0.35840  Biso   1.000  C
  C40      1.0000 0.67470  0.52120  0.85840  Biso   1.000  C
  C41      1.0000 0.82530  0.02120  0.85840  Biso   1.000  C
  C42      1.0000 0.17470  0.47880  0.35840  Biso   1.000  C
  C43      1.0000 0.17470  0.52120  0.64160  Biso   1.000  C
  C44      1.0000 0.82530  0.97880  0.14160  Biso   1.000  C
  C45      1.0000 0.32530  0.52120  0.85840  Biso   1.000  C
  C46      1.0000 0.67470  0.97880  0.35840  Biso   1.000  C
  C47      1.0000 0.67470  0.02120  0.64160  Biso   1.000  C
  C48      1.0000 0.32530  0.47880  0.14160  Biso   1.000  C
  C49      1.0000 0.19380  0.95240  0.07200  Biso   1.000  C
  C50      1.0000 0.80620  0.54760  0.57200  Biso   1.000  C
  C51      1.0000 0.80620  0.45240  0.42800  Biso   1.000  C
  C52      1.0000 0.19380  0.04760  0.92800  Biso   1.000  C
  C53      1.0000 0.69380  0.45240  0.07200  Biso   1.000  C
  C54      1.0000 0.30620  0.04760  0.57200  Biso   1.000  C
  C55      1.0000 0.30620  0.95240  0.42800  Biso   1.000  C
  C56      1.0000 0.69380  0.54760  0.92800  Biso   1.000  C
  C57      1.0000 0.80620  0.04760  0.92800  Biso   1.000  C
  C58      1.0000 0.19380  0.45240  0.42800  Biso   1.000  C
  C59      1.0000 0.19380  0.54760  0.57200  Biso   1.000  C
  C60      1.0000 0.80620  0.95240  0.07200  Biso   1.000  C
  C61      1.0000 0.30620  0.54760  0.92800  Biso   1.000  C
  C62      1.0000 0.69380  0.95240  0.42800  Biso   1.000  C
  C63      1.0000 0.69380  0.04760  0.57200  Biso   1.000  C
  C64      1.0000 0.30620  0.45240  0.07200  Biso   1.000  C
  H17      1.0000 0.22260  0.96340  0.04950  Biso   1.000  H
  H18      1.0000 0.77740  0.53660  0.54950  Biso   1.000  H
  H19      1.0000 0.77740  0.46340  0.45050  Biso   1.000  H
  H20      1.0000 0.22260  0.03660  0.95050  Biso   1.000  H
  H21      1.0000 0.72260  0.46340  0.04950  Biso   1.000  H
  H22      1.0000 0.27740  0.03660  0.54950  Biso   1.000  H
  H23      1.0000 0.27740  0.96340  0.45050  Biso   1.000  H
  H24      1.0000 0.72260  0.53660  0.95050  Biso   1.000  H
  H25      1.0000 0.77740  0.03660  0.95050  Biso   1.000  H
  H26      1.0000 0.22260  0.46340  0.45050  Biso   1.000  H
  H27      1.0000 0.22260  0.53660  0.54950  Biso   1.000  H
  H28      1.0000 0.77740  0.96340  0.04950  Biso   1.000  H
  H29      1.0000 0.27740  0.53660  0.95050  Biso   1.000  H
  H30      1.0000 0.72260  0.96340  0.45050  Biso   1.000  H
  H31      1.0000 0.72260  0.03660  0.54950  Biso   1.000  H
  H32      1.0000 0.27740  0.46340  0.04950  Biso   1.000  H
  C65      1.0000 0.17050  0.90960  0.03530  Biso   1.000  C
  C66      1.0000 0.82950  0.59040  0.53530  Biso   1.000  C
  C67      1.0000 0.82950  0.40960  0.46470  Biso   1.000  C
  C68      1.0000 0.17050  0.09040  0.96470  Biso   1.000  C
  C69      1.0000 0.67050  0.40960  0.03530  Biso   1.000  C
  C70      1.0000 0.32950  0.09040  0.53530  Biso   1.000  C
  C71      1.0000 0.32950  0.90960  0.46470  Biso   1.000  C
  C72      1.0000 0.67050  0.59040  0.96470  Biso   1.000  C
  C73      1.0000 0.82950  0.09040  0.96470  Biso   1.000  C
  C74      1.0000 0.17050  0.40960  0.46470  Biso   1.000  C
  C75      1.0000 0.17050  0.59040  0.53530  Biso   1.000  C
  C76      1.0000 0.82950  0.90960  0.03530  Biso   1.000  C
  C77      1.0000 0.32950  0.59040  0.96470  Biso   1.000  C
  C78      1.0000 0.67050  0.90960  0.46470  Biso   1.000  C
  C79      1.0000 0.67050  0.09040  0.53530  Biso   1.000  C
  C80      1.0000 0.32950  0.40960  0.03530  Biso   1.000  C
  H33      1.0000 0.18310  0.89280  0.98700  Biso   1.000  H
  H34      1.0000 0.81690  0.60720  0.48700  Biso   1.000  H
  H35      1.0000 0.81690  0.39280  0.51300  Biso   1.000  H
  H36      1.0000 0.18310  0.10720  0.01300  Biso   1.000  H
  H37      1.0000 0.68310  0.39280  0.98700  Biso   1.000  H
  H38      1.0000 0.31690  0.10720  0.48700  Biso   1.000  H
  H39      1.0000 0.31690  0.89280  0.51300  Biso   1.000  H
  H40      1.0000 0.68310  0.60720  0.01300  Biso   1.000  H
  H41      1.0000 0.81690  0.10720  0.01300  Biso   1.000  H
  H42      1.0000 0.18310  0.39280  0.51300  Biso   1.000  H
  H43      1.0000 0.18310  0.60720  0.48700  Biso   1.000  H
  H44      1.0000 0.81690  0.89280  0.98700  Biso   1.000  H
  H45      1.0000 0.31690  0.60720  0.01300  Biso   1.000  H
  H46      1.0000 0.68310  0.89280  0.51300  Biso   1.000  H
  H47      1.0000 0.68310  0.10720  0.48700  Biso   1.000  H
  H48      1.0000 0.31690  0.39280  0.98700  Biso   1.000  H
  C81      1.0000 0.12870  0.89180  0.06980  Biso   1.000  C
  C82      1.0000 0.87130  0.60820  0.56980  Biso   1.000  C
  C83      1.0000 0.87130  0.39180  0.43020  Biso   1.000  C
  C84      1.0000 0.12870  0.10820  0.93020  Biso   1.000  C
  C85      1.0000 0.62870  0.39180  0.06980  Biso   1.000  C
  C86      1.0000 0.37130  0.10820  0.56980  Biso   1.000  C
  C87      1.0000 0.37130  0.89180  0.43020  Biso   1.000  C
  C88      1.0000 0.62870  0.60820  0.93020  Biso   1.000  C
  C89      1.0000 0.87130  0.10820  0.93020  Biso   1.000  C
  C90      1.0000 0.12870  0.39180  0.43020  Biso   1.000  C
  C91      1.0000 0.12870  0.60820  0.56980  Biso   1.000  C
  C92      1.0000 0.87130  0.89180  0.06980  Biso   1.000  C
  C93      1.0000 0.37130  0.60820  0.93020  Biso   1.000  C
  C94      1.0000 0.62870  0.89180  0.43020  Biso   1.000  C
  C95      1.0000 0.62870  0.10820  0.56980  Biso   1.000  C
  C96      1.0000 0.37130  0.39180  0.06980  Biso   1.000  C
  H49      1.0000 0.11330  0.86250  0.04590  Biso   1.000  H
  H50      1.0000 0.88670  0.63750  0.54590  Biso   1.000  H
  H51      1.0000 0.88670  0.36250  0.45410  Biso   1.000  H
  H52      1.0000 0.11330  0.13750  0.95410  Biso   1.000  H
  H53      1.0000 0.61330  0.36250  0.04590  Biso   1.000  H
  H54      1.0000 0.38670  0.13750  0.54590  Biso   1.000  H
  H55      1.0000 0.38670  0.86250  0.45410  Biso   1.000  H
  H56      1.0000 0.61330  0.63750  0.95410  Biso   1.000  H
  H57      1.0000 0.88670  0.13750  0.95410  Biso   1.000  H
  H58      1.0000 0.11330  0.36250  0.45410  Biso   1.000  H
  H59      1.0000 0.11330  0.63750  0.54590  Biso   1.000  H
  H60      1.0000 0.88670  0.86250  0.04590  Biso   1.000  H
  H61      1.0000 0.38670  0.63750  0.95410  Biso   1.000  H
  H62      1.0000 0.61330  0.86250  0.45410  Biso   1.000  H
  H63      1.0000 0.61330  0.13750  0.54590  Biso   1.000  H
  H64      1.0000 0.38670  0.36250  0.04590  Biso   1.000  H
  C97      1.0000 0.06550  0.89520  0.18390  Biso   1.000  C
  C98      1.0000 0.93450  0.60480  0.68390  Biso   1.000  C
  C99      1.0000 0.93450  0.39520  0.31610  Biso   1.000  C
  C100     1.0000 0.06550  0.10480  0.81610  Biso   1.000  C
  C101     1.0000 0.56550  0.39520  0.18390  Biso   1.000  C
  C102     1.0000 0.43450  0.10480  0.68390  Biso   1.000  C
  C103     1.0000 0.43450  0.89520  0.31610  Biso   1.000  C
  C104     1.0000 0.56550  0.60480  0.81610  Biso   1.000  C
  C105     1.0000 0.93450  0.10480  0.81610  Biso   1.000  C
  C106     1.0000 0.06550  0.39520  0.31610  Biso   1.000  C
  C107     1.0000 0.06550  0.60480  0.68390  Biso   1.000  C
  C108     1.0000 0.93450  0.89520  0.18390  Biso   1.000  C
  C109     1.0000 0.43450  0.60480  0.81610  Biso   1.000  C
  C110     1.0000 0.56550  0.89520  0.31610  Biso   1.000  C
  C111     1.0000 0.56550  0.10480  0.68390  Biso   1.000  C
  C112     1.0000 0.43450  0.39520  0.18390  Biso   1.000  C
  C113     1.0000 0.20070  0.02510  0.18270  Biso   1.000  C
  C114     1.0000 0.79930  0.47490  0.68270  Biso   1.000  C
  C115     1.0000 0.79930  0.52510  0.31730  Biso   1.000  C
  C116     1.0000 0.20070  0.97490  0.81730  Biso   1.000  C
  C117     1.0000 0.70070  0.52510  0.18270  Biso   1.000  C
  C118     1.0000 0.29930  0.97490  0.68270  Biso   1.000  C
  C119     1.0000 0.29930  0.02510  0.31730  Biso   1.000  C
  C120     1.0000 0.70070  0.47490  0.81730  Biso   1.000  C
  C121     1.0000 0.79930  0.97490  0.81730  Biso   1.000  C
  C122     1.0000 0.20070  0.52510  0.31730  Biso   1.000  C
  C123     1.0000 0.20070  0.47490  0.68270  Biso   1.000  C
  C124     1.0000 0.79930  0.02510  0.18270  Biso   1.000  C
  C125     1.0000 0.29930  0.47490  0.81730  Biso   1.000  C
  C126     1.0000 0.70070  0.02510  0.31730  Biso   1.000  C
  C127     1.0000 0.70070  0.97490  0.68270  Biso   1.000  C
  C128     1.0000 0.29930  0.52510  0.18270  Biso   1.000  C
  C129     1.0000 0.10820  0.77300  0.37800  Biso   1.000  C
  C130     1.0000 0.89180  0.72700  0.87800  Biso   1.000  C
  C131     1.0000 0.89180  0.27300  0.12200  Biso   1.000  C
  C132     1.0000 0.10820  0.22700  0.62200  Biso   1.000  C
  C133     1.0000 0.60820  0.27300  0.37800  Biso   1.000  C
  C134     1.0000 0.39180  0.22700  0.87800  Biso   1.000  C
  C135     1.0000 0.39180  0.77300  0.12200  Biso   1.000  C
  C136     1.0000 0.60820  0.72700  0.62200  Biso   1.000  C
  C137     1.0000 0.89180  0.22700  0.62200  Biso   1.000  C
  C138     1.0000 0.10820  0.27300  0.12200  Biso   1.000  C
  C139     1.0000 0.10820  0.72700  0.87800  Biso   1.000  C
  C140     1.0000 0.89180  0.77300  0.37800  Biso   1.000  C
  C141     1.0000 0.39180  0.72700  0.62200  Biso   1.000  C
  C142     1.0000 0.60820  0.77300  0.12200  Biso   1.000  C
  C143     1.0000 0.60820  0.22700  0.87800  Biso   1.000  C
  C144     1.0000 0.39180  0.27300  0.37800  Biso   1.000  C
  C145     1.0000 0.13410  0.73360  0.33370  Biso   1.000  C
  C146     1.0000 0.86590  0.76640  0.83370  Biso   1.000  C
  C147     1.0000 0.86590  0.23360  0.16630  Biso   1.000  C
  C148     1.0000 0.13410  0.26640  0.66630  Biso   1.000  C
  C149     1.0000 0.63410  0.23360  0.33370  Biso   1.000  C
  C150     1.0000 0.36590  0.26640  0.83370  Biso   1.000  C
  C151     1.0000 0.36590  0.73360  0.16630  Biso   1.000  C
  C152     1.0000 0.63410  0.76640  0.66630  Biso   1.000  C
  C153     1.0000 0.86590  0.26640  0.66630  Biso   1.000  C
  C154     1.0000 0.13410  0.23360  0.16630  Biso   1.000  C
  C155     1.0000 0.13410  0.76640  0.83370  Biso   1.000  C
  C156     1.0000 0.86590  0.73360  0.33370  Biso   1.000  C
  C157     1.0000 0.36590  0.76640  0.66630  Biso   1.000  C
  C158     1.0000 0.63410  0.73360  0.16630  Biso   1.000  C
  C159     1.0000 0.63410  0.26640  0.83370  Biso   1.000  C
  C160     1.0000 0.36590  0.23360  0.33370  Biso   1.000  C
  H65      1.0000 0.12470  0.72270  0.27890  Biso   1.000  H
  H66      1.0000 0.87530  0.77730  0.77890  Biso   1.000  H
  H67      1.0000 0.87530  0.22270  0.22110  Biso   1.000  H
  H68      1.0000 0.12470  0.27730  0.72110  Biso   1.000  H
  H69      1.0000 0.62470  0.22270  0.27890  Biso   1.000  H
  H70      1.0000 0.37530  0.27730  0.77890  Biso   1.000  H
  H71      1.0000 0.37530  0.72270  0.22110  Biso   1.000  H
  H72      1.0000 0.62470  0.77730  0.72110  Biso   1.000  H
  H73      1.0000 0.87530  0.27730  0.72110  Biso   1.000  H
  H74      1.0000 0.12470  0.22270  0.22110  Biso   1.000  H
  H75      1.0000 0.12470  0.77730  0.77890  Biso   1.000  H
  H76      1.0000 0.87530  0.72270  0.27890  Biso   1.000  H
  H77      1.0000 0.37530  0.77730  0.72110  Biso   1.000  H
  H78      1.0000 0.62470  0.72270  0.22110  Biso   1.000  H
  H79      1.0000 0.62470  0.27730  0.77890  Biso   1.000  H
  H80      1.0000 0.37530  0.22270  0.27890  Biso   1.000  H
  C161     1.0000 0.17380  0.71110  0.37210  Biso   1.000  C
  C162     1.0000 0.82620  0.78890  0.87210  Biso   1.000  C
  C163     1.0000 0.82620  0.21110  0.12790  Biso   1.000  C
  C164     1.0000 0.17380  0.28890  0.62790  Biso   1.000  C
  C165     1.0000 0.67380  0.21110  0.37210  Biso   1.000  C
  C166     1.0000 0.32620  0.28890  0.87210  Biso   1.000  C
  C167     1.0000 0.32620  0.71110  0.12790  Biso   1.000  C
  C168     1.0000 0.67380  0.78890  0.62790  Biso   1.000  C
  C169     1.0000 0.82620  0.28890  0.62790  Biso   1.000  C
  C170     1.0000 0.17380  0.21110  0.12790  Biso   1.000  C
  C171     1.0000 0.17380  0.78890  0.87210  Biso   1.000  C
  C172     1.0000 0.82620  0.71110  0.37210  Biso   1.000  C
  C173     1.0000 0.32620  0.78890  0.62790  Biso   1.000  C
  C174     1.0000 0.67380  0.71110  0.12790  Biso   1.000  C
  C175     1.0000 0.67380  0.28890  0.87210  Biso   1.000  C
  C176     1.0000 0.32620  0.21110  0.37210  Biso   1.000  C
  C177     1.0000 0.18730  0.72740  0.45370  Biso   1.000  C
  C178     1.0000 0.81270  0.77260  0.95370  Biso   1.000  C
  C179     1.0000 0.81270  0.22740  0.04630  Biso   1.000  C
  C180     1.0000 0.18730  0.27260  0.54630  Biso   1.000  C
  C181     1.0000 0.68730  0.22740  0.45370  Biso   1.000  C
  C182     1.0000 0.31270  0.27260  0.95370  Biso   1.000  C
  C183     1.0000 0.31270  0.72740  0.04630  Biso   1.000  C
  C184     1.0000 0.68730  0.77260  0.54630  Biso   1.000  C
  C185     1.0000 0.81270  0.27260  0.54630  Biso   1.000  C
  C186     1.0000 0.18730  0.22740  0.04630  Biso   1.000  C
  C187     1.0000 0.18730  0.77260  0.95370  Biso   1.000  C
  C188     1.0000 0.81270  0.72740  0.45370  Biso   1.000  C
  C189     1.0000 0.31270  0.77260  0.54630  Biso   1.000  C
  C190     1.0000 0.68730  0.72740  0.04630  Biso   1.000  C
  C191     1.0000 0.68730  0.27260  0.95370  Biso   1.000  C
  C192     1.0000 0.31270  0.22740  0.45370  Biso   1.000  C
  H81      1.0000 0.21380  0.71220  0.47930  Biso   1.000  H
  H82      1.0000 0.78620  0.78780  0.97930  Biso   1.000  H
  H83      1.0000 0.78620  0.21220  0.02070  Biso   1.000  H
  H84      1.0000 0.21380  0.28780  0.52070  Biso   1.000  H
  H85      1.0000 0.71380  0.21220  0.47930  Biso   1.000  H
  H86      1.0000 0.28620  0.28780  0.97930  Biso   1.000  H
  H87      1.0000 0.28620  0.71220  0.02070  Biso   1.000  H
  H88      1.0000 0.71380  0.78780  0.52070  Biso   1.000  H
  H89      1.0000 0.78620  0.28780  0.52070  Biso   1.000  H
  H90      1.0000 0.21380  0.21220  0.02070  Biso   1.000  H
  H91      1.0000 0.21380  0.78780  0.97930  Biso   1.000  H
  H92      1.0000 0.78620  0.71220  0.47930  Biso   1.000  H
  H93      1.0000 0.28620  0.78780  0.52070  Biso   1.000  H
  H94      1.0000 0.71380  0.71220  0.02070  Biso   1.000  H
  H95      1.0000 0.71380  0.28780  0.97930  Biso   1.000  H
  H96      1.0000 0.28620  0.21220  0.47930  Biso   1.000  H
  C193     1.0000 0.16230  0.76570  0.49760  Biso   1.000  C
  C194     1.0000 0.83770  0.73430  0.99760  Biso   1.000  C
  C195     1.0000 0.83770  0.26570  0.00240  Biso   1.000  C
  C196     1.0000 0.16230  0.23430  0.50240  Biso   1.000  C
  C197     1.0000 0.66230  0.26570  0.49760  Biso   1.000  C
  C198     1.0000 0.33770  0.23430  0.99760  Biso   1.000  C
  C199     1.0000 0.33770  0.76570  0.00240  Biso   1.000  C
  C200     1.0000 0.66230  0.73430  0.50240  Biso   1.000  C
  C201     1.0000 0.83770  0.23430  0.50240  Biso   1.000  C
  C202     1.0000 0.16230  0.26570  0.00240  Biso   1.000  C
  C203     1.0000 0.16230  0.73430  0.99760  Biso   1.000  C
  C204     1.0000 0.83770  0.76570  0.49760  Biso   1.000  C
  C205     1.0000 0.33770  0.73430  0.50240  Biso   1.000  C
  C206     1.0000 0.66230  0.76570  0.00240  Biso   1.000  C
  C207     1.0000 0.66230  0.23430  0.99760  Biso   1.000  C
  C208     1.0000 0.33770  0.26570  0.49760  Biso   1.000  C
  H97      1.0000 0.17200  0.77670  0.55220  Biso   1.000  H
  H98      1.0000 0.82800  0.72330  0.05220  Biso   1.000  H
  H99      1.0000 0.82800  0.27670  0.94780  Biso   1.000  H
  H100     1.0000 0.17200  0.22330  0.44780  Biso   1.000  H
  H101     1.0000 0.67200  0.27670  0.55220  Biso   1.000  H
  H102     1.0000 0.32800  0.22330  0.05220  Biso   1.000  H
  H103     1.0000 0.32800  0.77670  0.94780  Biso   1.000  H
  H104     1.0000 0.67200  0.72330  0.44780  Biso   1.000  H
  H105     1.0000 0.82800  0.22330  0.44780  Biso   1.000  H
  H106     1.0000 0.17200  0.27670  0.94780  Biso   1.000  H
  H107     1.0000 0.17200  0.72330  0.05220  Biso   1.000  H
  H108     1.0000 0.82800  0.77670  0.55220  Biso   1.000  H
  H109     1.0000 0.32800  0.72330  0.44780  Biso   1.000  H
  H110     1.0000 0.67200  0.77670  0.94780  Biso   1.000  H
  H111     1.0000 0.67200  0.22330  0.05220  Biso   1.000  H
  H112     1.0000 0.32800  0.27670  0.55220  Biso   1.000  H
  C209     1.0000 0.12190  0.78820  0.45910  Biso   1.000  C
  C210     1.0000 0.87810  0.71180  0.95910  Biso   1.000  C
  C211     1.0000 0.87810  0.28820  0.04090  Biso   1.000  C
  C212     1.0000 0.12190  0.21180  0.54090  Biso   1.000  C
  C213     1.0000 0.62190  0.28820  0.45910  Biso   1.000  C
  C214     1.0000 0.37810  0.21180  0.95910  Biso   1.000  C
  C215     1.0000 0.37810  0.78820  0.04090  Biso   1.000  C
  C216     1.0000 0.62190  0.71180  0.54090  Biso   1.000  C
  C217     1.0000 0.87810  0.21180  0.54090  Biso   1.000  C
  C218     1.0000 0.12190  0.28820  0.04090  Biso   1.000  C
  C219     1.0000 0.12190  0.71180  0.95910  Biso   1.000  C
  C220     1.0000 0.87810  0.78820  0.45910  Biso   1.000  C
  C221     1.0000 0.37810  0.71180  0.54090  Biso   1.000  C
  C222     1.0000 0.62190  0.78820  0.04090  Biso   1.000  C
  C223     1.0000 0.62190  0.21180  0.95910  Biso   1.000  C
  C224     1.0000 0.37810  0.28820  0.45910  Biso   1.000  C
  H113     1.0000 0.10440  0.81350  0.48910  Biso   1.000  H
  H114     1.0000 0.89560  0.68650  0.98910  Biso   1.000  H
  H115     1.0000 0.89560  0.31350  0.01090  Biso   1.000  H
  H116     1.0000 0.10440  0.18650  0.51090  Biso   1.000  H
  H117     1.0000 0.60440  0.31350  0.48910  Biso   1.000  H
  H118     1.0000 0.39560  0.18650  0.98910  Biso   1.000  H
  H119     1.0000 0.39560  0.81350  0.01090  Biso   1.000  H
  H120     1.0000 0.60440  0.68650  0.51090  Biso   1.000  H
  H121     1.0000 0.89560  0.18650  0.51090  Biso   1.000  H
  H122     1.0000 0.10440  0.31350  0.01090  Biso   1.000  H
  H123     1.0000 0.10440  0.68650  0.98910  Biso   1.000  H
  H124     1.0000 0.89560  0.81350  0.48910  Biso   1.000  H
  H125     1.0000 0.39560  0.68650  0.51090  Biso   1.000  H
  H126     1.0000 0.60440  0.81350  0.01090  Biso   1.000  H
  H127     1.0000 0.60440  0.18650  0.98910  Biso   1.000  H
  H128     1.0000 0.39560  0.31350  0.48910  Biso   1.000  H
  C225     1.0000 0.06560  0.79720  0.33520  Biso   1.000  C
  C226     1.0000 0.93440  0.70280  0.83520  Biso   1.000  C
  C227     1.0000 0.93440  0.29720  0.16480  Biso   1.000  C
  C228     1.0000 0.06560  0.20280  0.66480  Biso   1.000  C
  C229     1.0000 0.56560  0.29720  0.33520  Biso   1.000  C
  C230     1.0000 0.43440  0.20280  0.83520  Biso   1.000  C
  C231     1.0000 0.43440  0.79720  0.16480  Biso   1.000  C
  C232     1.0000 0.56560  0.70280  0.66480  Biso   1.000  C
  C233     1.0000 0.93440  0.20280  0.66480  Biso   1.000  C
  C234     1.0000 0.06560  0.29720  0.16480  Biso   1.000  C
  C235     1.0000 0.06560  0.70280  0.83520  Biso   1.000  C
  C236     1.0000 0.93440  0.79720  0.33520  Biso   1.000  C
  C237     1.0000 0.43440  0.70280  0.66480  Biso   1.000  C
  C238     1.0000 0.56560  0.79720  0.16480  Biso   1.000  C
  C239     1.0000 0.56560  0.20280  0.83520  Biso   1.000  C
  C240     1.0000 0.43440  0.29720  0.33520  Biso   1.000  C
  C241     1.0000 0.20240  0.66970  0.32420  Biso   1.000  C
  C242     1.0000 0.79760  0.83030  0.82420  Biso   1.000  C
  C243     1.0000 0.79760  0.16970  0.17580  Biso   1.000  C
  C244     1.0000 0.20240  0.33030  0.67580  Biso   1.000  C
  C245     1.0000 0.70240  0.16970  0.32420  Biso   1.000  C
  C246     1.0000 0.29760  0.33030  0.82420  Biso   1.000  C
  C247     1.0000 0.29760  0.66970  0.17580  Biso   1.000  C
  C248     1.0000 0.70240  0.83030  0.67580  Biso   1.000  C
  C249     1.0000 0.79760  0.33030  0.67580  Biso   1.000  C
  C250     1.0000 0.20240  0.16970  0.17580  Biso   1.000  C
  C251     1.0000 0.20240  0.83030  0.82420  Biso   1.000  C
  C252     1.0000 0.79760  0.66970  0.32420  Biso   1.000  C
  C253     1.0000 0.29760  0.83030  0.67580  Biso   1.000  C
  C254     1.0000 0.70240  0.66970  0.17580  Biso   1.000  C
  C255     1.0000 0.70240  0.33030  0.82420  Biso   1.000  C
  C256     1.0000 0.29760  0.16970  0.32420  Biso   1.000  C
  C257     1.0000 0.30500  0.10460  0.00090  Biso   1.000  C
  C258     1.0000 0.69500  0.39540  0.50090  Biso   1.000  C
  C259     1.0000 0.69500  0.60460  0.49910  Biso   1.000  C
  C260     1.0000 0.30500  0.89540  0.99910  Biso   1.000  C
  C261     1.0000 0.80500  0.60460  0.00090  Biso   1.000  C
  C262     1.0000 0.19500  0.89540  0.50090  Biso   1.000  C
  C263     1.0000 0.19500  0.10460  0.49910  Biso   1.000  C
  C264     1.0000 0.80500  0.39540  0.99910  Biso   1.000  C
  C265     1.0000 0.69500  0.89540  0.99910  Biso   1.000  C
  C266     1.0000 0.30500  0.60460  0.49910  Biso   1.000  C
  C267     1.0000 0.30500  0.39540  0.50090  Biso   1.000  C
  C268     1.0000 0.69500  0.10460  0.00090  Biso   1.000  C
  C269     1.0000 0.19500  0.39540  0.99910  Biso   1.000  C
  C270     1.0000 0.80500  0.10460  0.49910  Biso   1.000  C
  C271     1.0000 0.80500  0.89540  0.50090  Biso   1.000  C
  C272     1.0000 0.19500  0.60460  0.00090  Biso   1.000  C
  C273     1.0000 0.36460  0.05730  0.91840  Biso   1.000  C
  C274     1.0000 0.63540  0.44270  0.41840  Biso   1.000  C
  C275     1.0000 0.63540  0.55730  0.58160  Biso   1.000  C
  C276     1.0000 0.36460  0.94270  0.08160  Biso   1.000  C
  C277     1.0000 0.86460  0.55730  0.91840  Biso   1.000  C
  C278     1.0000 0.13540  0.94270  0.41840  Biso   1.000  C
  C279     1.0000 0.13540  0.05730  0.58160  Biso   1.000  C
  C280     1.0000 0.86460  0.44270  0.08160  Biso   1.000  C
  C281     1.0000 0.63540  0.94270  0.08160  Biso   1.000  C
  C282     1.0000 0.36460  0.55730  0.58160  Biso   1.000  C
  C283     1.0000 0.36460  0.44270  0.41840  Biso   1.000  C
  C284     1.0000 0.63540  0.05730  0.91840  Biso   1.000  C
  C285     1.0000 0.13540  0.44270  0.08160  Biso   1.000  C
  C286     1.0000 0.86460  0.05730  0.58160  Biso   1.000  C
  C287     1.0000 0.86460  0.94270  0.41840  Biso   1.000  C
  C288     1.0000 0.13540  0.55730  0.91840  Biso   1.000  C
  C289     1.0000 0.30220  0.10770  0.84530  Biso   1.000  C
  C290     1.0000 0.69780  0.39230  0.34530  Biso   1.000  C
  C291     1.0000 0.69780  0.60770  0.65470  Biso   1.000  C
  C292     1.0000 0.30220  0.89230  0.15470  Biso   1.000  C
  C293     1.0000 0.80220  0.60770  0.84530  Biso   1.000  C
  C294     1.0000 0.19780  0.89230  0.34530  Biso   1.000  C
  C295     1.0000 0.19780  0.10770  0.65470  Biso   1.000  C
  C296     1.0000 0.80220  0.39230  0.15470  Biso   1.000  C
  C297     1.0000 0.69780  0.89230  0.15470  Biso   1.000  C
  C298     1.0000 0.30220  0.60770  0.65470  Biso   1.000  C
  C299     1.0000 0.30220  0.39230  0.34530  Biso   1.000  C
  C300     1.0000 0.69780  0.10770  0.84530  Biso   1.000  C
  C301     1.0000 0.19780  0.39230  0.15470  Biso   1.000  C
  C302     1.0000 0.80220  0.10770  0.65470  Biso   1.000  C
  C303     1.0000 0.80220  0.89230  0.34530  Biso   1.000  C
  C304     1.0000 0.19780  0.60770  0.84530  Biso   1.000  C
  C305     1.0000 0.06320  0.05500  0.32440  Biso   1.000  C
  C306     1.0000 0.93680  0.44500  0.82440  Biso   1.000  C
  C307     1.0000 0.93680  0.55500  0.17560  Biso   1.000  C
  C308     1.0000 0.06320  0.94500  0.67560  Biso   1.000  C
  C309     1.0000 0.56320  0.55500  0.32440  Biso   1.000  C
  C310     1.0000 0.43680  0.94500  0.82440  Biso   1.000  C
  C311     1.0000 0.43680  0.05500  0.17560  Biso   1.000  C
  C312     1.0000 0.56320  0.44500  0.67560  Biso   1.000  C
  C313     1.0000 0.93680  0.94500  0.67560  Biso   1.000  C
  C314     1.0000 0.06320  0.55500  0.17560  Biso   1.000  C
  C315     1.0000 0.06320  0.44500  0.82440  Biso   1.000  C
  C316     1.0000 0.93680  0.05500  0.32440  Biso   1.000  C
  C317     1.0000 0.43680  0.44500  0.67560  Biso   1.000  C
  C318     1.0000 0.56320  0.05500  0.17560  Biso   1.000  C
  C319     1.0000 0.56320  0.94500  0.82440  Biso   1.000  C
  C320     1.0000 0.43680  0.55500  0.32440  Biso   1.000  C
  C321     1.0000 0.05660  0.15010  0.35200  Biso   1.000  C
  C322     1.0000 0.94340  0.34990  0.85200  Biso   1.000  C
  C323     1.0000 0.94340  0.65010  0.14800  Biso   1.000  C
  C324     1.0000 0.05660  0.84990  0.64800  Biso   1.000  C
  C325     1.0000 0.55660  0.65010  0.35200  Biso   1.000  C
  C326     1.0000 0.44340  0.84990  0.85200  Biso   1.000  C
  C327     1.0000 0.44340  0.15010  0.14800  Biso   1.000  C
  C328     1.0000 0.55660  0.34990  0.64800  Biso   1.000  C
  C329     1.0000 0.94340  0.84990  0.64800  Biso   1.000  C
  C330     1.0000 0.05660  0.65010  0.14800  Biso   1.000  C
  C331     1.0000 0.05660  0.34990  0.85200  Biso   1.000  C
  C332     1.0000 0.94340  0.15010  0.35200  Biso   1.000  C
  C333     1.0000 0.44340  0.34990  0.64800  Biso   1.000  C
  C334     1.0000 0.55660  0.15010  0.14800  Biso   1.000  C
  C335     1.0000 0.55660  0.84990  0.85200  Biso   1.000  C
  C336     1.0000 0.44340  0.65010  0.35200  Biso   1.000  C
  C337     1.0000 0.07120  0.09800  0.19740  Biso   1.000  C
  C338     1.0000 0.92880  0.40200  0.69740  Biso   1.000  C
  C339     1.0000 0.92880  0.59800  0.30260  Biso   1.000  C
  C340     1.0000 0.07120  0.90200  0.80260  Biso   1.000  C
  C341     1.0000 0.57120  0.59800  0.19740  Biso   1.000  C
  C342     1.0000 0.42880  0.90200  0.69740  Biso   1.000  C
  C343     1.0000 0.42880  0.09800  0.30260  Biso   1.000  C
  C344     1.0000 0.57120  0.40200  0.80260  Biso   1.000  C
  C345     1.0000 0.92880  0.90200  0.80260  Biso   1.000  C
  C346     1.0000 0.07120  0.59800  0.30260  Biso   1.000  C
  C347     1.0000 0.07120  0.40200  0.69740  Biso   1.000  C
  C348     1.0000 0.92880  0.09800  0.19740  Biso   1.000  C
  C349     1.0000 0.42880  0.40200  0.80260  Biso   1.000  C
  C350     1.0000 0.57120  0.09800  0.30260  Biso   1.000  C
  C351     1.0000 0.57120  0.90200  0.69740  Biso   1.000  C
  C352     1.0000 0.42880  0.59800  0.19740  Biso   1.000  C
  N1       1.0000 0.32240  0.09100  0.92380  Biso   1.000  N
  N2       1.0000 0.67760  0.40900  0.42380  Biso   1.000  N
  N3       1.0000 0.67760  0.59100  0.57620  Biso   1.000  N
  N4       1.0000 0.32240  0.90900  0.07620  Biso   1.000  N
  N5       1.0000 0.82240  0.59100  0.92380  Biso   1.000  N
  N6       1.0000 0.17760  0.90900  0.42380  Biso   1.000  N
  N7       1.0000 0.17760  0.09100  0.57620  Biso   1.000  N
  N8       1.0000 0.82240  0.40900  0.07620  Biso   1.000  N
  N9       1.0000 0.67760  0.90900  0.07620  Biso   1.000  N
  N10      1.0000 0.32240  0.59100  0.57620  Biso   1.000  N
  N11      1.0000 0.32240  0.40900  0.42380  Biso   1.000  N
  N12      1.0000 0.67760  0.09100  0.92380  Biso   1.000  N
  N13      1.0000 0.17760  0.40900  0.07620  Biso   1.000  N
  N14      1.0000 0.82240  0.09100  0.57620  Biso   1.000  N
  N15      1.0000 0.82240  0.90900  0.42380  Biso   1.000  N
  N16      1.0000 0.17760  0.59100  0.92380  Biso   1.000  N
  N17      1.0000 0.06270  0.09750  0.28830  Biso   1.000  N
  N18      1.0000 0.93730  0.40250  0.78830  Biso   1.000  N
  N19      1.0000 0.93730  0.59750  0.21170  Biso   1.000  N
  N20      1.0000 0.06270  0.90250  0.71170  Biso   1.000  N
  N21      1.0000 0.56270  0.59750  0.28830  Biso   1.000  N
  N22      1.0000 0.43730  0.90250  0.78830  Biso   1.000  N
  N23      1.0000 0.43730  0.09750  0.21170  Biso   1.000  N
  N24      1.0000 0.56270  0.40250  0.71170  Biso   1.000  N
  N25      1.0000 0.93730  0.90250  0.71170  Biso   1.000  N
  N26      1.0000 0.06270  0.59750  0.21170  Biso   1.000  N
  N27      1.0000 0.06270  0.40250  0.78830  Biso   1.000  N
  N28      1.0000 0.93730  0.09750  0.28830  Biso   1.000  N
  N29      1.0000 0.43730  0.40250  0.71170  Biso   1.000  N
  N30      1.0000 0.56270  0.09750  0.21170  Biso   1.000  N
  N31      1.0000 0.56270  0.90250  0.78830  Biso   1.000  N
  N32      1.0000 0.43730  0.59750  0.28830  Biso   1.000  N
  O1       1.0000 0.04850  0.85410  0.15010  Biso   1.000  O
  O2       1.0000 0.95150  0.64590  0.65010  Biso   1.000  O
  O3       1.0000 0.95150  0.35410  0.34990  Biso   1.000  O
  O4       1.0000 0.04850  0.14590  0.84990  Biso   1.000  O
  O5       1.0000 0.54850  0.35410  0.15010  Biso   1.000  O
  O6       1.0000 0.45150  0.14590  0.65010  Biso   1.000  O
  O7       1.0000 0.45150  0.85410  0.34990  Biso   1.000  O
  O8       1.0000 0.54850  0.64590  0.84990  Biso   1.000  O
  O9       1.0000 0.95150  0.14590  0.84990  Biso   1.000  O
  O10      1.0000 0.04850  0.35410  0.34990  Biso   1.000  O
  O11      1.0000 0.04850  0.64590  0.65010  Biso   1.000  O
  O12      1.0000 0.95150  0.85410  0.15010  Biso   1.000  O
  O13      1.0000 0.45150  0.64590  0.84990  Biso   1.000  O
  O14      1.0000 0.54850  0.85410  0.34990  Biso   1.000  O
  O15      1.0000 0.54850  0.14590  0.65010  Biso   1.000  O
  O16      1.0000 0.45150  0.35410  0.15010  Biso   1.000  O
  O17      1.0000 0.04944  0.91890  0.24820  Biso   1.000  O
  O18      1.0000 0.95056  0.58110  0.74820  Biso   1.000  O
  O19      1.0000 0.95056  0.41890  0.25180  Biso   1.000  O
  O20      1.0000 0.04944  0.08110  0.75180  Biso   1.000  O
  O21      1.0000 0.54944  0.41890  0.24820  Biso   1.000  O
  O22      1.0000 0.45056  0.08110  0.74820  Biso   1.000  O
  O23      1.0000 0.45056  0.91890  0.25180  Biso   1.000  O
  O24      1.0000 0.54944  0.58110  0.75180  Biso   1.000  O
  O25      1.0000 0.95056  0.08110  0.75180  Biso   1.000  O
  O26      1.0000 0.04944  0.41890  0.25180  Biso   1.000  O
  O27      1.0000 0.04944  0.58110  0.74820  Biso   1.000  O
  O28      1.0000 0.95056  0.91890  0.24820  Biso   1.000  O
  O29      1.0000 0.45056  0.58110  0.75180  Biso   1.000  O
  O30      1.0000 0.54944  0.91890  0.25180  Biso   1.000  O
  O31      1.0000 0.54944  0.08110  0.74820  Biso   1.000  O
  O32      1.0000 0.45056  0.41890  0.24820  Biso   1.000  O
  O33      1.0000 0.23767  0.04040  0.14400  Biso   1.000  O
  O34      1.0000 0.76233  0.45960  0.64400  Biso   1.000  O
  O35      1.0000 0.76233  0.54040  0.35600  Biso   1.000  O
  O36      1.0000 0.23767  0.95960  0.85600  Biso   1.000  O
  O37      1.0000 0.73767  0.54040  0.14400  Biso   1.000  O
  O38      1.0000 0.26233  0.95960  0.64400  Biso   1.000  O
  O39      1.0000 0.26233  0.04040  0.35600  Biso   1.000  O
  O40      1.0000 0.73767  0.45960  0.85600  Biso   1.000  O
  O41      1.0000 0.76233  0.95960  0.85600  Biso   1.000  O
  O42      1.0000 0.23767  0.54040  0.35600  Biso   1.000  O
  O43      1.0000 0.23767  0.45960  0.64400  Biso   1.000  O
  O44      1.0000 0.76233  0.04040  0.14400  Biso   1.000  O
  O45      1.0000 0.26233  0.45960  0.85600  Biso   1.000  O
  O46      1.0000 0.73767  0.04040  0.35600  Biso   1.000  O
  O47      1.0000 0.73767  0.95960  0.64400  Biso   1.000  O
  O48      1.0000 0.26233  0.54040  0.14400  Biso   1.000  O
  O49      1.0000 0.18422  0.04430  0.25000  Biso   1.000  O
  O50      1.0000 0.81578  0.45570  0.75000  Biso   1.000  O
  O51      1.0000 0.81578  0.54430  0.25000  Biso   1.000  O
  O52      1.0000 0.18422  0.95570  0.75000  Biso   1.000  O
  O53      1.0000 0.68422  0.54430  0.25000  Biso   1.000  O
  O54      1.0000 0.31578  0.95570  0.75000  Biso   1.000  O
  O55      1.0000 0.31578  0.04430  0.25000  Biso   1.000  O
  O56      1.0000 0.68422  0.45570  0.75000  Biso   1.000  O
  O57      1.0000 0.81578  0.95570  0.75000  Biso   1.000  O
  O58      1.0000 0.18422  0.54430  0.25000  Biso   1.000  O
  O59      1.0000 0.18422  0.45570  0.75000  Biso   1.000  O
  O60      1.0000 0.81578  0.04430  0.25000  Biso   1.000  O
  O61      1.0000 0.31578  0.45570  0.75000  Biso   1.000  O
  O62      1.0000 0.68422  0.04430  0.25000  Biso   1.000  O
  O63      1.0000 0.68422  0.95570  0.75000  Biso   1.000  O
  O64      1.0000 0.31578  0.54430  0.25000  Biso   1.000  O
  O65      1.0000 0.04943  0.77470  0.26970  Biso   1.000  O
  O66      1.0000 0.95057  0.72530  0.76970  Biso   1.000  O
  O67      1.0000 0.95057  0.27470  0.23030  Biso   1.000  O
  O68      1.0000 0.04943  0.22530  0.73030  Biso   1.000  O
  O69      1.0000 0.54943  0.27470  0.26970  Biso   1.000  O
  O70      1.0000 0.45057  0.22530  0.76970  Biso   1.000  O
  O71      1.0000 0.45057  0.77470  0.23030  Biso   1.000  O
  O72      1.0000 0.54943  0.72530  0.73030  Biso   1.000  O
  O73      1.0000 0.95057  0.22530  0.73030  Biso   1.000  O
  O74      1.0000 0.04943  0.27470  0.23030  Biso   1.000  O
  O75      1.0000 0.04943  0.72530  0.76970  Biso   1.000  O
  O76      1.0000 0.95057  0.77470  0.26970  Biso   1.000  O
  O77      1.0000 0.45057  0.72530  0.73030  Biso   1.000  O
  O78      1.0000 0.54943  0.77470  0.23030  Biso   1.000  O
  O79      1.0000 0.54943  0.22530  0.76970  Biso   1.000  O
  O80      1.0000 0.45057  0.27470  0.26970  Biso   1.000  O
  O81      1.0000 0.04980  0.83930  0.36870  Biso   1.000  O
  O82      1.0000 0.95020  0.66070  0.86870  Biso   1.000  O
  O83      1.0000 0.95020  0.33930  0.13130  Biso   1.000  O
  O84      1.0000 0.04980  0.16070  0.63130  Biso   1.000  O
  O85      1.0000 0.54980  0.33930  0.36870  Biso   1.000  O
  O86      1.0000 0.45020  0.16070  0.86870  Biso   1.000  O
  O87      1.0000 0.45020  0.83930  0.13130  Biso   1.000  O
  O88      1.0000 0.54980  0.66070  0.63130  Biso   1.000  O
  O89      1.0000 0.95020  0.16070  0.63130  Biso   1.000  O
  O90      1.0000 0.04980  0.33930  0.13130  Biso   1.000  O
  O91      1.0000 0.04980  0.66070  0.86870  Biso   1.000  O
  O92      1.0000 0.95020  0.83930  0.36870  Biso   1.000  O
  O93      1.0000 0.45020  0.66070  0.63130  Biso   1.000  O
  O94      1.0000 0.54980  0.83930  0.13130  Biso   1.000  O
  O95      1.0000 0.54980  0.16070  0.86870  Biso   1.000  O
  O96      1.0000 0.45020  0.33930  0.36870  Biso   1.000  O
  O97      1.0000 0.18770  0.65530  0.25190  Biso   1.000  O
  O98      1.0000 0.81230  0.84470  0.75190  Biso   1.000  O
  O99      1.0000 0.81230  0.15530  0.24810  Biso   1.000  O
  O100     1.0000 0.18770  0.34470  0.74810  Biso   1.000  O
  O101     1.0000 0.68770  0.15530  0.25190  Biso   1.000  O
  O102     1.0000 0.31230  0.34470  0.75190  Biso   1.000  O
  O103     1.0000 0.31230  0.65530  0.24810  Biso   1.000  O
  O104     1.0000 0.68770  0.84470  0.74810  Biso   1.000  O
  O105     1.0000 0.81230  0.34470  0.74810  Biso   1.000  O
  O106     1.0000 0.18770  0.15530  0.24810  Biso   1.000  O
  O107     1.0000 0.18770  0.84470  0.75190  Biso   1.000  O
  O108     1.0000 0.81230  0.65530  0.25190  Biso   1.000  O
  O109     1.0000 0.31230  0.84470  0.74810  Biso   1.000  O
  O110     1.0000 0.68770  0.65530  0.24810  Biso   1.000  O
  O111     1.0000 0.68770  0.34470  0.75190  Biso   1.000  O
  O112     1.0000 0.31230  0.15530  0.25190  Biso   1.000  O
  O113     1.0000 0.23725  0.65120  0.36330  Biso   1.000  O
  O114     1.0000 0.76275  0.84880  0.86330  Biso   1.000  O
  O115     1.0000 0.76275  0.15120  0.13670  Biso   1.000  O
  O116     1.0000 0.23725  0.34880  0.63670  Biso   1.000  O
  O117     1.0000 0.73725  0.15120  0.36330  Biso   1.000  O
  O118     1.0000 0.26275  0.34880  0.86330  Biso   1.000  O
  O119     1.0000 0.26275  0.65120  0.13670  Biso   1.000  O
  O120     1.0000 0.73725  0.84880  0.63670  Biso   1.000  O
  O121     1.0000 0.76275  0.34880  0.63670  Biso   1.000  O
  O122     1.0000 0.23725  0.15120  0.13670  Biso   1.000  O
  O123     1.0000 0.23725  0.84880  0.86330  Biso   1.000  O
  O124     1.0000 0.76275  0.65120  0.36330  Biso   1.000  O
  O125     1.0000 0.26275  0.84880  0.63670  Biso   1.000  O
  O126     1.0000 0.73725  0.65120  0.13670  Biso   1.000  O
  O127     1.0000 0.73725  0.34880  0.86330  Biso   1.000  O
  O128     1.0000 0.26275  0.15120  0.36330  Biso   1.000  O
  O129     1.0000 0.32170  0.09260  0.07100  Biso   1.000  O
  O130     1.0000 0.67830  0.40740  0.57100  Biso   1.000  O
  O131     1.0000 0.67830  0.59260  0.42900  Biso   1.000  O
  O132     1.0000 0.32170  0.90740  0.92900  Biso   1.000  O
  O133     1.0000 0.82170  0.59260  0.07100  Biso   1.000  O
  O134     1.0000 0.17830  0.90740  0.57100  Biso   1.000  O
  O135     1.0000 0.17830  0.09260  0.42900  Biso   1.000  O
  O136     1.0000 0.82170  0.40740  0.92900  Biso   1.000  O
  O137     1.0000 0.67830  0.90740  0.92900  Biso   1.000  O
  O138     1.0000 0.32170  0.59260  0.42900  Biso   1.000  O
  O139     1.0000 0.32170  0.40740  0.57100  Biso   1.000  O
  O140     1.0000 0.67830  0.09260  0.07100  Biso   1.000  O
  O141     1.0000 0.17830  0.40740  0.92900  Biso   1.000  O
  O142     1.0000 0.82170  0.09260  0.42900  Biso   1.000  O
  O143     1.0000 0.82170  0.90740  0.57100  Biso   1.000  O
  O144     1.0000 0.17830  0.59260  0.07100  Biso   1.000  O
  O145     1.0000 0.04300  0.03940  0.40490  Biso   1.000  O
  O146     1.0000 0.95700  0.46060  0.90490  Biso   1.000  O
  O147     1.0000 0.95700  0.53940  0.09510  Biso   1.000  O
  O148     1.0000 0.04300  0.96060  0.59510  Biso   1.000  O
  O149     1.0000 0.54300  0.53940  0.40490  Biso   1.000  O
  O150     1.0000 0.45700  0.96060  0.90490  Biso   1.000  O
  O151     1.0000 0.45700  0.03940  0.09510  Biso   1.000  O
  O152     1.0000 0.54300  0.46060  0.59510  Biso   1.000  O
  O153     1.0000 0.95700  0.96060  0.59510  Biso   1.000  O
  O154     1.0000 0.04300  0.53940  0.09510  Biso   1.000  O
  O155     1.0000 0.04300  0.46060  0.90490  Biso   1.000  O
  O156     1.0000 0.95700  0.03940  0.40490  Biso   1.000  O
  O157     1.0000 0.45700  0.46060  0.59510  Biso   1.000  O
  O158     1.0000 0.54300  0.03940  0.09510  Biso   1.000  O
  O159     1.0000 0.54300  0.96060  0.90490  Biso   1.000  O
  O160     1.0000 0.45700  0.53940  0.40490  Biso   1.000  O
  O161     1.0000 0.00000  0.75350  0.09860  Biso   1.000  O
  O162     1.0000 0.00000  0.74650  0.59860  Biso   1.000  O
  O163     1.0000 0.00000  0.25350  0.40140  Biso   1.000  O
  O164     1.0000 0.00000  0.24650  0.90140  Biso   1.000  O
  O165     1.0000 0.50000  0.25350  0.09860  Biso   1.000  O
  O166     1.0000 0.50000  0.24650  0.59860  Biso   1.000  O
  O167     1.0000 0.50000  0.75350  0.40140  Biso   1.000  O
  O168     1.0000 0.50000  0.74650  0.90140  Biso   1.000  O
  O169     1.0000 0.00000  0.94200  0.42140  Biso   1.000  O
  O170     1.0000 0.00000  0.55800  0.92140  Biso   1.000  O
  O171     1.0000 0.00000  0.44200  0.07860  Biso   1.000  O
  O172     1.0000 0.00000  0.05800  0.57860  Biso   1.000  O
  O173     1.0000 0.50000  0.44200  0.42140  Biso   1.000  O
  O174     1.0000 0.50000  0.05800  0.92140  Biso   1.000  O
  O175     1.0000 0.50000  0.94200  0.07860  Biso   1.000  O
  O176     1.0000 0.50000  0.55800  0.57860  Biso   1.000  O
  H129     1.0000 0.00000  0.97470  0.42670  Biso   1.000  H
  H130     1.0000 0.00000  0.52530  0.92670  Biso   1.000  H
  H131     1.0000 0.00000  0.47470  0.07330  Biso   1.000  H
  H132     1.0000 0.00000  0.02530  0.57330  Biso   1.000  H
  H133     1.0000 0.50000  0.47470  0.42670  Biso   1.000  H
  H134     1.0000 0.50000  0.02530  0.92670  Biso   1.000  H
  H135     1.0000 0.50000  0.97470  0.07330  Biso   1.000  H
  H136     1.0000 0.50000  0.52530  0.57330  Biso   1.000  H
  H137     1.0000 0.00000  0.92770  0.46920  Biso   1.000  H
  H138     1.0000 0.00000  0.57230  0.96920  Biso   1.000  H
  H139     1.0000 0.00000  0.42770  0.03080  Biso   1.000  H
  H140     1.0000 0.00000  0.07230  0.53080  Biso   1.000  H
  H141     1.0000 0.50000  0.42770  0.46920  Biso   1.000  H
  H142     1.0000 0.50000  0.07230  0.96920  Biso   1.000  H
  H143     1.0000 0.50000  0.92770  0.03080  Biso   1.000  H
  H144     1.0000 0.50000  0.57230  0.53080  Biso   1.000  H
  C353     1.0000 0.00000  0.80290  0.96130  Biso   1.000  C
  C354     1.0000 0.00000  0.69710  0.46130  Biso   1.000  C
  C355     1.0000 0.00000  0.30290  0.53870  Biso   1.000  C
  C356     1.0000 0.00000  0.19710  0.03870  Biso   1.000  C
  C357     1.0000 0.50000  0.30290  0.96130  Biso   1.000  C
  C358     1.0000 0.50000  0.19710  0.46130  Biso   1.000  C
  C359     1.0000 0.50000  0.80290  0.53870  Biso   1.000  C
  C360     1.0000 0.50000  0.69710  0.03870  Biso   1.000  C
  C361     1.0000 0.00000  0.75700  0.01290  Biso   1.000  C
  C362     1.0000 0.00000  0.74300  0.51290  Biso   1.000  C
  C363     1.0000 0.00000  0.25700  0.48710  Biso   1.000  C
  C364     1.0000 0.00000  0.24300  0.98710  Biso   1.000  C
  C365     1.0000 0.50000  0.25700  0.01290  Biso   1.000  C
  C366     1.0000 0.50000  0.24300  0.51290  Biso   1.000  C
  C367     1.0000 0.50000  0.75700  0.48710  Biso   1.000  C
  C368     1.0000 0.50000  0.74300  0.98710  Biso   1.000  C
