data_image0
_cell_length_a       22.6467
_cell_length_b       22.6467
_cell_length_c       22.6467
_cell_angle_alpha    90
_cell_angle_beta     90
_cell_angle_gamma    90

_symmetry_space_group_name_H-M    "P 1"
_symmetry_int_tables_number       1

loop_
  _symmetry_equiv_pos_as_xyz
  'x, y, z'

loop_
  _atom_site_label
  _atom_site_occupancy
  _atom_site_fract_x
  _atom_site_fract_y
  _atom_site_fract_z
  _atom_site_thermal_displace_type
  _atom_site_B_iso_or_equiv
  _atom_site_type_symbol
  Cu1      1.0000 0.09624  0.59746  0.50213  Biso   1.000  Cu
  Cu2      1.0000 0.40376  0.40254  0.00213  Biso   1.000  Cu
  Cu3      1.0000 0.59624  0.90254  0.49787  Biso   1.000  Cu
  Cu4      1.0000 0.90376  0.09746  0.99787  Biso   1.000  Cu
  Cu5      1.0000 0.50213  0.09624  0.59746  Biso   1.000  Cu
  Cu6      1.0000 0.59746  0.50213  0.09624  Biso   1.000  Cu
  Cu7      1.0000 0.99787  0.90376  0.09746  Biso   1.000  Cu
  Cu8      1.0000 0.40254  0.00213  0.40376  Biso   1.000  Cu
  Cu9      1.0000 0.00213  0.40376  0.40254  Biso   1.000  Cu
  Cu10     1.0000 0.90254  0.49787  0.59624  Biso   1.000  Cu
  Cu11     1.0000 0.49787  0.59624  0.90254  Biso   1.000  Cu
  Cu12     1.0000 0.09746  0.99787  0.90376  Biso   1.000  Cu
  Cu13     1.0000 0.90376  0.40254  0.49787  Biso   1.000  Cu
  Cu14     1.0000 0.59624  0.59746  0.99787  Biso   1.000  Cu
  Cu15     1.0000 0.40376  0.09746  0.50213  Biso   1.000  Cu
  Cu16     1.0000 0.09624  0.90254  0.00213  Biso   1.000  Cu
  Cu17     1.0000 0.49787  0.90376  0.40254  Biso   1.000  Cu
  Cu18     1.0000 0.40254  0.49787  0.90376  Biso   1.000  Cu
  Cu19     1.0000 0.00213  0.09624  0.90254  Biso   1.000  Cu
  Cu20     1.0000 0.59746  0.99787  0.59624  Biso   1.000  Cu
  Cu21     1.0000 0.99787  0.59624  0.59746  Biso   1.000  Cu
  Cu22     1.0000 0.09746  0.50213  0.40376  Biso   1.000  Cu
  Cu23     1.0000 0.50213  0.40376  0.09746  Biso   1.000  Cu
  Cu24     1.0000 0.90254  0.00213  0.09624  Biso   1.000  Cu
  Cd1      1.0000 0.00000  0.00000  0.50000  Biso   1.000  Cd
  Cd2      1.0000 0.50000  0.00000  0.00000  Biso   1.000  Cd
  Cd3      1.0000 0.50000  0.50000  0.50000  Biso   1.000  Cd
  Cd4      1.0000 0.00000  0.50000  0.00000  Biso   1.000  Cd
  Cd5      1.0000 0.07944  0.07944  0.07944  Biso   1.000  Cd
  Cd6      1.0000 0.42056  0.92056  0.57944  Biso   1.000  Cd
  Cd7      1.0000 0.57944  0.42056  0.92056  Biso   1.000  Cd
  Cd8      1.0000 0.92056  0.57944  0.42056  Biso   1.000  Cd
  Cd9      1.0000 0.92056  0.92056  0.92056  Biso   1.000  Cd
  Cd10     1.0000 0.57944  0.07944  0.42056  Biso   1.000  Cd
  Cd11     1.0000 0.42056  0.57944  0.07944  Biso   1.000  Cd
  Cd12     1.0000 0.07944  0.42056  0.57944  Biso   1.000  Cd
  Cl1      1.0000 0.01139  0.01139  0.01139  Biso   1.000  Cl
  Cl2      1.0000 0.48861  0.98861  0.51139  Biso   1.000  Cl
  Cl3      1.0000 0.51139  0.48861  0.98861  Biso   1.000  Cl
  Cl4      1.0000 0.98861  0.51139  0.48861  Biso   1.000  Cl
  Cl5      1.0000 0.98861  0.98861  0.98861  Biso   1.000  Cl
  Cl6      1.0000 0.51139  0.01139  0.48861  Biso   1.000  Cl
  Cl7      1.0000 0.48861  0.51139  0.01139  Biso   1.000  Cl
  Cl8      1.0000 0.01139  0.48861  0.51139  Biso   1.000  Cl
  Cl9      1.0000 0.13760  0.02230  0.14480  Biso   1.000  Cl
  Cl10     1.0000 0.36240  0.97770  0.64480  Biso   1.000  Cl
  Cl11     1.0000 0.63760  0.47770  0.85520  Biso   1.000  Cl
  Cl12     1.0000 0.86240  0.52230  0.35520  Biso   1.000  Cl
  Cl13     1.0000 0.14480  0.13760  0.02230  Biso   1.000  Cl
  Cl14     1.0000 0.02230  0.14480  0.13760  Biso   1.000  Cl
  Cl15     1.0000 0.35520  0.86240  0.52230  Biso   1.000  Cl
  Cl16     1.0000 0.97770  0.64480  0.36240  Biso   1.000  Cl
  Cl17     1.0000 0.64480  0.36240  0.97770  Biso   1.000  Cl
  Cl18     1.0000 0.47770  0.85520  0.63760  Biso   1.000  Cl
  Cl19     1.0000 0.85520  0.63760  0.47770  Biso   1.000  Cl
  Cl20     1.0000 0.52230  0.35520  0.86240  Biso   1.000  Cl
  Cl21     1.0000 0.86240  0.97770  0.85520  Biso   1.000  Cl
  Cl22     1.0000 0.63760  0.02230  0.35520  Biso   1.000  Cl
  Cl23     1.0000 0.36240  0.52230  0.14480  Biso   1.000  Cl
  Cl24     1.0000 0.13760  0.47770  0.64480  Biso   1.000  Cl
  Cl25     1.0000 0.85520  0.86240  0.97770  Biso   1.000  Cl
  Cl26     1.0000 0.97770  0.85520  0.86240  Biso   1.000  Cl
  Cl27     1.0000 0.64480  0.13760  0.47770  Biso   1.000  Cl
  Cl28     1.0000 0.02230  0.35520  0.63760  Biso   1.000  Cl
  Cl29     1.0000 0.35520  0.63760  0.02230  Biso   1.000  Cl
  Cl30     1.0000 0.52230  0.14480  0.36240  Biso   1.000  Cl
  Cl31     1.0000 0.14480  0.36240  0.52230  Biso   1.000  Cl
  Cl32     1.0000 0.47770  0.64480  0.13760  Biso   1.000  Cl
  O1       1.0000 0.11170  0.11240  0.03260  Biso   1.000  O
  O2       1.0000 0.38830  0.88760  0.53260  Biso   1.000  O
  O3       1.0000 0.61170  0.38760  0.96740  Biso   1.000  O
  O4       1.0000 0.88830  0.61240  0.46740  Biso   1.000  O
  O5       1.0000 0.03260  0.11170  0.11240  Biso   1.000  O
  O6       1.0000 0.11240  0.03260  0.11170  Biso   1.000  O
  O7       1.0000 0.46740  0.88830  0.61240  Biso   1.000  O
  O8       1.0000 0.88760  0.53260  0.38830  Biso   1.000  O
  O9       1.0000 0.53260  0.38830  0.88760  Biso   1.000  O
  O10      1.0000 0.38760  0.96740  0.61170  Biso   1.000  O
  O11      1.0000 0.96740  0.61170  0.38760  Biso   1.000  O
  O12      1.0000 0.61240  0.46740  0.88830  Biso   1.000  O
  O13      1.0000 0.88830  0.88760  0.96740  Biso   1.000  O
  O14      1.0000 0.61170  0.11240  0.46740  Biso   1.000  O
  O15      1.0000 0.38830  0.61240  0.03260  Biso   1.000  O
  O16      1.0000 0.11170  0.38760  0.53260  Biso   1.000  O
  O17      1.0000 0.96740  0.88830  0.88760  Biso   1.000  O
  O18      1.0000 0.88760  0.96740  0.88830  Biso   1.000  O
  O19      1.0000 0.53260  0.11170  0.38760  Biso   1.000  O
  O20      1.0000 0.11240  0.46740  0.61170  Biso   1.000  O
  O21      1.0000 0.46740  0.61170  0.11240  Biso   1.000  O
  O22      1.0000 0.61240  0.03260  0.38830  Biso   1.000  O
  O23      1.0000 0.03260  0.38830  0.61240  Biso   1.000  O
  O24      1.0000 0.38760  0.53260  0.11170  Biso   1.000  O
  C1       1.0000 0.12290  0.11200  0.09290  Biso   1.000  C
  C2       1.0000 0.37710  0.88800  0.59290  Biso   1.000  C
  C3       1.0000 0.62290  0.38800  0.90710  Biso   1.000  C
  C4       1.0000 0.87710  0.61200  0.40710  Biso   1.000  C
  C5       1.0000 0.09290  0.12290  0.11200  Biso   1.000  C
  C6       1.0000 0.11200  0.09290  0.12290  Biso   1.000  C
  C7       1.0000 0.40710  0.87710  0.61200  Biso   1.000  C
  C8       1.0000 0.88800  0.59290  0.37710  Biso   1.000  C
  C9       1.0000 0.59290  0.37710  0.88800  Biso   1.000  C
  C10      1.0000 0.38800  0.90710  0.62290  Biso   1.000  C
  C11      1.0000 0.90710  0.62290  0.38800  Biso   1.000  C
  C12      1.0000 0.61200  0.40710  0.87710  Biso   1.000  C
  C13      1.0000 0.87710  0.88800  0.90710  Biso   1.000  C
  C14      1.0000 0.62290  0.11200  0.40710  Biso   1.000  C
  C15      1.0000 0.37710  0.61200  0.09290  Biso   1.000  C
  C16      1.0000 0.12290  0.38800  0.59290  Biso   1.000  C
  C17      1.0000 0.90710  0.87710  0.88800  Biso   1.000  C
  C18      1.0000 0.88800  0.90710  0.87710  Biso   1.000  C
  C19      1.0000 0.59290  0.12290  0.38800  Biso   1.000  C
  C20      1.0000 0.11200  0.40710  0.62290  Biso   1.000  C
  C21      1.0000 0.40710  0.62290  0.11200  Biso   1.000  C
  C22      1.0000 0.61200  0.09290  0.37710  Biso   1.000  C
  C23      1.0000 0.09290  0.37710  0.61200  Biso   1.000  C
  C24      1.0000 0.38800  0.59290  0.12290  Biso   1.000  C
  C25      1.0000 0.07700  0.09100  0.13750  Biso   1.000  C
  C26      1.0000 0.42300  0.90900  0.63750  Biso   1.000  C
  C27      1.0000 0.57700  0.40900  0.86250  Biso   1.000  C
  C28      1.0000 0.92300  0.59100  0.36250  Biso   1.000  C
  C29      1.0000 0.13750  0.07700  0.09100  Biso   1.000  C
  C30      1.0000 0.09100  0.13750  0.07700  Biso   1.000  C
  C31      1.0000 0.36250  0.92300  0.59100  Biso   1.000  C
  C32      1.0000 0.90900  0.63750  0.42300  Biso   1.000  C
  C33      1.0000 0.63750  0.42300  0.90900  Biso   1.000  C
  C34      1.0000 0.40900  0.86250  0.57700  Biso   1.000  C
  C35      1.0000 0.86250  0.57700  0.40900  Biso   1.000  C
  C36      1.0000 0.59100  0.36250  0.92300  Biso   1.000  C
  C37      1.0000 0.92300  0.90900  0.86250  Biso   1.000  C
  C38      1.0000 0.57700  0.09100  0.36250  Biso   1.000  C
  C39      1.0000 0.42300  0.59100  0.13750  Biso   1.000  C
  C40      1.0000 0.07700  0.40900  0.63750  Biso   1.000  C
  C41      1.0000 0.86250  0.92300  0.90900  Biso   1.000  C
  C42      1.0000 0.90900  0.86250  0.92300  Biso   1.000  C
  C43      1.0000 0.63750  0.07700  0.40900  Biso   1.000  C
  C44      1.0000 0.09100  0.36250  0.57700  Biso   1.000  C
  C45      1.0000 0.36250  0.57700  0.09100  Biso   1.000  C
  C46      1.0000 0.59100  0.13750  0.42300  Biso   1.000  C
  C47      1.0000 0.13750  0.42300  0.59100  Biso   1.000  C
  C48      1.0000 0.40900  0.63750  0.07700  Biso   1.000  C
  O25      1.0000 0.08294  0.90720  0.08616  Biso   1.000  O
  O26      1.0000 0.41706  0.09280  0.58616  Biso   1.000  O
  O27      1.0000 0.58294  0.59280  0.91384  Biso   1.000  O
  O28      1.0000 0.91706  0.40720  0.41384  Biso   1.000  O
  O29      1.0000 0.08616  0.08294  0.90720  Biso   1.000  O
  O30      1.0000 0.90720  0.08616  0.08294  Biso   1.000  O
  O31      1.0000 0.41384  0.91706  0.40720  Biso   1.000  O
  O32      1.0000 0.09280  0.58616  0.41706  Biso   1.000  O
  O33      1.0000 0.58616  0.41706  0.09280  Biso   1.000  O
  O34      1.0000 0.59280  0.91384  0.58294  Biso   1.000  O
  O35      1.0000 0.91384  0.58294  0.59280  Biso   1.000  O
  O36      1.0000 0.40720  0.41384  0.91706  Biso   1.000  O
  O37      1.0000 0.91706  0.09280  0.91384  Biso   1.000  O
  O38      1.0000 0.58294  0.90720  0.41384  Biso   1.000  O
  O39      1.0000 0.41706  0.40720  0.08616  Biso   1.000  O
  O40      1.0000 0.08294  0.59280  0.58616  Biso   1.000  O
  O41      1.0000 0.91384  0.91706  0.09280  Biso   1.000  O
  O42      1.0000 0.09280  0.91384  0.91706  Biso   1.000  O
  O43      1.0000 0.58616  0.08294  0.59280  Biso   1.000  O
  O44      1.0000 0.90720  0.41384  0.58294  Biso   1.000  O
  O45      1.0000 0.41384  0.58294  0.90720  Biso   1.000  O
  O46      1.0000 0.40720  0.08616  0.41706  Biso   1.000  O
  O47      1.0000 0.08616  0.41706  0.40720  Biso   1.000  O
  O48      1.0000 0.59280  0.58616  0.08294  Biso   1.000  O
  H1       1.0000 0.09670  0.94000  0.09980  Biso   1.000  H
  H2       1.0000 0.40330  0.06000  0.59980  Biso   1.000  H
  H3       1.0000 0.59670  0.56000  0.90020  Biso   1.000  H
  H4       1.0000 0.90330  0.44000  0.40020  Biso   1.000  H
  H5       1.0000 0.09980  0.09670  0.94000  Biso   1.000  H
  H6       1.0000 0.94000  0.09980  0.09670  Biso   1.000  H
  H7       1.0000 0.40020  0.90330  0.44000  Biso   1.000  H
  H8       1.0000 0.06000  0.59980  0.40330  Biso   1.000  H
  H9       1.0000 0.59980  0.40330  0.06000  Biso   1.000  H
  H10      1.0000 0.56000  0.90020  0.59670  Biso   1.000  H
  H11      1.0000 0.90020  0.59670  0.56000  Biso   1.000  H
  H12      1.0000 0.44000  0.40020  0.90330  Biso   1.000  H
  H13      1.0000 0.90330  0.06000  0.90020  Biso   1.000  H
  H14      1.0000 0.59670  0.94000  0.40020  Biso   1.000  H
  H15      1.0000 0.40330  0.44000  0.09980  Biso   1.000  H
  H16      1.0000 0.09670  0.56000  0.59980  Biso   1.000  H
  H17      1.0000 0.90020  0.90330  0.06000  Biso   1.000  H
  H18      1.0000 0.06000  0.90020  0.90330  Biso   1.000  H
  H19      1.0000 0.59980  0.09670  0.56000  Biso   1.000  H
  H20      1.0000 0.94000  0.40020  0.59670  Biso   1.000  H
  H21      1.0000 0.40020  0.59670  0.94000  Biso   1.000  H
  H22      1.0000 0.44000  0.09980  0.40330  Biso   1.000  H
  H23      1.0000 0.09980  0.40330  0.44000  Biso   1.000  H
  H24      1.0000 0.56000  0.59980  0.09670  Biso   1.000  H
  N1       1.0000 0.04340  0.66550  0.50390  Biso   1.000  N
  N2       1.0000 0.45660  0.33450  0.00390  Biso   1.000  N
  N3       1.0000 0.54340  0.83450  0.49610  Biso   1.000  N
  N4       1.0000 0.95660  0.16550  0.99610  Biso   1.000  N
  N5       1.0000 0.50390  0.04340  0.66550  Biso   1.000  N
  N6       1.0000 0.66550  0.50390  0.04340  Biso   1.000  N
  N7       1.0000 0.99610  0.95660  0.16550  Biso   1.000  N
  N8       1.0000 0.33450  0.00390  0.45660  Biso   1.000  N
  N9       1.0000 0.00390  0.45660  0.33450  Biso   1.000  N
  N10      1.0000 0.83450  0.49610  0.54340  Biso   1.000  N
  N11      1.0000 0.49610  0.54340  0.83450  Biso   1.000  N
  N12      1.0000 0.16550  0.99610  0.95660  Biso   1.000  N
  N13      1.0000 0.95660  0.33450  0.49610  Biso   1.000  N
  N14      1.0000 0.54340  0.66550  0.99610  Biso   1.000  N
  N15      1.0000 0.45660  0.16550  0.50390  Biso   1.000  N
  N16      1.0000 0.04340  0.83450  0.00390  Biso   1.000  N
  N17      1.0000 0.49610  0.95660  0.33450  Biso   1.000  N
  N18      1.0000 0.33450  0.49610  0.95660  Biso   1.000  N
  N19      1.0000 0.00390  0.04340  0.83450  Biso   1.000  N
  N20      1.0000 0.66550  0.99610  0.54340  Biso   1.000  N
  N21      1.0000 0.99610  0.54340  0.66550  Biso   1.000  N
  N22      1.0000 0.16550  0.50390  0.45660  Biso   1.000  N
  N23      1.0000 0.50390  0.45660  0.16550  Biso   1.000  N
  N24      1.0000 0.83450  0.00390  0.04340  Biso   1.000  N
  N25      1.0000 0.99880  0.66510  0.54490  Biso   1.000  N
  N26      1.0000 0.50120  0.33490  0.04490  Biso   1.000  N
  N27      1.0000 0.49880  0.83490  0.45510  Biso   1.000  N
  N28      1.0000 0.00120  0.16510  0.95510  Biso   1.000  N
  N29      1.0000 0.54490  0.99880  0.66510  Biso   1.000  N
  N30      1.0000 0.66510  0.54490  0.99880  Biso   1.000  N
  N31      1.0000 0.95510  0.00120  0.16510  Biso   1.000  N
  N32      1.0000 0.33490  0.04490  0.50120  Biso   1.000  N
  N33      1.0000 0.04490  0.50120  0.33490  Biso   1.000  N
  N34      1.0000 0.83490  0.45510  0.49880  Biso   1.000  N
  N35      1.0000 0.45510  0.49880  0.83490  Biso   1.000  N
  N36      1.0000 0.16510  0.95510  0.00120  Biso   1.000  N
  N37      1.0000 0.00120  0.33490  0.45510  Biso   1.000  N
  N38      1.0000 0.49880  0.66510  0.95510  Biso   1.000  N
  N39      1.0000 0.50120  0.16510  0.54490  Biso   1.000  N
  N40      1.0000 0.99880  0.83490  0.04490  Biso   1.000  N
  N41      1.0000 0.45510  0.00120  0.33490  Biso   1.000  N
  N42      1.0000 0.33490  0.45510  0.00120  Biso   1.000  N
  N43      1.0000 0.04490  0.99880  0.83490  Biso   1.000  N
  N44      1.0000 0.66510  0.95510  0.49880  Biso   1.000  N
  N45      1.0000 0.95510  0.49880  0.66510  Biso   1.000  N
  N46      1.0000 0.16510  0.54490  0.50120  Biso   1.000  N
  N47      1.0000 0.54490  0.50120  0.16510  Biso   1.000  N
  N48      1.0000 0.83490  0.04490  0.99880  Biso   1.000  N
  C49      1.0000 0.08200  0.73370  0.42620  Biso   1.000  C
  C50      1.0000 0.41800  0.26630  0.92620  Biso   1.000  C
  C51      1.0000 0.58200  0.76630  0.57380  Biso   1.000  C
  C52      1.0000 0.91800  0.23370  0.07380  Biso   1.000  C
  C53      1.0000 0.42620  0.08200  0.73370  Biso   1.000  C
  C54      1.0000 0.73370  0.42620  0.08200  Biso   1.000  C
  C55      1.0000 0.07380  0.91800  0.23370  Biso   1.000  C
  C56      1.0000 0.26630  0.92620  0.41800  Biso   1.000  C
  C57      1.0000 0.92620  0.41800  0.26630  Biso   1.000  C
  C58      1.0000 0.76630  0.57380  0.58200  Biso   1.000  C
  C59      1.0000 0.57380  0.58200  0.76630  Biso   1.000  C
  C60      1.0000 0.23370  0.07380  0.91800  Biso   1.000  C
  C61      1.0000 0.91800  0.26630  0.57380  Biso   1.000  C
  C62      1.0000 0.58200  0.73370  0.07380  Biso   1.000  C
  C63      1.0000 0.41800  0.23370  0.42620  Biso   1.000  C
  C64      1.0000 0.08200  0.76630  0.92620  Biso   1.000  C
  C65      1.0000 0.57380  0.91800  0.26630  Biso   1.000  C
  C66      1.0000 0.26630  0.57380  0.91800  Biso   1.000  C
  C67      1.0000 0.92620  0.08200  0.76630  Biso   1.000  C
  C68      1.0000 0.73370  0.07380  0.58200  Biso   1.000  C
  C69      1.0000 0.07380  0.58200  0.73370  Biso   1.000  C
  C70      1.0000 0.23370  0.42620  0.41800  Biso   1.000  C
  C71      1.0000 0.42620  0.41800  0.23370  Biso   1.000  C
  C72      1.0000 0.76630  0.92620  0.08200  Biso   1.000  C
  H25      1.0000 0.08090  0.70370  0.39560  Biso   1.000  H
  H26      1.0000 0.41910  0.29630  0.89560  Biso   1.000  H
  H27      1.0000 0.58090  0.79630  0.60440  Biso   1.000  H
  H28      1.0000 0.91910  0.20370  0.10440  Biso   1.000  H
  H29      1.0000 0.39560  0.08090  0.70370  Biso   1.000  H
  H30      1.0000 0.70370  0.39560  0.08090  Biso   1.000  H
  H31      1.0000 0.10440  0.91910  0.20370  Biso   1.000  H
  H32      1.0000 0.29630  0.89560  0.41910  Biso   1.000  H
  H33      1.0000 0.89560  0.41910  0.29630  Biso   1.000  H
  H34      1.0000 0.79630  0.60440  0.58090  Biso   1.000  H
  H35      1.0000 0.60440  0.58090  0.79630  Biso   1.000  H
  H36      1.0000 0.20370  0.10440  0.91910  Biso   1.000  H
  H37      1.0000 0.91910  0.29630  0.60440  Biso   1.000  H
  H38      1.0000 0.58090  0.70370  0.10440  Biso   1.000  H
  H39      1.0000 0.41910  0.20370  0.39560  Biso   1.000  H
  H40      1.0000 0.08090  0.79630  0.89560  Biso   1.000  H
  H41      1.0000 0.60440  0.91910  0.29630  Biso   1.000  H
  H42      1.0000 0.29630  0.60440  0.91910  Biso   1.000  H
  H43      1.0000 0.89560  0.08090  0.79630  Biso   1.000  H
  H44      1.0000 0.70370  0.10440  0.58090  Biso   1.000  H
  H45      1.0000 0.10440  0.58090  0.70370  Biso   1.000  H
  H46      1.0000 0.20370  0.39560  0.41910  Biso   1.000  H
  H47      1.0000 0.39560  0.41910  0.20370  Biso   1.000  H
  H48      1.0000 0.79630  0.89560  0.08090  Biso   1.000  H
  H49      1.0000 0.07040  0.77140  0.40970  Biso   1.000  H
  H50      1.0000 0.42960  0.22860  0.90970  Biso   1.000  H
  H51      1.0000 0.57040  0.72860  0.59030  Biso   1.000  H
  H52      1.0000 0.92960  0.27140  0.09030  Biso   1.000  H
  H53      1.0000 0.40970  0.07040  0.77140  Biso   1.000  H
  H54      1.0000 0.77140  0.40970  0.07040  Biso   1.000  H
  H55      1.0000 0.09030  0.92960  0.27140  Biso   1.000  H
  H56      1.0000 0.22860  0.90970  0.42960  Biso   1.000  H
  H57      1.0000 0.90970  0.42960  0.22860  Biso   1.000  H
  H58      1.0000 0.72860  0.59030  0.57040  Biso   1.000  H
  H59      1.0000 0.59030  0.57040  0.72860  Biso   1.000  H
  H60      1.0000 0.27140  0.09030  0.92960  Biso   1.000  H
  H61      1.0000 0.92960  0.22860  0.59030  Biso   1.000  H
  H62      1.0000 0.57040  0.77140  0.09030  Biso   1.000  H
  H63      1.0000 0.42960  0.27140  0.40970  Biso   1.000  H
  H64      1.0000 0.07040  0.72860  0.90970  Biso   1.000  H
  H65      1.0000 0.59030  0.92960  0.22860  Biso   1.000  H
  H66      1.0000 0.22860  0.59030  0.92960  Biso   1.000  H
  H67      1.0000 0.90970  0.07040  0.72860  Biso   1.000  H
  H68      1.0000 0.77140  0.09030  0.57040  Biso   1.000  H
  H69      1.0000 0.09030  0.57040  0.77140  Biso   1.000  H
  H70      1.0000 0.27140  0.40970  0.42960  Biso   1.000  H
  H71      1.0000 0.40970  0.42960  0.27140  Biso   1.000  H
  H72      1.0000 0.72860  0.90970  0.07040  Biso   1.000  H
  H73      1.0000 0.12170  0.73660  0.44200  Biso   1.000  H
  H74      1.0000 0.37830  0.26340  0.94200  Biso   1.000  H
  H75      1.0000 0.62170  0.76340  0.55800  Biso   1.000  H
  H76      1.0000 0.87830  0.23660  0.05800  Biso   1.000  H
  H77      1.0000 0.44200  0.12170  0.73660  Biso   1.000  H
  H78      1.0000 0.73660  0.44200  0.12170  Biso   1.000  H
  H79      1.0000 0.05800  0.87830  0.23660  Biso   1.000  H
  H80      1.0000 0.26340  0.94200  0.37830  Biso   1.000  H
  H81      1.0000 0.94200  0.37830  0.26340  Biso   1.000  H
  H82      1.0000 0.76340  0.55800  0.62170  Biso   1.000  H
  H83      1.0000 0.55800  0.62170  0.76340  Biso   1.000  H
  H84      1.0000 0.23660  0.05800  0.87830  Biso   1.000  H
  H85      1.0000 0.87830  0.26340  0.55800  Biso   1.000  H
  H86      1.0000 0.62170  0.73660  0.05800  Biso   1.000  H
  H87      1.0000 0.37830  0.23660  0.44200  Biso   1.000  H
  H88      1.0000 0.12170  0.76340  0.94200  Biso   1.000  H
  H89      1.0000 0.55800  0.87830  0.26340  Biso   1.000  H
  H90      1.0000 0.26340  0.55800  0.87830  Biso   1.000  H
  H91      1.0000 0.94200  0.12170  0.76340  Biso   1.000  H
  H92      1.0000 0.73660  0.05800  0.62170  Biso   1.000  H
  H93      1.0000 0.05800  0.62170  0.73660  Biso   1.000  H
  H94      1.0000 0.23660  0.44200  0.37830  Biso   1.000  H
  H95      1.0000 0.44200  0.37830  0.23660  Biso   1.000  H
  H96      1.0000 0.76340  0.94200  0.12170  Biso   1.000  H
  C73      1.0000 0.04080  0.71740  0.47400  Biso   1.000  C
  C74      1.0000 0.45920  0.28260  0.97400  Biso   1.000  C
  C75      1.0000 0.54080  0.78260  0.52600  Biso   1.000  C
  C76      1.0000 0.95920  0.21740  0.02600  Biso   1.000  C
  C77      1.0000 0.47400  0.04080  0.71740  Biso   1.000  C
  C78      1.0000 0.71740  0.47400  0.04080  Biso   1.000  C
  C79      1.0000 0.02600  0.95920  0.21740  Biso   1.000  C
  C80      1.0000 0.28260  0.97400  0.45920  Biso   1.000  C
  C81      1.0000 0.97400  0.45920  0.28260  Biso   1.000  C
  C82      1.0000 0.78260  0.52600  0.54080  Biso   1.000  C
  C83      1.0000 0.52600  0.54080  0.78260  Biso   1.000  C
  C84      1.0000 0.21740  0.02600  0.95920  Biso   1.000  C
  C85      1.0000 0.95920  0.28260  0.52600  Biso   1.000  C
  C86      1.0000 0.54080  0.71740  0.02600  Biso   1.000  C
  C87      1.0000 0.45920  0.21740  0.47400  Biso   1.000  C
  C88      1.0000 0.04080  0.78260  0.97400  Biso   1.000  C
  C89      1.0000 0.52600  0.95920  0.28260  Biso   1.000  C
  C90      1.0000 0.28260  0.52600  0.95920  Biso   1.000  C
  C91      1.0000 0.97400  0.04080  0.78260  Biso   1.000  C
  C92      1.0000 0.71740  0.02600  0.54080  Biso   1.000  C
  C93      1.0000 0.02600  0.54080  0.71740  Biso   1.000  C
  C94      1.0000 0.21740  0.47400  0.45920  Biso   1.000  C
  C95      1.0000 0.47400  0.45920  0.21740  Biso   1.000  C
  C96      1.0000 0.78260  0.97400  0.04080  Biso   1.000  C
  C97      1.0000 0.99370  0.74880  0.49670  Biso   1.000  C
  C98      1.0000 0.50630  0.25120  0.99670  Biso   1.000  C
  C99      1.0000 0.49370  0.75120  0.50330  Biso   1.000  C
  C100     1.0000 0.00630  0.24880  0.00330  Biso   1.000  C
  C101     1.0000 0.49670  0.99370  0.74880  Biso   1.000  C
  C102     1.0000 0.74880  0.49670  0.99370  Biso   1.000  C
  C103     1.0000 0.00330  0.00630  0.24880  Biso   1.000  C
  C104     1.0000 0.25120  0.99670  0.50630  Biso   1.000  C
  C105     1.0000 0.99670  0.50630  0.25120  Biso   1.000  C
  C106     1.0000 0.75120  0.50330  0.49370  Biso   1.000  C
  C107     1.0000 0.50330  0.49370  0.75120  Biso   1.000  C
  C108     1.0000 0.24880  0.00330  0.00630  Biso   1.000  C
  C109     1.0000 0.00630  0.25120  0.50330  Biso   1.000  C
  C110     1.0000 0.49370  0.74880  0.00330  Biso   1.000  C
  C111     1.0000 0.50630  0.24880  0.49670  Biso   1.000  C
  C112     1.0000 0.99370  0.75120  0.99670  Biso   1.000  C
  C113     1.0000 0.50330  0.00630  0.25120  Biso   1.000  C
  C114     1.0000 0.25120  0.50330  0.00630  Biso   1.000  C
  C115     1.0000 0.99670  0.99370  0.75120  Biso   1.000  C
  C116     1.0000 0.74880  0.00330  0.49370  Biso   1.000  C
  C117     1.0000 0.00330  0.49370  0.74880  Biso   1.000  C
  C118     1.0000 0.24880  0.49670  0.50630  Biso   1.000  C
  C119     1.0000 0.49670  0.50630  0.24880  Biso   1.000  C
  C120     1.0000 0.75120  0.99670  0.99370  Biso   1.000  C
  C121     1.0000 0.96900  0.71590  0.54140  Biso   1.000  C
  C122     1.0000 0.53100  0.28410  0.04140  Biso   1.000  C
  C123     1.0000 0.46900  0.78410  0.45860  Biso   1.000  C
  C124     1.0000 0.03100  0.21590  0.95860  Biso   1.000  C
  C125     1.0000 0.54140  0.96900  0.71590  Biso   1.000  C
  C126     1.0000 0.71590  0.54140  0.96900  Biso   1.000  C
  C127     1.0000 0.95860  0.03100  0.21590  Biso   1.000  C
  C128     1.0000 0.28410  0.04140  0.53100  Biso   1.000  C
  C129     1.0000 0.04140  0.53100  0.28410  Biso   1.000  C
  C130     1.0000 0.78410  0.45860  0.46900  Biso   1.000  C
  C131     1.0000 0.45860  0.46900  0.78410  Biso   1.000  C
  C132     1.0000 0.21590  0.95860  0.03100  Biso   1.000  C
  C133     1.0000 0.03100  0.28410  0.45860  Biso   1.000  C
  C134     1.0000 0.46900  0.71590  0.95860  Biso   1.000  C
  C135     1.0000 0.53100  0.21590  0.54140  Biso   1.000  C
  C136     1.0000 0.96900  0.78410  0.04140  Biso   1.000  C
  C137     1.0000 0.45860  0.03100  0.28410  Biso   1.000  C
  C138     1.0000 0.28410  0.45860  0.03100  Biso   1.000  C
  C139     1.0000 0.04140  0.96900  0.78410  Biso   1.000  C
  C140     1.0000 0.71590  0.95860  0.46900  Biso   1.000  C
  C141     1.0000 0.95860  0.46900  0.71590  Biso   1.000  C
  C142     1.0000 0.21590  0.54140  0.53100  Biso   1.000  C
  C143     1.0000 0.54140  0.53100  0.21590  Biso   1.000  C
  C144     1.0000 0.78410  0.04140  0.96900  Biso   1.000  C
  C145     1.0000 0.91770  0.72990  0.58070  Biso   1.000  C
  C146     1.0000 0.58230  0.27010  0.08070  Biso   1.000  C
  C147     1.0000 0.41770  0.77010  0.41930  Biso   1.000  C
  C148     1.0000 0.08230  0.22990  0.91930  Biso   1.000  C
  C149     1.0000 0.58070  0.91770  0.72990  Biso   1.000  C
  C150     1.0000 0.72990  0.58070  0.91770  Biso   1.000  C
  C151     1.0000 0.91930  0.08230  0.22990  Biso   1.000  C
  C152     1.0000 0.27010  0.08070  0.58230  Biso   1.000  C
  C153     1.0000 0.08070  0.58230  0.27010  Biso   1.000  C
  C154     1.0000 0.77010  0.41930  0.41770  Biso   1.000  C
  C155     1.0000 0.41930  0.41770  0.77010  Biso   1.000  C
  C156     1.0000 0.22990  0.91930  0.08230  Biso   1.000  C
  C157     1.0000 0.08230  0.27010  0.41930  Biso   1.000  C
  C158     1.0000 0.41770  0.72990  0.91930  Biso   1.000  C
  C159     1.0000 0.58230  0.22990  0.58070  Biso   1.000  C
  C160     1.0000 0.91770  0.77010  0.08070  Biso   1.000  C
  C161     1.0000 0.41930  0.08230  0.27010  Biso   1.000  C
  C162     1.0000 0.27010  0.41930  0.08230  Biso   1.000  C
  C163     1.0000 0.08070  0.91770  0.77010  Biso   1.000  C
  C164     1.0000 0.72990  0.91930  0.41770  Biso   1.000  C
  C165     1.0000 0.91930  0.41770  0.72990  Biso   1.000  C
  C166     1.0000 0.22990  0.58070  0.58230  Biso   1.000  C
  C167     1.0000 0.58070  0.58230  0.22990  Biso   1.000  C
  C168     1.0000 0.77010  0.08070  0.91770  Biso   1.000  C
  H97      1.0000 0.92860  0.72250  0.62150  Biso   1.000  H
  H98      1.0000 0.57140  0.27750  0.12150  Biso   1.000  H
  H99      1.0000 0.42860  0.77750  0.37850  Biso   1.000  H
  H100     1.0000 0.07140  0.22250  0.87850  Biso   1.000  H
  H101     1.0000 0.62150  0.92860  0.72250  Biso   1.000  H
  H102     1.0000 0.72250  0.62150  0.92860  Biso   1.000  H
  H103     1.0000 0.87850  0.07140  0.22250  Biso   1.000  H
  H104     1.0000 0.27750  0.12150  0.57140  Biso   1.000  H
  H105     1.0000 0.12150  0.57140  0.27750  Biso   1.000  H
  H106     1.0000 0.77750  0.37850  0.42860  Biso   1.000  H
  H107     1.0000 0.37850  0.42860  0.77750  Biso   1.000  H
  H108     1.0000 0.22250  0.87850  0.07140  Biso   1.000  H
  H109     1.0000 0.07140  0.27750  0.37850  Biso   1.000  H
  H110     1.0000 0.42860  0.72250  0.87850  Biso   1.000  H
  H111     1.0000 0.57140  0.22250  0.62150  Biso   1.000  H
  H112     1.0000 0.92860  0.77750  0.12150  Biso   1.000  H
  H113     1.0000 0.37850  0.07140  0.27750  Biso   1.000  H
  H114     1.0000 0.27750  0.37850  0.07140  Biso   1.000  H
  H115     1.0000 0.12150  0.92860  0.77750  Biso   1.000  H
  H116     1.0000 0.72250  0.87850  0.42860  Biso   1.000  H
  H117     1.0000 0.87850  0.42860  0.72250  Biso   1.000  H
  H118     1.0000 0.22250  0.62150  0.57140  Biso   1.000  H
  H119     1.0000 0.62150  0.57140  0.22250  Biso   1.000  H
  H120     1.0000 0.77750  0.12150  0.92860  Biso   1.000  H
  H121     1.0000 0.90690  0.77100  0.57610  Biso   1.000  H
  H122     1.0000 0.59310  0.22900  0.07610  Biso   1.000  H
  H123     1.0000 0.40690  0.72900  0.42390  Biso   1.000  H
  H124     1.0000 0.09310  0.27100  0.92390  Biso   1.000  H
  H125     1.0000 0.57610  0.90690  0.77100  Biso   1.000  H
  H126     1.0000 0.77100  0.57610  0.90690  Biso   1.000  H
  H127     1.0000 0.92390  0.09310  0.27100  Biso   1.000  H
  H128     1.0000 0.22900  0.07610  0.59310  Biso   1.000  H
  H129     1.0000 0.07610  0.59310  0.22900  Biso   1.000  H
  H130     1.0000 0.72900  0.42390  0.40690  Biso   1.000  H
  H131     1.0000 0.42390  0.40690  0.72900  Biso   1.000  H
  H132     1.0000 0.27100  0.92390  0.09310  Biso   1.000  H
  H133     1.0000 0.09310  0.22900  0.42390  Biso   1.000  H
  H134     1.0000 0.40690  0.77100  0.92390  Biso   1.000  H
  H135     1.0000 0.59310  0.27100  0.57610  Biso   1.000  H
  H136     1.0000 0.90690  0.72900  0.07610  Biso   1.000  H
  H137     1.0000 0.42390  0.09310  0.22900  Biso   1.000  H
  H138     1.0000 0.22900  0.42390  0.09310  Biso   1.000  H
  H139     1.0000 0.07610  0.90690  0.72900  Biso   1.000  H
  H140     1.0000 0.77100  0.92390  0.40690  Biso   1.000  H
  H141     1.0000 0.92390  0.40690  0.77100  Biso   1.000  H
  H142     1.0000 0.27100  0.57610  0.59310  Biso   1.000  H
  H143     1.0000 0.57610  0.59310  0.27100  Biso   1.000  H
  H144     1.0000 0.72900  0.07610  0.90690  Biso   1.000  H
  H145     1.0000 0.88440  0.70500  0.57010  Biso   1.000  H
  H146     1.0000 0.61560  0.29500  0.07010  Biso   1.000  H
  H147     1.0000 0.38440  0.79500  0.42990  Biso   1.000  H
  H148     1.0000 0.11560  0.20500  0.92990  Biso   1.000  H
  H149     1.0000 0.57010  0.88440  0.70500  Biso   1.000  H
  H150     1.0000 0.70500  0.57010  0.88440  Biso   1.000  H
  H151     1.0000 0.92990  0.11560  0.20500  Biso   1.000  H
  H152     1.0000 0.29500  0.07010  0.61560  Biso   1.000  H
  H153     1.0000 0.07010  0.61560  0.29500  Biso   1.000  H
  H154     1.0000 0.79500  0.42990  0.38440  Biso   1.000  H
  H155     1.0000 0.42990  0.38440  0.79500  Biso   1.000  H
  H156     1.0000 0.20500  0.92990  0.11560  Biso   1.000  H
  H157     1.0000 0.11560  0.29500  0.42990  Biso   1.000  H
  H158     1.0000 0.38440  0.70500  0.92990  Biso   1.000  H
  H159     1.0000 0.61560  0.20500  0.57010  Biso   1.000  H
  H160     1.0000 0.88440  0.79500  0.07010  Biso   1.000  H
  H161     1.0000 0.42990  0.11560  0.29500  Biso   1.000  H
  H162     1.0000 0.29500  0.42990  0.11560  Biso   1.000  H
  H163     1.0000 0.07010  0.88440  0.79500  Biso   1.000  H
  H164     1.0000 0.70500  0.92990  0.38440  Biso   1.000  H
  H165     1.0000 0.92990  0.38440  0.70500  Biso   1.000  H
  H166     1.0000 0.20500  0.57010  0.61560  Biso   1.000  H
  H167     1.0000 0.57010  0.61560  0.20500  Biso   1.000  H
  H168     1.0000 0.79500  0.07010  0.88440  Biso   1.000  H
  O49      1.0000 0.86510  0.19790  0.86190  Biso   1.000  O
  O50      1.0000 0.63490  0.80210  0.36190  Biso   1.000  O
  O51      1.0000 0.36510  0.30210  0.13810  Biso   1.000  O
  O52      1.0000 0.13490  0.69790  0.63810  Biso   1.000  O
  O53      1.0000 0.86190  0.86510  0.19790  Biso   1.000  O
  O54      1.0000 0.19790  0.86190  0.86510  Biso   1.000  O
  O55      1.0000 0.63810  0.13490  0.69790  Biso   1.000  O
  O56      1.0000 0.80210  0.36190  0.63490  Biso   1.000  O
  O57      1.0000 0.36190  0.63490  0.80210  Biso   1.000  O
  O58      1.0000 0.30210  0.13810  0.36510  Biso   1.000  O
  O59      1.0000 0.13810  0.36510  0.30210  Biso   1.000  O
  O60      1.0000 0.69790  0.63810  0.13490  Biso   1.000  O
  O61      1.0000 0.13490  0.80210  0.13810  Biso   1.000  O
  O62      1.0000 0.36510  0.19790  0.63810  Biso   1.000  O
  O63      1.0000 0.63490  0.69790  0.86190  Biso   1.000  O
  O64      1.0000 0.86510  0.30210  0.36190  Biso   1.000  O
  O65      1.0000 0.13810  0.13490  0.80210  Biso   1.000  O
  O66      1.0000 0.80210  0.13810  0.13490  Biso   1.000  O
  O67      1.0000 0.36190  0.86510  0.30210  Biso   1.000  O
  O68      1.0000 0.19790  0.63810  0.36510  Biso   1.000  O
  O69      1.0000 0.63810  0.36510  0.19790  Biso   1.000  O
  O70      1.0000 0.69790  0.86190  0.63490  Biso   1.000  O
  O71      1.0000 0.86190  0.63490  0.69790  Biso   1.000  O
  O72      1.0000 0.30210  0.36190  0.86510  Biso   1.000  O
  H169     1.0000 0.88020  0.16570  0.87900  Biso   1.000  H
  H170     1.0000 0.61980  0.83430  0.37900  Biso   1.000  H
  H171     1.0000 0.38020  0.33430  0.12100  Biso   1.000  H
  H172     1.0000 0.11980  0.66570  0.62100  Biso   1.000  H
  H173     1.0000 0.87900  0.88020  0.16570  Biso   1.000  H
  H174     1.0000 0.16570  0.87900  0.88020  Biso   1.000  H
  H175     1.0000 0.62100  0.11980  0.66570  Biso   1.000  H
  H176     1.0000 0.83430  0.37900  0.61980  Biso   1.000  H
  H177     1.0000 0.37900  0.61980  0.83430  Biso   1.000  H
  H178     1.0000 0.33430  0.12100  0.38020  Biso   1.000  H
  H179     1.0000 0.12100  0.38020  0.33430  Biso   1.000  H
  H180     1.0000 0.66570  0.62100  0.11980  Biso   1.000  H
  H181     1.0000 0.11980  0.83430  0.12100  Biso   1.000  H
  H182     1.0000 0.38020  0.16570  0.62100  Biso   1.000  H
  H183     1.0000 0.61980  0.66570  0.87900  Biso   1.000  H
  H184     1.0000 0.88020  0.33430  0.37900  Biso   1.000  H
  H185     1.0000 0.12100  0.11980  0.83430  Biso   1.000  H
  H186     1.0000 0.83430  0.12100  0.11980  Biso   1.000  H
  H187     1.0000 0.37900  0.88020  0.33430  Biso   1.000  H
  H188     1.0000 0.16570  0.62100  0.38020  Biso   1.000  H
  H189     1.0000 0.62100  0.38020  0.16570  Biso   1.000  H
  H190     1.0000 0.66570  0.87900  0.61980  Biso   1.000  H
  H191     1.0000 0.87900  0.61980  0.66570  Biso   1.000  H
  H192     1.0000 0.33430  0.37900  0.88020  Biso   1.000  H
  C169     1.0000 0.89700  0.25030  0.88080  Biso   1.000  C
  C170     1.0000 0.60300  0.74970  0.38080  Biso   1.000  C
  C171     1.0000 0.39700  0.24970  0.11920  Biso   1.000  C
  C172     1.0000 0.10300  0.75030  0.61920  Biso   1.000  C
  C173     1.0000 0.88080  0.89700  0.25030  Biso   1.000  C
  C174     1.0000 0.25030  0.88080  0.89700  Biso   1.000  C
  C175     1.0000 0.61920  0.10300  0.75030  Biso   1.000  C
  C176     1.0000 0.74970  0.38080  0.60300  Biso   1.000  C
  C177     1.0000 0.38080  0.60300  0.74970  Biso   1.000  C
  C178     1.0000 0.24970  0.11920  0.39700  Biso   1.000  C
  C179     1.0000 0.11920  0.39700  0.24970  Biso   1.000  C
  C180     1.0000 0.75030  0.61920  0.10300  Biso   1.000  C
  C181     1.0000 0.10300  0.74970  0.11920  Biso   1.000  C
  C182     1.0000 0.39700  0.25030  0.61920  Biso   1.000  C
  C183     1.0000 0.60300  0.75030  0.88080  Biso   1.000  C
  C184     1.0000 0.89700  0.24970  0.38080  Biso   1.000  C
  C185     1.0000 0.11920  0.10300  0.74970  Biso   1.000  C
  C186     1.0000 0.74970  0.11920  0.10300  Biso   1.000  C
  C187     1.0000 0.38080  0.89700  0.24970  Biso   1.000  C
  C188     1.0000 0.25030  0.61920  0.39700  Biso   1.000  C
  C189     1.0000 0.61920  0.39700  0.25030  Biso   1.000  C
  C190     1.0000 0.75030  0.88080  0.60300  Biso   1.000  C
  C191     1.0000 0.88080  0.60300  0.75030  Biso   1.000  C
  C192     1.0000 0.24970  0.38080  0.89700  Biso   1.000  C
  H193     1.0000 0.88880  0.25630  0.92290  Biso   1.000  H
  H194     1.0000 0.61120  0.74370  0.42290  Biso   1.000  H
  H195     1.0000 0.38880  0.24370  0.07710  Biso   1.000  H
  H196     1.0000 0.11120  0.75630  0.57710  Biso   1.000  H
  H197     1.0000 0.92290  0.88880  0.25630  Biso   1.000  H
  H198     1.0000 0.25630  0.92290  0.88880  Biso   1.000  H
  H199     1.0000 0.57710  0.11120  0.75630  Biso   1.000  H
  H200     1.0000 0.74370  0.42290  0.61120  Biso   1.000  H
  H201     1.0000 0.42290  0.61120  0.74370  Biso   1.000  H
  H202     1.0000 0.24370  0.07710  0.38880  Biso   1.000  H
  H203     1.0000 0.07710  0.38880  0.24370  Biso   1.000  H
  H204     1.0000 0.75630  0.57710  0.11120  Biso   1.000  H
  H205     1.0000 0.11120  0.74370  0.07710  Biso   1.000  H
  H206     1.0000 0.38880  0.25630  0.57710  Biso   1.000  H
  H207     1.0000 0.61120  0.75630  0.92290  Biso   1.000  H
  H208     1.0000 0.88880  0.24370  0.42290  Biso   1.000  H
  H209     1.0000 0.07710  0.11120  0.74370  Biso   1.000  H
  H210     1.0000 0.74370  0.07710  0.11120  Biso   1.000  H
  H211     1.0000 0.42290  0.88880  0.24370  Biso   1.000  H
  H212     1.0000 0.25630  0.57710  0.38880  Biso   1.000  H
  H213     1.0000 0.57710  0.38880  0.25630  Biso   1.000  H
  H214     1.0000 0.75630  0.92290  0.61120  Biso   1.000  H
  H215     1.0000 0.92290  0.61120  0.75630  Biso   1.000  H
  H216     1.0000 0.24370  0.42290  0.88880  Biso   1.000  H
  H217     1.0000 0.93930  0.24200  0.87720  Biso   1.000  H
  H218     1.0000 0.56070  0.75800  0.37720  Biso   1.000  H
  H219     1.0000 0.43930  0.25800  0.12280  Biso   1.000  H
  H220     1.0000 0.06070  0.74200  0.62280  Biso   1.000  H
  H221     1.0000 0.87720  0.93930  0.24200  Biso   1.000  H
  H222     1.0000 0.24200  0.87720  0.93930  Biso   1.000  H
  H223     1.0000 0.62280  0.06070  0.74200  Biso   1.000  H
  H224     1.0000 0.75800  0.37720  0.56070  Biso   1.000  H
  H225     1.0000 0.37720  0.56070  0.75800  Biso   1.000  H
  H226     1.0000 0.25800  0.12280  0.43930  Biso   1.000  H
  H227     1.0000 0.12280  0.43930  0.25800  Biso   1.000  H
  H228     1.0000 0.74200  0.62280  0.06070  Biso   1.000  H
  H229     1.0000 0.06070  0.75800  0.12280  Biso   1.000  H
  H230     1.0000 0.43930  0.24200  0.62280  Biso   1.000  H
  H231     1.0000 0.56070  0.74200  0.87720  Biso   1.000  H
  H232     1.0000 0.93930  0.25800  0.37720  Biso   1.000  H
  H233     1.0000 0.12280  0.06070  0.75800  Biso   1.000  H
  H234     1.0000 0.75800  0.12280  0.06070  Biso   1.000  H
  H235     1.0000 0.37720  0.93930  0.25800  Biso   1.000  H
  H236     1.0000 0.24200  0.62280  0.43930  Biso   1.000  H
  H237     1.0000 0.62280  0.43930  0.24200  Biso   1.000  H
  H238     1.0000 0.74200  0.87720  0.56070  Biso   1.000  H
  H239     1.0000 0.87720  0.56070  0.74200  Biso   1.000  H
  H240     1.0000 0.25800  0.37720  0.93930  Biso   1.000  H
  C193     1.0000 0.88580  0.30260  0.85200  Biso   1.000  C
  C194     1.0000 0.61420  0.69740  0.35200  Biso   1.000  C
  C195     1.0000 0.38580  0.19740  0.14800  Biso   1.000  C
  C196     1.0000 0.11420  0.80260  0.64800  Biso   1.000  C
  C197     1.0000 0.85200  0.88580  0.30260  Biso   1.000  C
  C198     1.0000 0.30260  0.85200  0.88580  Biso   1.000  C
  C199     1.0000 0.64800  0.11420  0.80260  Biso   1.000  C
  C200     1.0000 0.69740  0.35200  0.61420  Biso   1.000  C
  C201     1.0000 0.35200  0.61420  0.69740  Biso   1.000  C
  C202     1.0000 0.19740  0.14800  0.38580  Biso   1.000  C
  C203     1.0000 0.14800  0.38580  0.19740  Biso   1.000  C
  C204     1.0000 0.80260  0.64800  0.11420  Biso   1.000  C
  C205     1.0000 0.11420  0.69740  0.14800  Biso   1.000  C
  C206     1.0000 0.38580  0.30260  0.64800  Biso   1.000  C
  C207     1.0000 0.61420  0.80260  0.85200  Biso   1.000  C
  C208     1.0000 0.88580  0.19740  0.35200  Biso   1.000  C
  C209     1.0000 0.14800  0.11420  0.69740  Biso   1.000  C
  C210     1.0000 0.69740  0.14800  0.11420  Biso   1.000  C
  C211     1.0000 0.35200  0.88580  0.19740  Biso   1.000  C
  C212     1.0000 0.30260  0.64800  0.38580  Biso   1.000  C
  C213     1.0000 0.64800  0.38580  0.30260  Biso   1.000  C
  C214     1.0000 0.80260  0.85200  0.61420  Biso   1.000  C
  C215     1.0000 0.85200  0.61420  0.80260  Biso   1.000  C
  C216     1.0000 0.19740  0.35200  0.88580  Biso   1.000  C
  H241     1.0000 0.91130  0.33330  0.86760  Biso   1.000  H
  H242     1.0000 0.58870  0.66670  0.36760  Biso   1.000  H
  H243     1.0000 0.41130  0.16670  0.13240  Biso   1.000  H
  H244     1.0000 0.08870  0.83330  0.63240  Biso   1.000  H
  H245     1.0000 0.86760  0.91130  0.33330  Biso   1.000  H
  H246     1.0000 0.33330  0.86760  0.91130  Biso   1.000  H
  H247     1.0000 0.63240  0.08870  0.83330  Biso   1.000  H
  H248     1.0000 0.66670  0.36760  0.58870  Biso   1.000  H
  H249     1.0000 0.36760  0.58870  0.66670  Biso   1.000  H
  H250     1.0000 0.16670  0.13240  0.41130  Biso   1.000  H
  H251     1.0000 0.13240  0.41130  0.16670  Biso   1.000  H
  H252     1.0000 0.83330  0.63240  0.08870  Biso   1.000  H
  H253     1.0000 0.08870  0.66670  0.13240  Biso   1.000  H
  H254     1.0000 0.41130  0.33330  0.63240  Biso   1.000  H
  H255     1.0000 0.58870  0.83330  0.86760  Biso   1.000  H
  H256     1.0000 0.91130  0.16670  0.36760  Biso   1.000  H
  H257     1.0000 0.13240  0.08870  0.66670  Biso   1.000  H
  H258     1.0000 0.66670  0.13240  0.08870  Biso   1.000  H
  H259     1.0000 0.36760  0.91130  0.16670  Biso   1.000  H
  H260     1.0000 0.33330  0.63240  0.41130  Biso   1.000  H
  H261     1.0000 0.63240  0.41130  0.33330  Biso   1.000  H
  H262     1.0000 0.83330  0.86760  0.58870  Biso   1.000  H
  H263     1.0000 0.86760  0.58870  0.83330  Biso   1.000  H
  H264     1.0000 0.16670  0.36760  0.91130  Biso   1.000  H
  H265     1.0000 0.84480  0.31370  0.85800  Biso   1.000  H
  H266     1.0000 0.65520  0.68630  0.35800  Biso   1.000  H
  H267     1.0000 0.34480  0.18630  0.14200  Biso   1.000  H
  H268     1.0000 0.15520  0.81370  0.64200  Biso   1.000  H
  H269     1.0000 0.85800  0.84480  0.31370  Biso   1.000  H
  H270     1.0000 0.31370  0.85800  0.84480  Biso   1.000  H
  H271     1.0000 0.64200  0.15520  0.81370  Biso   1.000  H
  H272     1.0000 0.68630  0.35800  0.65520  Biso   1.000  H
  H273     1.0000 0.35800  0.65520  0.68630  Biso   1.000  H
  H274     1.0000 0.18630  0.14200  0.34480  Biso   1.000  H
  H275     1.0000 0.14200  0.34480  0.18630  Biso   1.000  H
  H276     1.0000 0.81370  0.64200  0.15520  Biso   1.000  H
  H277     1.0000 0.15520  0.68630  0.14200  Biso   1.000  H
  H278     1.0000 0.34480  0.31370  0.64200  Biso   1.000  H
  H279     1.0000 0.65520  0.81370  0.85800  Biso   1.000  H
  H280     1.0000 0.84480  0.18630  0.35800  Biso   1.000  H
  H281     1.0000 0.14200  0.15520  0.68630  Biso   1.000  H
  H282     1.0000 0.68630  0.14200  0.15520  Biso   1.000  H
  H283     1.0000 0.35800  0.84480  0.18630  Biso   1.000  H
  H284     1.0000 0.31370  0.64200  0.34480  Biso   1.000  H
  H285     1.0000 0.64200  0.34480  0.31370  Biso   1.000  H
  H286     1.0000 0.81370  0.85800  0.65520  Biso   1.000  H
  H287     1.0000 0.85800  0.65520  0.81370  Biso   1.000  H
  H288     1.0000 0.18630  0.35800  0.84480  Biso   1.000  H
  H289     1.0000 0.89330  0.29770  0.81010  Biso   1.000  H
  H290     1.0000 0.60670  0.70230  0.31010  Biso   1.000  H
  H291     1.0000 0.39330  0.20230  0.18990  Biso   1.000  H
  H292     1.0000 0.10670  0.79770  0.68990  Biso   1.000  H
  H293     1.0000 0.81010  0.89330  0.29770  Biso   1.000  H
  H294     1.0000 0.29770  0.81010  0.89330  Biso   1.000  H
  H295     1.0000 0.68990  0.10670  0.79770  Biso   1.000  H
  H296     1.0000 0.70230  0.31010  0.60670  Biso   1.000  H
  H297     1.0000 0.31010  0.60670  0.70230  Biso   1.000  H
  H298     1.0000 0.20230  0.18990  0.39330  Biso   1.000  H
  H299     1.0000 0.18990  0.39330  0.20230  Biso   1.000  H
  H300     1.0000 0.79770  0.68990  0.10670  Biso   1.000  H
  H301     1.0000 0.10670  0.70230  0.18990  Biso   1.000  H
  H302     1.0000 0.39330  0.29770  0.68990  Biso   1.000  H
  H303     1.0000 0.60670  0.79770  0.81010  Biso   1.000  H
  H304     1.0000 0.89330  0.20230  0.31010  Biso   1.000  H
  H305     1.0000 0.18990  0.10670  0.70230  Biso   1.000  H
  H306     1.0000 0.70230  0.18990  0.10670  Biso   1.000  H
  H307     1.0000 0.31010  0.89330  0.20230  Biso   1.000  H
  H308     1.0000 0.29770  0.68990  0.39330  Biso   1.000  H
  H309     1.0000 0.68990  0.39330  0.29770  Biso   1.000  H
  H310     1.0000 0.79770  0.81010  0.60670  Biso   1.000  H
  H311     1.0000 0.81010  0.60670  0.79770  Biso   1.000  H
  H312     1.0000 0.20230  0.31010  0.89330  Biso   1.000  H
  N49      1.0000 0.97750  0.90305  0.47520  Biso   1.000  N
  N50      1.0000 0.52250  0.09695  0.97520  Biso   1.000  N
  N51      1.0000 0.47750  0.59695  0.52480  Biso   1.000  N
  N52      1.0000 0.02250  0.40305  0.02480  Biso   1.000  N
  N53      1.0000 0.47520  0.97750  0.90305  Biso   1.000  N
  N54      1.0000 0.90305  0.47520  0.97750  Biso   1.000  N
  N55      1.0000 0.02480  0.02250  0.40305  Biso   1.000  N
  N56      1.0000 0.09695  0.97520  0.52250  Biso   1.000  N
  N57      1.0000 0.97520  0.52250  0.09695  Biso   1.000  N
  N58      1.0000 0.59695  0.52480  0.47750  Biso   1.000  N
  N59      1.0000 0.52480  0.47750  0.59695  Biso   1.000  N
  N60      1.0000 0.40305  0.02480  0.02250  Biso   1.000  N
  N61      1.0000 0.02250  0.09695  0.52480  Biso   1.000  N
  N62      1.0000 0.47750  0.90305  0.02480  Biso   1.000  N
  N63      1.0000 0.52250  0.40305  0.47520  Biso   1.000  N
  N64      1.0000 0.97750  0.59695  0.97520  Biso   1.000  N
  N65      1.0000 0.52480  0.02250  0.09695  Biso   1.000  N
  N66      1.0000 0.09695  0.52480  0.02250  Biso   1.000  N
  N67      1.0000 0.97520  0.97750  0.59695  Biso   1.000  N
  N68      1.0000 0.90305  0.02480  0.47750  Biso   1.000  N
  N69      1.0000 0.02480  0.47750  0.90305  Biso   1.000  N
  N70      1.0000 0.40305  0.47520  0.52250  Biso   1.000  N
  N71      1.0000 0.47520  0.52250  0.40305  Biso   1.000  N
  N72      1.0000 0.59695  0.97520  0.97750  Biso   1.000  N
  N73      1.0000 0.97820  0.80776  0.47920  Biso   1.000  N
  N74      1.0000 0.52180  0.19224  0.97920  Biso   1.000  N
  N75      1.0000 0.47820  0.69224  0.52080  Biso   1.000  N
  N76      1.0000 0.02180  0.30776  0.02080  Biso   1.000  N
  N77      1.0000 0.47920  0.97820  0.80776  Biso   1.000  N
  N78      1.0000 0.80776  0.47920  0.97820  Biso   1.000  N
  N79      1.0000 0.02080  0.02180  0.30776  Biso   1.000  N
  N80      1.0000 0.19224  0.97920  0.52180  Biso   1.000  N
  N81      1.0000 0.97920  0.52180  0.19224  Biso   1.000  N
  N82      1.0000 0.69224  0.52080  0.47820  Biso   1.000  N
  N83      1.0000 0.52080  0.47820  0.69224  Biso   1.000  N
  N84      1.0000 0.30776  0.02080  0.02180  Biso   1.000  N
  N85      1.0000 0.02180  0.19224  0.52080  Biso   1.000  N
  N86      1.0000 0.47820  0.80776  0.02080  Biso   1.000  N
  N87      1.0000 0.52180  0.30776  0.47920  Biso   1.000  N
  N88      1.0000 0.97820  0.69224  0.97920  Biso   1.000  N
  N89      1.0000 0.52080  0.02180  0.19224  Biso   1.000  N
  N90      1.0000 0.19224  0.52080  0.02180  Biso   1.000  N
  N91      1.0000 0.97920  0.97820  0.69224  Biso   1.000  N
  N92      1.0000 0.80776  0.02080  0.47820  Biso   1.000  N
  N93      1.0000 0.02080  0.47820  0.80776  Biso   1.000  N
  N94      1.0000 0.30776  0.47920  0.52180  Biso   1.000  N
  N95      1.0000 0.47920  0.52180  0.30776  Biso   1.000  N
  N96      1.0000 0.69224  0.97920  0.97820  Biso   1.000  N
  N97      1.0000 0.92740  0.88250  0.44250  Biso   1.000  N
  N98      1.0000 0.57260  0.11750  0.94250  Biso   1.000  N
  N99      1.0000 0.42740  0.61750  0.55750  Biso   1.000  N
  N100     1.0000 0.07260  0.38250  0.05750  Biso   1.000  N
  N101     1.0000 0.44250  0.92740  0.88250  Biso   1.000  N
  N102     1.0000 0.88250  0.44250  0.92740  Biso   1.000  N
  N103     1.0000 0.05750  0.07260  0.38250  Biso   1.000  N
  N104     1.0000 0.11750  0.94250  0.57260  Biso   1.000  N
  N105     1.0000 0.94250  0.57260  0.11750  Biso   1.000  N
  N106     1.0000 0.61750  0.55750  0.42740  Biso   1.000  N
  N107     1.0000 0.55750  0.42740  0.61750  Biso   1.000  N
  N108     1.0000 0.38250  0.05750  0.07260  Biso   1.000  N
  N109     1.0000 0.07260  0.11750  0.55750  Biso   1.000  N
  N110     1.0000 0.42740  0.88250  0.05750  Biso   1.000  N
  N111     1.0000 0.57260  0.38250  0.44250  Biso   1.000  N
  N112     1.0000 0.92740  0.61750  0.94250  Biso   1.000  N
  N113     1.0000 0.55750  0.07260  0.11750  Biso   1.000  N
  N114     1.0000 0.11750  0.55750  0.07260  Biso   1.000  N
  N115     1.0000 0.94250  0.92740  0.61750  Biso   1.000  N
  N116     1.0000 0.88250  0.05750  0.42740  Biso   1.000  N
  N117     1.0000 0.05750  0.42740  0.88250  Biso   1.000  N
  N118     1.0000 0.38250  0.44250  0.57260  Biso   1.000  N
  N119     1.0000 0.44250  0.57260  0.38250  Biso   1.000  N
  N120     1.0000 0.61750  0.94250  0.92740  Biso   1.000  N
  C217     1.0000 0.00680  0.85780  0.49640  Biso   1.000  C
  C218     1.0000 0.49320  0.14220  0.99640  Biso   1.000  C
  C219     1.0000 0.50680  0.64220  0.50360  Biso   1.000  C
  C220     1.0000 0.99320  0.35780  0.00360  Biso   1.000  C
  C221     1.0000 0.49640  0.00680  0.85780  Biso   1.000  C
  C222     1.0000 0.85780  0.49640  0.00680  Biso   1.000  C
  C223     1.0000 0.00360  0.99320  0.35780  Biso   1.000  C
  C224     1.0000 0.14220  0.99640  0.49320  Biso   1.000  C
  C225     1.0000 0.99640  0.49320  0.14220  Biso   1.000  C
  C226     1.0000 0.64220  0.50360  0.50680  Biso   1.000  C
  C227     1.0000 0.50360  0.50680  0.64220  Biso   1.000  C
  C228     1.0000 0.35780  0.00360  0.99320  Biso   1.000  C
  C229     1.0000 0.99320  0.14220  0.50360  Biso   1.000  C
  C230     1.0000 0.50680  0.85780  0.00360  Biso   1.000  C
  C231     1.0000 0.49320  0.35780  0.49640  Biso   1.000  C
  C232     1.0000 0.00680  0.64220  0.99640  Biso   1.000  C
  C233     1.0000 0.50360  0.99320  0.14220  Biso   1.000  C
  C234     1.0000 0.14220  0.50360  0.99320  Biso   1.000  C
  C235     1.0000 0.99640  0.00680  0.64220  Biso   1.000  C
  C236     1.0000 0.85780  0.00360  0.50680  Biso   1.000  C
  C237     1.0000 0.00360  0.50680  0.85780  Biso   1.000  C
  C238     1.0000 0.35780  0.49640  0.49320  Biso   1.000  C
  C239     1.0000 0.49640  0.49320  0.35780  Biso   1.000  C
  C240     1.0000 0.64220  0.99640  0.00680  Biso   1.000  C
  H313     1.0000 0.04140  0.85950  0.51930  Biso   1.000  H
  H314     1.0000 0.45860  0.14050  0.01930  Biso   1.000  H
  H315     1.0000 0.54140  0.64050  0.48070  Biso   1.000  H
  H316     1.0000 0.95860  0.35950  0.98070  Biso   1.000  H
  H317     1.0000 0.51930  0.04140  0.85950  Biso   1.000  H
  H318     1.0000 0.85950  0.51930  0.04140  Biso   1.000  H
  H319     1.0000 0.98070  0.95860  0.35950  Biso   1.000  H
  H320     1.0000 0.14050  0.01930  0.45860  Biso   1.000  H
  H321     1.0000 0.01930  0.45860  0.14050  Biso   1.000  H
  H322     1.0000 0.64050  0.48070  0.54140  Biso   1.000  H
  H323     1.0000 0.48070  0.54140  0.64050  Biso   1.000  H
  H324     1.0000 0.35950  0.98070  0.95860  Biso   1.000  H
  H325     1.0000 0.95860  0.14050  0.48070  Biso   1.000  H
  H326     1.0000 0.54140  0.85950  0.98070  Biso   1.000  H
  H327     1.0000 0.45860  0.35950  0.51930  Biso   1.000  H
  H328     1.0000 0.04140  0.64050  0.01930  Biso   1.000  H
  H329     1.0000 0.48070  0.95860  0.14050  Biso   1.000  H
  H330     1.0000 0.14050  0.48070  0.95860  Biso   1.000  H
  H331     1.0000 0.01930  0.04140  0.64050  Biso   1.000  H
  H332     1.0000 0.85950  0.98070  0.54140  Biso   1.000  H
  H333     1.0000 0.98070  0.54140  0.85950  Biso   1.000  H
  H334     1.0000 0.35950  0.51930  0.45860  Biso   1.000  H
  H335     1.0000 0.51930  0.45860  0.35950  Biso   1.000  H
  H336     1.0000 0.64050  0.01930  0.04140  Biso   1.000  H
  C241     1.0000 0.93070  0.82540  0.44700  Biso   1.000  C
  C242     1.0000 0.56930  0.17460  0.94700  Biso   1.000  C
  C243     1.0000 0.43070  0.67460  0.55300  Biso   1.000  C
  C244     1.0000 0.06930  0.32540  0.05300  Biso   1.000  C
  C245     1.0000 0.44700  0.93070  0.82540  Biso   1.000  C
  C246     1.0000 0.82540  0.44700  0.93070  Biso   1.000  C
  C247     1.0000 0.05300  0.06930  0.32540  Biso   1.000  C
  C248     1.0000 0.17460  0.94700  0.56930  Biso   1.000  C
  C249     1.0000 0.94700  0.56930  0.17460  Biso   1.000  C
  C250     1.0000 0.67460  0.55300  0.43070  Biso   1.000  C
  C251     1.0000 0.55300  0.43070  0.67460  Biso   1.000  C
  C252     1.0000 0.32540  0.05300  0.06930  Biso   1.000  C
  C253     1.0000 0.06930  0.17460  0.55300  Biso   1.000  C
  C254     1.0000 0.43070  0.82540  0.05300  Biso   1.000  C
  C255     1.0000 0.56930  0.32540  0.44700  Biso   1.000  C
  C256     1.0000 0.93070  0.67460  0.94700  Biso   1.000  C
  C257     1.0000 0.55300  0.06930  0.17460  Biso   1.000  C
  C258     1.0000 0.17460  0.55300  0.06930  Biso   1.000  C
  C259     1.0000 0.94700  0.93070  0.67460  Biso   1.000  C
  C260     1.0000 0.82540  0.05300  0.43070  Biso   1.000  C
  C261     1.0000 0.05300  0.43070  0.82540  Biso   1.000  C
  C262     1.0000 0.32540  0.44700  0.56930  Biso   1.000  C
  C263     1.0000 0.44700  0.56930  0.32540  Biso   1.000  C
  C264     1.0000 0.67460  0.94700  0.93070  Biso   1.000  C
  H337     1.0000 0.90330  0.79920  0.43000  Biso   1.000  H
  H338     1.0000 0.59670  0.20080  0.93000  Biso   1.000  H
  H339     1.0000 0.40330  0.70080  0.57000  Biso   1.000  H
  H340     1.0000 0.09670  0.29920  0.07000  Biso   1.000  H
  H341     1.0000 0.43000  0.90330  0.79920  Biso   1.000  H
  H342     1.0000 0.79920  0.43000  0.90330  Biso   1.000  H
  H343     1.0000 0.07000  0.09670  0.29920  Biso   1.000  H
  H344     1.0000 0.20080  0.93000  0.59670  Biso   1.000  H
  H345     1.0000 0.93000  0.59670  0.20080  Biso   1.000  H
  H346     1.0000 0.70080  0.57000  0.40330  Biso   1.000  H
  H347     1.0000 0.57000  0.40330  0.70080  Biso   1.000  H
  H348     1.0000 0.29920  0.07000  0.09670  Biso   1.000  H
  H349     1.0000 0.09670  0.20080  0.57000  Biso   1.000  H
  H350     1.0000 0.40330  0.79920  0.07000  Biso   1.000  H
  H351     1.0000 0.59670  0.29920  0.43000  Biso   1.000  H
  H352     1.0000 0.90330  0.70080  0.93000  Biso   1.000  H
  H353     1.0000 0.57000  0.09670  0.20080  Biso   1.000  H
  H354     1.0000 0.20080  0.57000  0.09670  Biso   1.000  H
  H355     1.0000 0.93000  0.90330  0.70080  Biso   1.000  H
  H356     1.0000 0.79920  0.07000  0.40330  Biso   1.000  H
  H357     1.0000 0.07000  0.40330  0.79920  Biso   1.000  H
  H358     1.0000 0.29920  0.43000  0.59670  Biso   1.000  H
  H359     1.0000 0.43000  0.59670  0.29920  Biso   1.000  H
  H360     1.0000 0.70080  0.93000  0.90330  Biso   1.000  H
  C265     1.0000 0.00930  0.99220  0.64180  Biso   1.000  C
  C266     1.0000 0.49070  0.00780  0.14180  Biso   1.000  C
  C267     1.0000 0.50930  0.50780  0.35820  Biso   1.000  C
  C268     1.0000 0.99070  0.49220  0.85820  Biso   1.000  C
  C269     1.0000 0.64180  0.00930  0.99220  Biso   1.000  C
  C270     1.0000 0.99220  0.64180  0.00930  Biso   1.000  C
  C271     1.0000 0.85820  0.99070  0.49220  Biso   1.000  C
  C272     1.0000 0.00780  0.14180  0.49070  Biso   1.000  C
  C273     1.0000 0.14180  0.49070  0.00780  Biso   1.000  C
  C274     1.0000 0.50780  0.35820  0.50930  Biso   1.000  C
  C275     1.0000 0.35820  0.50930  0.50780  Biso   1.000  C
  C276     1.0000 0.49220  0.85820  0.99070  Biso   1.000  C
  C277     1.0000 0.99070  0.00780  0.35820  Biso   1.000  C
  C278     1.0000 0.50930  0.99220  0.85820  Biso   1.000  C
  C279     1.0000 0.49070  0.49220  0.64180  Biso   1.000  C
  C280     1.0000 0.00930  0.50780  0.14180  Biso   1.000  C
  C281     1.0000 0.35820  0.99070  0.00780  Biso   1.000  C
  C282     1.0000 0.00780  0.35820  0.99070  Biso   1.000  C
  C283     1.0000 0.14180  0.00930  0.50780  Biso   1.000  C
  C284     1.0000 0.99220  0.85820  0.50930  Biso   1.000  C
  C285     1.0000 0.85820  0.50930  0.99220  Biso   1.000  C
  C286     1.0000 0.49220  0.64180  0.49070  Biso   1.000  C
  C287     1.0000 0.64180  0.49070  0.49220  Biso   1.000  C
  C288     1.0000 0.50780  0.14180  0.00930  Biso   1.000  C
  C289     1.0000 0.92680  0.95490  0.67670  Biso   1.000  C
  C290     1.0000 0.57320  0.04510  0.17670  Biso   1.000  C
  C291     1.0000 0.42680  0.54510  0.32330  Biso   1.000  C
  C292     1.0000 0.07320  0.45490  0.82330  Biso   1.000  C
  C293     1.0000 0.67670  0.92680  0.95490  Biso   1.000  C
  C294     1.0000 0.95490  0.67670  0.92680  Biso   1.000  C
  C295     1.0000 0.82330  0.07320  0.45490  Biso   1.000  C
  C296     1.0000 0.04510  0.17670  0.57320  Biso   1.000  C
  C297     1.0000 0.17670  0.57320  0.04510  Biso   1.000  C
  C298     1.0000 0.54510  0.32330  0.42680  Biso   1.000  C
  C299     1.0000 0.32330  0.42680  0.54510  Biso   1.000  C
  C300     1.0000 0.45490  0.82330  0.07320  Biso   1.000  C
  C301     1.0000 0.07320  0.04510  0.32330  Biso   1.000  C
  C302     1.0000 0.42680  0.95490  0.82330  Biso   1.000  C
  C303     1.0000 0.57320  0.45490  0.67670  Biso   1.000  C
  C304     1.0000 0.92680  0.54510  0.17670  Biso   1.000  C
  C305     1.0000 0.32330  0.07320  0.04510  Biso   1.000  C
  C306     1.0000 0.04510  0.32330  0.07320  Biso   1.000  C
  C307     1.0000 0.17670  0.92680  0.54510  Biso   1.000  C
  C308     1.0000 0.95490  0.82330  0.42680  Biso   1.000  C
  C309     1.0000 0.82330  0.42680  0.95490  Biso   1.000  C
  C310     1.0000 0.45490  0.67670  0.57320  Biso   1.000  C
  C311     1.0000 0.67670  0.57320  0.45490  Biso   1.000  C
  C312     1.0000 0.54510  0.17670  0.92680  Biso   1.000  C
  H361     1.0000 0.04710  0.00920  0.63960  Biso   1.000  H
  H362     1.0000 0.45290  0.99080  0.13960  Biso   1.000  H
  H363     1.0000 0.54710  0.49080  0.36040  Biso   1.000  H
  H364     1.0000 0.95290  0.50920  0.86040  Biso   1.000  H
  H365     1.0000 0.63960  0.04710  0.00920  Biso   1.000  H
  H366     1.0000 0.00920  0.63960  0.04710  Biso   1.000  H
  H367     1.0000 0.86040  0.95290  0.50920  Biso   1.000  H
  H368     1.0000 0.99080  0.13960  0.45290  Biso   1.000  H
  H369     1.0000 0.13960  0.45290  0.99080  Biso   1.000  H
  H370     1.0000 0.49080  0.36040  0.54710  Biso   1.000  H
  H371     1.0000 0.36040  0.54710  0.49080  Biso   1.000  H
  H372     1.0000 0.50920  0.86040  0.95290  Biso   1.000  H
  H373     1.0000 0.95290  0.99080  0.36040  Biso   1.000  H
  H374     1.0000 0.54710  0.00920  0.86040  Biso   1.000  H
  H375     1.0000 0.45290  0.50920  0.63960  Biso   1.000  H
  H376     1.0000 0.04710  0.49080  0.13960  Biso   1.000  H
  H377     1.0000 0.36040  0.95290  0.99080  Biso   1.000  H
  H378     1.0000 0.99080  0.36040  0.95290  Biso   1.000  H
  H379     1.0000 0.13960  0.04710  0.49080  Biso   1.000  H
  H380     1.0000 0.00920  0.86040  0.54710  Biso   1.000  H
  H381     1.0000 0.86040  0.54710  0.00920  Biso   1.000  H
  H382     1.0000 0.50920  0.63960  0.45290  Biso   1.000  H
  H383     1.0000 0.63960  0.45290  0.50920  Biso   1.000  H
  H384     1.0000 0.49080  0.13960  0.04710  Biso   1.000  H
  H385     1.0000 0.89750  0.94160  0.70300  Biso   1.000  H
  H386     1.0000 0.60250  0.05840  0.20300  Biso   1.000  H
  H387     1.0000 0.39750  0.55840  0.29700  Biso   1.000  H
  H388     1.0000 0.10250  0.44160  0.79700  Biso   1.000  H
  H389     1.0000 0.70300  0.89750  0.94160  Biso   1.000  H
  H390     1.0000 0.94160  0.70300  0.89750  Biso   1.000  H
  H391     1.0000 0.79700  0.10250  0.44160  Biso   1.000  H
  H392     1.0000 0.05840  0.20300  0.60250  Biso   1.000  H
  H393     1.0000 0.20300  0.60250  0.05840  Biso   1.000  H
  H394     1.0000 0.55840  0.29700  0.39750  Biso   1.000  H
  H395     1.0000 0.29700  0.39750  0.55840  Biso   1.000  H
  H396     1.0000 0.44160  0.79700  0.10250  Biso   1.000  H
  H397     1.0000 0.10250  0.05840  0.29700  Biso   1.000  H
  H398     1.0000 0.39750  0.94160  0.79700  Biso   1.000  H
  H399     1.0000 0.60250  0.44160  0.70300  Biso   1.000  H
  H400     1.0000 0.89750  0.55840  0.20300  Biso   1.000  H
  H401     1.0000 0.29700  0.10250  0.05840  Biso   1.000  H
  H402     1.0000 0.05840  0.29700  0.10250  Biso   1.000  H
  H403     1.0000 0.20300  0.89750  0.55840  Biso   1.000  H
  H404     1.0000 0.94160  0.79700  0.39750  Biso   1.000  H
  H405     1.0000 0.79700  0.39750  0.94160  Biso   1.000  H
  H406     1.0000 0.44160  0.70300  0.60250  Biso   1.000  H
  H407     1.0000 0.70300  0.60250  0.44160  Biso   1.000  H
  H408     1.0000 0.55840  0.20300  0.89750  Biso   1.000  H
  N121     1.0000 0.92320  0.95390  0.61780  Biso   1.000  N
  N122     1.0000 0.57680  0.04610  0.11780  Biso   1.000  N
  N123     1.0000 0.42320  0.54610  0.38220  Biso   1.000  N
  N124     1.0000 0.07680  0.45390  0.88220  Biso   1.000  N
  N125     1.0000 0.61780  0.92320  0.95390  Biso   1.000  N
  N126     1.0000 0.95390  0.61780  0.92320  Biso   1.000  N
  N127     1.0000 0.88220  0.07680  0.45390  Biso   1.000  N
  N128     1.0000 0.04610  0.11780  0.57680  Biso   1.000  N
  N129     1.0000 0.11780  0.57680  0.04610  Biso   1.000  N
  N130     1.0000 0.54610  0.38220  0.42320  Biso   1.000  N
  N131     1.0000 0.38220  0.42320  0.54610  Biso   1.000  N
  N132     1.0000 0.45390  0.88220  0.07680  Biso   1.000  N
  N133     1.0000 0.07680  0.04610  0.38220  Biso   1.000  N
  N134     1.0000 0.42320  0.95390  0.88220  Biso   1.000  N
  N135     1.0000 0.57680  0.45390  0.61780  Biso   1.000  N
  N136     1.0000 0.92320  0.54610  0.11780  Biso   1.000  N
  N137     1.0000 0.38220  0.07680  0.04610  Biso   1.000  N
  N138     1.0000 0.04610  0.38220  0.07680  Biso   1.000  N
  N139     1.0000 0.11780  0.92320  0.54610  Biso   1.000  N
  N140     1.0000 0.95390  0.88220  0.42320  Biso   1.000  N
  N141     1.0000 0.88220  0.42320  0.95390  Biso   1.000  N
  N142     1.0000 0.45390  0.61780  0.57680  Biso   1.000  N
  N143     1.0000 0.61780  0.57680  0.45390  Biso   1.000  N
  N144     1.0000 0.54610  0.11780  0.92320  Biso   1.000  N
