data_image0
_cell_length_a       26.1224
_cell_length_b       26.1224
_cell_length_c       26.1224
_cell_angle_alpha    90
_cell_angle_beta     90
_cell_angle_gamma    90

_symmetry_space_group_name_H-M    "P 1"
_symmetry_int_tables_number       1

loop_
  _symmetry_equiv_pos_as_xyz
  'x, y, z'

loop_
  _atom_site_label
  _atom_site_occupancy
  _atom_site_fract_x
  _atom_site_fract_y
  _atom_site_fract_z
  _atom_site_thermal_displace_type
  _atom_site_B_iso_or_equiv
  _atom_site_type_symbol
  Cu1      1.0000 0.02231  0.38180  0.68716  Biso   1.000  Cu
  Cu2      1.0000 0.47769  0.61820  0.18716  Biso   1.000  Cu
  Cu3      1.0000 0.97769  0.88180  0.81284  Biso   1.000  Cu
  Cu4      1.0000 0.52231  0.11820  0.31284  Biso   1.000  Cu
  Cu5      1.0000 0.68716  0.02231  0.38180  Biso   1.000  Cu
  Cu6      1.0000 0.18716  0.47769  0.61820  Biso   1.000  Cu
  Cu7      1.0000 0.81284  0.97769  0.88180  Biso   1.000  Cu
  Cu8      1.0000 0.31284  0.52231  0.11820  Biso   1.000  Cu
  Cu9      1.0000 0.38180  0.68716  0.02231  Biso   1.000  Cu
  Cu10     1.0000 0.61820  0.18716  0.47769  Biso   1.000  Cu
  Cu11     1.0000 0.88180  0.81284  0.97769  Biso   1.000  Cu
  Cu12     1.0000 0.11820  0.31284  0.52231  Biso   1.000  Cu
  Cu13     1.0000 0.82590  0.36429  0.71477  Biso   1.000  Cu
  Cu14     1.0000 0.67410  0.63571  0.21477  Biso   1.000  Cu
  Cu15     1.0000 0.17410  0.86429  0.78523  Biso   1.000  Cu
  Cu16     1.0000 0.32590  0.13571  0.28523  Biso   1.000  Cu
  Cu17     1.0000 0.71477  0.82590  0.36429  Biso   1.000  Cu
  Cu18     1.0000 0.21477  0.67410  0.63571  Biso   1.000  Cu
  Cu19     1.0000 0.78523  0.17410  0.86429  Biso   1.000  Cu
  Cu20     1.0000 0.28523  0.32590  0.13571  Biso   1.000  Cu
  Cu21     1.0000 0.36429  0.71477  0.82590  Biso   1.000  Cu
  Cu22     1.0000 0.63571  0.21477  0.67410  Biso   1.000  Cu
  Cu23     1.0000 0.86429  0.78523  0.17410  Biso   1.000  Cu
  Cu24     1.0000 0.13571  0.28523  0.32590  Biso   1.000  Cu
  Cu25     1.0000 0.04826  0.32868  0.78628  Biso   1.000  Cu
  Cu26     1.0000 0.45174  0.67132  0.28628  Biso   1.000  Cu
  Cu27     1.0000 0.95174  0.82868  0.71372  Biso   1.000  Cu
  Cu28     1.0000 0.54826  0.17132  0.21372  Biso   1.000  Cu
  Cu29     1.0000 0.78628  0.04826  0.32868  Biso   1.000  Cu
  Cu30     1.0000 0.28628  0.45174  0.67132  Biso   1.000  Cu
  Cu31     1.0000 0.71372  0.95174  0.82868  Biso   1.000  Cu
  Cu32     1.0000 0.21372  0.54826  0.17132  Biso   1.000  Cu
  Cu33     1.0000 0.32868  0.78628  0.04826  Biso   1.000  Cu
  Cu34     1.0000 0.67132  0.28628  0.45174  Biso   1.000  Cu
  Cu35     1.0000 0.82868  0.71372  0.95174  Biso   1.000  Cu
  Cu36     1.0000 0.17132  0.21372  0.54826  Biso   1.000  Cu
  Ba1      1.0000 0.73919  0.26081  0.76081  Biso   1.000  Ba
  Ba2      1.0000 0.76081  0.73919  0.26081  Biso   1.000  Ba
  Ba3      1.0000 0.26081  0.76081  0.73919  Biso   1.000  Ba
  Ba4      1.0000 0.23919  0.23919  0.23919  Biso   1.000  Ba
  Ba5      1.0000 0.15547  0.34453  0.65547  Biso   1.000  Ba
  Ba6      1.0000 0.34453  0.65547  0.15547  Biso   1.000  Ba
  Ba7      1.0000 0.84453  0.84453  0.84453  Biso   1.000  Ba
  Ba8      1.0000 0.65547  0.15547  0.34453  Biso   1.000  Ba
  Ba9      1.0000 0.63706  0.36294  0.86294  Biso   1.000  Ba
  Ba10     1.0000 0.86294  0.63706  0.36294  Biso   1.000  Ba
  Ba11     1.0000 0.36294  0.86294  0.63706  Biso   1.000  Ba
  Ba12     1.0000 0.13706  0.13706  0.13706  Biso   1.000  Ba
  O1       1.0000 0.76830  0.33300  0.67960  Biso   1.000  O
  O2       1.0000 0.73170  0.66700  0.17960  Biso   1.000  O
  O3       1.0000 0.23170  0.83300  0.82040  Biso   1.000  O
  O4       1.0000 0.26830  0.16700  0.32040  Biso   1.000  O
  O5       1.0000 0.67960  0.76830  0.33300  Biso   1.000  O
  O6       1.0000 0.17960  0.73170  0.66700  Biso   1.000  O
  O7       1.0000 0.82040  0.23170  0.83300  Biso   1.000  O
  O8       1.0000 0.32040  0.26830  0.16700  Biso   1.000  O
  O9       1.0000 0.33300  0.67960  0.76830  Biso   1.000  O
  O10      1.0000 0.66700  0.17960  0.73170  Biso   1.000  O
  O11      1.0000 0.83300  0.82040  0.23170  Biso   1.000  O
  O12      1.0000 0.16700  0.32040  0.26830  Biso   1.000  O
  O13      1.0000 0.07950  0.36600  0.73130  Biso   1.000  O
  O14      1.0000 0.42050  0.63400  0.23130  Biso   1.000  O
  O15      1.0000 0.92050  0.86600  0.76870  Biso   1.000  O
  O16      1.0000 0.57950  0.13400  0.26870  Biso   1.000  O
  O17      1.0000 0.73130  0.07950  0.36600  Biso   1.000  O
  O18      1.0000 0.23130  0.42050  0.63400  Biso   1.000  O
  O19      1.0000 0.76870  0.92050  0.86600  Biso   1.000  O
  O20      1.0000 0.26870  0.57950  0.13400  Biso   1.000  O
  O21      1.0000 0.36600  0.73130  0.07950  Biso   1.000  O
  O22      1.0000 0.63400  0.23130  0.42050  Biso   1.000  O
  O23      1.0000 0.86600  0.76870  0.92050  Biso   1.000  O
  O24      1.0000 0.13400  0.26870  0.57950  Biso   1.000  O
  N1       1.0000 0.96160  0.37900  0.64700  Biso   1.000  N
  N2       1.0000 0.53840  0.62100  0.14700  Biso   1.000  N
  N3       1.0000 0.03840  0.87900  0.85300  Biso   1.000  N
  N4       1.0000 0.46160  0.12100  0.35300  Biso   1.000  N
  N5       1.0000 0.64700  0.96160  0.37900  Biso   1.000  N
  N6       1.0000 0.14700  0.53840  0.62100  Biso   1.000  N
  N7       1.0000 0.85300  0.03840  0.87900  Biso   1.000  N
  N8       1.0000 0.35300  0.46160  0.12100  Biso   1.000  N
  N9       1.0000 0.37900  0.64700  0.96160  Biso   1.000  N
  N10      1.0000 0.62100  0.14700  0.53840  Biso   1.000  N
  N11      1.0000 0.87900  0.85300  0.03840  Biso   1.000  N
  N12      1.0000 0.12100  0.35300  0.46160  Biso   1.000  N
  N13      1.0000 0.88520  0.38490  0.75340  Biso   1.000  N
  N14      1.0000 0.61480  0.61510  0.25340  Biso   1.000  N
  N15      1.0000 0.11480  0.88490  0.74660  Biso   1.000  N
  N16      1.0000 0.38520  0.11510  0.24660  Biso   1.000  N
  N17      1.0000 0.75340  0.88520  0.38490  Biso   1.000  N
  N18      1.0000 0.25340  0.61480  0.61510  Biso   1.000  N
  N19      1.0000 0.74660  0.11480  0.88490  Biso   1.000  N
  N20      1.0000 0.24660  0.38520  0.11510  Biso   1.000  N
  N21      1.0000 0.38490  0.75340  0.88520  Biso   1.000  N
  N22      1.0000 0.61510  0.25340  0.61480  Biso   1.000  N
  N23      1.0000 0.88490  0.74660  0.11480  Biso   1.000  N
  N24      1.0000 0.11510  0.24660  0.38520  Biso   1.000  N
  N25      1.0000 0.00530  0.29750  0.83590  Biso   1.000  N
  N26      1.0000 0.49470  0.70250  0.33590  Biso   1.000  N
  N27      1.0000 0.99470  0.79750  0.66410  Biso   1.000  N
  N28      1.0000 0.50530  0.20250  0.16410  Biso   1.000  N
  N29      1.0000 0.83590  0.00530  0.29750  Biso   1.000  N
  N30      1.0000 0.33590  0.49470  0.70250  Biso   1.000  N
  N31      1.0000 0.66410  0.99470  0.79750  Biso   1.000  N
  N32      1.0000 0.16410  0.50530  0.20250  Biso   1.000  N
  N33      1.0000 0.29750  0.83590  0.00530  Biso   1.000  N
  N34      1.0000 0.70250  0.33590  0.49470  Biso   1.000  N
  N35      1.0000 0.79750  0.66410  0.99470  Biso   1.000  N
  N36      1.0000 0.20250  0.16410  0.50530  Biso   1.000  N
  N37      1.0000 0.93290  0.23920  0.74000  Biso   1.000  N
  N38      1.0000 0.56710  0.76080  0.24000  Biso   1.000  N
  N39      1.0000 0.06710  0.73920  0.76000  Biso   1.000  N
  N40      1.0000 0.43290  0.26080  0.26000  Biso   1.000  N
  N41      1.0000 0.74000  0.93290  0.23920  Biso   1.000  N
  N42      1.0000 0.24000  0.56710  0.76080  Biso   1.000  N
  N43      1.0000 0.76000  0.06710  0.73920  Biso   1.000  N
  N44      1.0000 0.26000  0.43290  0.26080  Biso   1.000  N
  N45      1.0000 0.23920  0.74000  0.93290  Biso   1.000  N
  N46      1.0000 0.76080  0.24000  0.56710  Biso   1.000  N
  N47      1.0000 0.73920  0.76000  0.06710  Biso   1.000  N
  N48      1.0000 0.26080  0.26000  0.43290  Biso   1.000  N
  O25      1.0000 0.63340  0.27400  0.80640  Biso   1.000  O
  O26      1.0000 0.86660  0.72600  0.30640  Biso   1.000  O
  O27      1.0000 0.36660  0.77400  0.69360  Biso   1.000  O
  O28      1.0000 0.13340  0.22600  0.19360  Biso   1.000  O
  O29      1.0000 0.80640  0.63340  0.27400  Biso   1.000  O
  O30      1.0000 0.30640  0.86660  0.72600  Biso   1.000  O
  O31      1.0000 0.69360  0.36660  0.77400  Biso   1.000  O
  O32      1.0000 0.19360  0.13340  0.22600  Biso   1.000  O
  O33      1.0000 0.27400  0.80640  0.63340  Biso   1.000  O
  O34      1.0000 0.72600  0.30640  0.86660  Biso   1.000  O
  O35      1.0000 0.77400  0.69360  0.36660  Biso   1.000  O
  O36      1.0000 0.22600  0.19360  0.13340  Biso   1.000  O
  O37      1.0000 0.21960  0.28040  0.71960  Biso   1.000  O
  O38      1.0000 0.28040  0.71960  0.21960  Biso   1.000  O
  O39      1.0000 0.78040  0.78040  0.78040  Biso   1.000  O
  O40      1.0000 0.71960  0.21960  0.28040  Biso   1.000  O
  O41      1.0000 0.78710  0.44670  0.70580  Biso   1.000  O
  O42      1.0000 0.71290  0.55330  0.20580  Biso   1.000  O
  O43      1.0000 0.21290  0.94670  0.79420  Biso   1.000  O
  O44      1.0000 0.28710  0.05330  0.29420  Biso   1.000  O
  O45      1.0000 0.70580  0.78710  0.44670  Biso   1.000  O
  O46      1.0000 0.20580  0.71290  0.55330  Biso   1.000  O
  O47      1.0000 0.79420  0.21290  0.94670  Biso   1.000  O
  O48      1.0000 0.29420  0.28710  0.05330  Biso   1.000  O
  O49      1.0000 0.44670  0.70580  0.78710  Biso   1.000  O
  O50      1.0000 0.55330  0.20580  0.71290  Biso   1.000  O
  O51      1.0000 0.94670  0.79420  0.21290  Biso   1.000  O
  O52      1.0000 0.05330  0.29420  0.28710  Biso   1.000  O
  O53      1.0000 0.10260  0.25620  0.69270  Biso   1.000  O
  O54      1.0000 0.39740  0.74380  0.19270  Biso   1.000  O
  O55      1.0000 0.89740  0.75620  0.80730  Biso   1.000  O
  O56      1.0000 0.60260  0.24380  0.30730  Biso   1.000  O
  O57      1.0000 0.69270  0.10260  0.25620  Biso   1.000  O
  O58      1.0000 0.19270  0.39740  0.74380  Biso   1.000  O
  O59      1.0000 0.80730  0.89740  0.75620  Biso   1.000  O
  O60      1.0000 0.30730  0.60260  0.24380  Biso   1.000  O
  O61      1.0000 0.25620  0.69270  0.10260  Biso   1.000  O
  O62      1.0000 0.74380  0.19270  0.39740  Biso   1.000  O
  O63      1.0000 0.75620  0.80730  0.89740  Biso   1.000  O
  O64      1.0000 0.24380  0.30730  0.60260  Biso   1.000  O
  O65      1.0000 0.97250  0.39370  0.74530  Biso   1.000  O
  O66      1.0000 0.52750  0.60630  0.24530  Biso   1.000  O
  O67      1.0000 0.02750  0.89370  0.75470  Biso   1.000  O
  O68      1.0000 0.47250  0.10630  0.25470  Biso   1.000  O
  O69      1.0000 0.74530  0.97250  0.39370  Biso   1.000  O
  O70      1.0000 0.24530  0.52750  0.60630  Biso   1.000  O
  O71      1.0000 0.75470  0.02750  0.89370  Biso   1.000  O
  O72      1.0000 0.25470  0.47250  0.10630  Biso   1.000  O
  O73      1.0000 0.39370  0.74530  0.97250  Biso   1.000  O
  O74      1.0000 0.60630  0.24530  0.52750  Biso   1.000  O
  O75      1.0000 0.89370  0.75470  0.02750  Biso   1.000  O
  O76      1.0000 0.10630  0.25470  0.47250  Biso   1.000  O
  O77      1.0000 0.87340  0.37190  0.65520  Biso   1.000  O
  O78      1.0000 0.62660  0.62810  0.15520  Biso   1.000  O
  O79      1.0000 0.12660  0.87190  0.84480  Biso   1.000  O
  O80      1.0000 0.37340  0.12810  0.34480  Biso   1.000  O
  O81      1.0000 0.65520  0.87340  0.37190  Biso   1.000  O
  O82      1.0000 0.15520  0.62660  0.62810  Biso   1.000  O
  O83      1.0000 0.84480  0.12660  0.87190  Biso   1.000  O
  O84      1.0000 0.34480  0.37340  0.12810  Biso   1.000  O
  O85      1.0000 0.37190  0.65520  0.87340  Biso   1.000  O
  O86      1.0000 0.62810  0.15520  0.62660  Biso   1.000  O
  O87      1.0000 0.87190  0.84480  0.12660  Biso   1.000  O
  O88      1.0000 0.12810  0.34480  0.37340  Biso   1.000  O
  O89      1.0000 0.79940  0.34900  0.78530  Biso   1.000  O
  O90      1.0000 0.70060  0.65100  0.28530  Biso   1.000  O
  O91      1.0000 0.20060  0.84900  0.71470  Biso   1.000  O
  O92      1.0000 0.29940  0.15100  0.21470  Biso   1.000  O
  O93      1.0000 0.78530  0.79940  0.34900  Biso   1.000  O
  O94      1.0000 0.28530  0.70060  0.65100  Biso   1.000  O
  O95      1.0000 0.71470  0.20060  0.84900  Biso   1.000  O
  O96      1.0000 0.21470  0.29940  0.15100  Biso   1.000  O
  O97      1.0000 0.34900  0.78530  0.79940  Biso   1.000  O
  O98      1.0000 0.65100  0.28530  0.70060  Biso   1.000  O
  O99      1.0000 0.84900  0.71470  0.20060  Biso   1.000  O
  O100     1.0000 0.15100  0.21470  0.29940  Biso   1.000  O
  O101     1.0000 0.84720  0.25950  0.63620  Biso   1.000  O
  O102     1.0000 0.65280  0.74050  0.13620  Biso   1.000  O
  O103     1.0000 0.15280  0.75950  0.86380  Biso   1.000  O
  O104     1.0000 0.34720  0.24050  0.36380  Biso   1.000  O
  O105     1.0000 0.63620  0.84720  0.25950  Biso   1.000  O
  O106     1.0000 0.13620  0.65280  0.74050  Biso   1.000  O
  O107     1.0000 0.86380  0.15280  0.75950  Biso   1.000  O
  O108     1.0000 0.36380  0.34720  0.24050  Biso   1.000  O
  O109     1.0000 0.25950  0.63620  0.84720  Biso   1.000  O
  O110     1.0000 0.74050  0.13620  0.65280  Biso   1.000  O
  O111     1.0000 0.75950  0.86380  0.15280  Biso   1.000  O
  O112     1.0000 0.24050  0.36380  0.34720  Biso   1.000  O
  O113     1.0000 0.82280  0.34450  0.86680  Biso   1.000  O
  O114     1.0000 0.67720  0.65550  0.36680  Biso   1.000  O
  O115     1.0000 0.17720  0.84450  0.63320  Biso   1.000  O
  O116     1.0000 0.32280  0.15550  0.13320  Biso   1.000  O
  O117     1.0000 0.86680  0.82280  0.34450  Biso   1.000  O
  O118     1.0000 0.36680  0.67720  0.65550  Biso   1.000  O
  O119     1.0000 0.63320  0.17720  0.84450  Biso   1.000  O
  O120     1.0000 0.13320  0.32280  0.15550  Biso   1.000  O
  O121     1.0000 0.34450  0.86680  0.82280  Biso   1.000  O
  O122     1.0000 0.65550  0.36680  0.67720  Biso   1.000  O
  O123     1.0000 0.84450  0.63320  0.17720  Biso   1.000  O
  O124     1.0000 0.15550  0.13320  0.32280  Biso   1.000  O
  O125     1.0000 0.83870  0.26030  0.72200  Biso   1.000  O
  O126     1.0000 0.66130  0.73970  0.22200  Biso   1.000  O
  O127     1.0000 0.16130  0.76030  0.77800  Biso   1.000  O
  O128     1.0000 0.33870  0.23970  0.27800  Biso   1.000  O
  O129     1.0000 0.72200  0.83870  0.26030  Biso   1.000  O
  O130     1.0000 0.22200  0.66130  0.73970  Biso   1.000  O
  O131     1.0000 0.77800  0.16130  0.76030  Biso   1.000  O
  O132     1.0000 0.27800  0.33870  0.23970  Biso   1.000  O
  O133     1.0000 0.26030  0.72200  0.83870  Biso   1.000  O
  O134     1.0000 0.73970  0.22200  0.66130  Biso   1.000  O
  O135     1.0000 0.76030  0.77800  0.16130  Biso   1.000  O
  O136     1.0000 0.23970  0.27800  0.33870  Biso   1.000  O
  O137     1.0000 0.07030  0.37040  0.84530  Biso   1.000  O
  O138     1.0000 0.42970  0.62960  0.34530  Biso   1.000  O
  O139     1.0000 0.92970  0.87040  0.65470  Biso   1.000  O
  O140     1.0000 0.57030  0.12960  0.15470  Biso   1.000  O
  O141     1.0000 0.84530  0.07030  0.37040  Biso   1.000  O
  O142     1.0000 0.34530  0.42970  0.62960  Biso   1.000  O
  O143     1.0000 0.65470  0.92970  0.87040  Biso   1.000  O
  O144     1.0000 0.15470  0.57030  0.12960  Biso   1.000  O
  O145     1.0000 0.37040  0.84530  0.07030  Biso   1.000  O
  O146     1.0000 0.62960  0.34530  0.42970  Biso   1.000  O
  O147     1.0000 0.87040  0.65470  0.92970  Biso   1.000  O
  O148     1.0000 0.12960  0.15470  0.57030  Biso   1.000  O
  O149     1.0000 0.04890  0.39220  0.92340  Biso   1.000  O
  O150     1.0000 0.45110  0.60780  0.42340  Biso   1.000  O
  O151     1.0000 0.95110  0.89220  0.57660  Biso   1.000  O
  O152     1.0000 0.54890  0.10780  0.07660  Biso   1.000  O
  O153     1.0000 0.92340  0.04890  0.39220  Biso   1.000  O
  O154     1.0000 0.42340  0.45110  0.60780  Biso   1.000  O
  O155     1.0000 0.57660  0.95110  0.89220  Biso   1.000  O
  O156     1.0000 0.07660  0.54890  0.10780  Biso   1.000  O
  O157     1.0000 0.39220  0.92340  0.04890  Biso   1.000  O
  O158     1.0000 0.60780  0.42340  0.45110  Biso   1.000  O
  O159     1.0000 0.89220  0.57660  0.95110  Biso   1.000  O
  O160     1.0000 0.10780  0.07660  0.54890  Biso   1.000  O
  O161     1.0000 0.03670  0.33060  0.54260  Biso   1.000  O
  O162     1.0000 0.46330  0.66940  0.04260  Biso   1.000  O
  O163     1.0000 0.96330  0.83060  0.95740  Biso   1.000  O
  O164     1.0000 0.53670  0.16940  0.45740  Biso   1.000  O
  O165     1.0000 0.54260  0.03670  0.33060  Biso   1.000  O
  O166     1.0000 0.04260  0.46330  0.66940  Biso   1.000  O
  O167     1.0000 0.95740  0.96330  0.83060  Biso   1.000  O
  O168     1.0000 0.45740  0.53670  0.16940  Biso   1.000  O
  O169     1.0000 0.33060  0.54260  0.03670  Biso   1.000  O
  O170     1.0000 0.66940  0.04260  0.46330  Biso   1.000  O
  O171     1.0000 0.83060  0.95740  0.96330  Biso   1.000  O
  O172     1.0000 0.16940  0.45740  0.53670  Biso   1.000  O
  O173     1.0000 0.92800  0.25420  0.84020  Biso   1.000  O
  O174     1.0000 0.57200  0.74580  0.34020  Biso   1.000  O
  O175     1.0000 0.07200  0.75420  0.65980  Biso   1.000  O
  O176     1.0000 0.42800  0.24580  0.15980  Biso   1.000  O
  O177     1.0000 0.84020  0.92800  0.25420  Biso   1.000  O
  O178     1.0000 0.34020  0.57200  0.74580  Biso   1.000  O
  O179     1.0000 0.65980  0.07200  0.75420  Biso   1.000  O
  O180     1.0000 0.15980  0.42800  0.24580  Biso   1.000  O
  O181     1.0000 0.25420  0.84020  0.92800  Biso   1.000  O
  O182     1.0000 0.74580  0.34020  0.57200  Biso   1.000  O
  O183     1.0000 0.75420  0.65980  0.07200  Biso   1.000  O
  O184     1.0000 0.24580  0.15980  0.42800  Biso   1.000  O
  O185     1.0000 0.00990  0.28390  0.73570  Biso   1.000  O
  O186     1.0000 0.49010  0.71610  0.23570  Biso   1.000  O
  O187     1.0000 0.99010  0.78390  0.76430  Biso   1.000  O
  O188     1.0000 0.50990  0.21610  0.26430  Biso   1.000  O
  O189     1.0000 0.73570  0.00990  0.28390  Biso   1.000  O
  O190     1.0000 0.23570  0.49010  0.71610  Biso   1.000  O
  O191     1.0000 0.76430  0.99010  0.78390  Biso   1.000  O
  O192     1.0000 0.26430  0.50990  0.21610  Biso   1.000  O
  O193     1.0000 0.28390  0.73570  0.00990  Biso   1.000  O
  O194     1.0000 0.71610  0.23570  0.49010  Biso   1.000  O
  O195     1.0000 0.78390  0.76430  0.99010  Biso   1.000  O
  O196     1.0000 0.21610  0.26430  0.50990  Biso   1.000  O
  O197     1.0000 0.05310  0.35120  0.62410  Biso   1.000  O
  O198     1.0000 0.44690  0.64880  0.12410  Biso   1.000  O
  O199     1.0000 0.94690  0.85120  0.87590  Biso   1.000  O
  O200     1.0000 0.55310  0.14880  0.37590  Biso   1.000  O
  O201     1.0000 0.62410  0.05310  0.35120  Biso   1.000  O
  O202     1.0000 0.12410  0.44690  0.64880  Biso   1.000  O
  O203     1.0000 0.87590  0.94690  0.85120  Biso   1.000  O
  O204     1.0000 0.37590  0.55310  0.14880  Biso   1.000  O
  O205     1.0000 0.35120  0.62410  0.05310  Biso   1.000  O
  O206     1.0000 0.64880  0.12410  0.44690  Biso   1.000  O
  O207     1.0000 0.85120  0.87590  0.94690  Biso   1.000  O
  O208     1.0000 0.14880  0.37590  0.55310  Biso   1.000  O
  C1       1.0000 0.92680  0.38660  0.72890  Biso   1.000  C
  C2       1.0000 0.57320  0.61340  0.22890  Biso   1.000  C
  C3       1.0000 0.07320  0.88660  0.77110  Biso   1.000  C
  C4       1.0000 0.42680  0.11340  0.27110  Biso   1.000  C
  C5       1.0000 0.72890  0.92680  0.38660  Biso   1.000  C
  C6       1.0000 0.22890  0.57320  0.61340  Biso   1.000  C
  C7       1.0000 0.77110  0.07320  0.88660  Biso   1.000  C
  C8       1.0000 0.27110  0.42680  0.11340  Biso   1.000  C
  C9       1.0000 0.38660  0.72890  0.92680  Biso   1.000  C
  C10      1.0000 0.61340  0.22890  0.57320  Biso   1.000  C
  C11      1.0000 0.88660  0.77110  0.07320  Biso   1.000  C
  C12      1.0000 0.11340  0.27110  0.42680  Biso   1.000  C
  C13      1.0000 0.91930  0.37810  0.67100  Biso   1.000  C
  C14      1.0000 0.58070  0.62190  0.17100  Biso   1.000  C
  C15      1.0000 0.08070  0.87810  0.82900  Biso   1.000  C
  C16      1.0000 0.41930  0.12190  0.32900  Biso   1.000  C
  C17      1.0000 0.67100  0.91930  0.37810  Biso   1.000  C
  C18      1.0000 0.17100  0.58070  0.62190  Biso   1.000  C
  C19      1.0000 0.82900  0.08070  0.87810  Biso   1.000  C
  C20      1.0000 0.32900  0.41930  0.12190  Biso   1.000  C
  C21      1.0000 0.37810  0.67100  0.91930  Biso   1.000  C
  C22      1.0000 0.62190  0.17100  0.58070  Biso   1.000  C
  C23      1.0000 0.87810  0.82900  0.08070  Biso   1.000  C
  C24      1.0000 0.12190  0.32900  0.41930  Biso   1.000  C
  C25      1.0000 0.96790  0.36710  0.59110  Biso   1.000  C
  C26      1.0000 0.53210  0.63290  0.09110  Biso   1.000  C
  C27      1.0000 0.03210  0.86710  0.90890  Biso   1.000  C
  C28      1.0000 0.46790  0.13290  0.40890  Biso   1.000  C
  C29      1.0000 0.59110  0.96790  0.36710  Biso   1.000  C
  C30      1.0000 0.09110  0.53210  0.63290  Biso   1.000  C
  C31      1.0000 0.90890  0.03210  0.86710  Biso   1.000  C
  C32      1.0000 0.40890  0.46790  0.13290  Biso   1.000  C
  C33      1.0000 0.36710  0.59110  0.96790  Biso   1.000  C
  C34      1.0000 0.63290  0.09110  0.53210  Biso   1.000  C
  C35      1.0000 0.86710  0.90890  0.03210  Biso   1.000  C
  C36      1.0000 0.13290  0.40890  0.46790  Biso   1.000  C
  H1       1.0000 0.94390  0.33920  0.58050  Biso   1.000  H
  H2       1.0000 0.55610  0.66080  0.08050  Biso   1.000  H
  H3       1.0000 0.05610  0.83920  0.91950  Biso   1.000  H
  H4       1.0000 0.44390  0.16080  0.41950  Biso   1.000  H
  H5       1.0000 0.58050  0.94390  0.33920  Biso   1.000  H
  H6       1.0000 0.08050  0.55610  0.66080  Biso   1.000  H
  H7       1.0000 0.91950  0.05610  0.83920  Biso   1.000  H
  H8       1.0000 0.41950  0.44390  0.16080  Biso   1.000  H
  H9       1.0000 0.33920  0.58050  0.94390  Biso   1.000  H
  H10      1.0000 0.66080  0.08050  0.55610  Biso   1.000  H
  H11      1.0000 0.83920  0.91950  0.05610  Biso   1.000  H
  H12      1.0000 0.16080  0.41950  0.44390  Biso   1.000  H
  C37      1.0000 0.95920  0.41500  0.55910  Biso   1.000  C
  C38      1.0000 0.54080  0.58500  0.05910  Biso   1.000  C
  C39      1.0000 0.04080  0.91500  0.94090  Biso   1.000  C
  C40      1.0000 0.45920  0.08500  0.44090  Biso   1.000  C
  C41      1.0000 0.55910  0.95920  0.41500  Biso   1.000  C
  C42      1.0000 0.05910  0.54080  0.58500  Biso   1.000  C
  C43      1.0000 0.94090  0.04080  0.91500  Biso   1.000  C
  C44      1.0000 0.44090  0.45920  0.08500  Biso   1.000  C
  C45      1.0000 0.41500  0.55910  0.95920  Biso   1.000  C
  C46      1.0000 0.58500  0.05910  0.54080  Biso   1.000  C
  C47      1.0000 0.91500  0.94090  0.04080  Biso   1.000  C
  C48      1.0000 0.08500  0.44090  0.45920  Biso   1.000  C
  H13      1.0000 0.96640  0.40590  0.52300  Biso   1.000  H
  H14      1.0000 0.53360  0.59410  0.02300  Biso   1.000  H
  H15      1.0000 0.03360  0.90590  0.97700  Biso   1.000  H
  H16      1.0000 0.46640  0.09410  0.47700  Biso   1.000  H
  H17      1.0000 0.52300  0.96640  0.40590  Biso   1.000  H
  H18      1.0000 0.02300  0.53360  0.59410  Biso   1.000  H
  H19      1.0000 0.97700  0.03360  0.90590  Biso   1.000  H
  H20      1.0000 0.47700  0.46640  0.09410  Biso   1.000  H
  H21      1.0000 0.40590  0.52300  0.96640  Biso   1.000  H
  H22      1.0000 0.59410  0.02300  0.53360  Biso   1.000  H
  H23      1.0000 0.90590  0.97700  0.03360  Biso   1.000  H
  H24      1.0000 0.09410  0.47700  0.46640  Biso   1.000  H
  H25      1.0000 0.98550  0.44030  0.56940  Biso   1.000  H
  H26      1.0000 0.51450  0.55970  0.06940  Biso   1.000  H
  H27      1.0000 0.01450  0.94030  0.93060  Biso   1.000  H
  H28      1.0000 0.48550  0.05970  0.43060  Biso   1.000  H
  H29      1.0000 0.56940  0.98550  0.44030  Biso   1.000  H
  H30      1.0000 0.06940  0.51450  0.55970  Biso   1.000  H
  H31      1.0000 0.93060  0.01450  0.94030  Biso   1.000  H
  H32      1.0000 0.43060  0.48550  0.05970  Biso   1.000  H
  H33      1.0000 0.44030  0.56940  0.98550  Biso   1.000  H
  H34      1.0000 0.55970  0.06940  0.51450  Biso   1.000  H
  H35      1.0000 0.94030  0.93060  0.01450  Biso   1.000  H
  H36      1.0000 0.05970  0.43060  0.48550  Biso   1.000  H
  C49      1.0000 0.86820  0.40390  0.53590  Biso   1.000  C
  C50      1.0000 0.63180  0.59610  0.03590  Biso   1.000  C
  C51      1.0000 0.13180  0.90390  0.96410  Biso   1.000  C
  C52      1.0000 0.36820  0.09610  0.46410  Biso   1.000  C
  C53      1.0000 0.53590  0.86820  0.40390  Biso   1.000  C
  C54      1.0000 0.03590  0.63180  0.59610  Biso   1.000  C
  C55      1.0000 0.96410  0.13180  0.90390  Biso   1.000  C
  C56      1.0000 0.46410  0.36820  0.09610  Biso   1.000  C
  C57      1.0000 0.40390  0.53590  0.86820  Biso   1.000  C
  C58      1.0000 0.59610  0.03590  0.63180  Biso   1.000  C
  C59      1.0000 0.90390  0.96410  0.13180  Biso   1.000  C
  C60      1.0000 0.09610  0.46410  0.36820  Biso   1.000  C
  H37      1.0000 0.85490  0.38110  0.56250  Biso   1.000  H
  H38      1.0000 0.64510  0.61890  0.06250  Biso   1.000  H
  H39      1.0000 0.14510  0.88110  0.93750  Biso   1.000  H
  H40      1.0000 0.35490  0.11890  0.43750  Biso   1.000  H
  H41      1.0000 0.56250  0.85490  0.38110  Biso   1.000  H
  H42      1.0000 0.06250  0.64510  0.61890  Biso   1.000  H
  H43      1.0000 0.93750  0.14510  0.88110  Biso   1.000  H
  H44      1.0000 0.43750  0.35490  0.11890  Biso   1.000  H
  H45      1.0000 0.38110  0.56250  0.85490  Biso   1.000  H
  H46      1.0000 0.61890  0.06250  0.64510  Biso   1.000  H
  H47      1.0000 0.88110  0.93750  0.14510  Biso   1.000  H
  H48      1.0000 0.11890  0.43750  0.35490  Biso   1.000  H
  H49      1.0000 0.88540  0.38360  0.50950  Biso   1.000  H
  H50      1.0000 0.61460  0.61640  0.00950  Biso   1.000  H
  H51      1.0000 0.11460  0.88360  0.99050  Biso   1.000  H
  H52      1.0000 0.38540  0.11640  0.49050  Biso   1.000  H
  H53      1.0000 0.50950  0.88540  0.38360  Biso   1.000  H
  H54      1.0000 0.00950  0.61460  0.61640  Biso   1.000  H
  H55      1.0000 0.99050  0.11460  0.88360  Biso   1.000  H
  H56      1.0000 0.49050  0.38540  0.11640  Biso   1.000  H
  H57      1.0000 0.38360  0.50950  0.88540  Biso   1.000  H
  H58      1.0000 0.61640  0.00950  0.61460  Biso   1.000  H
  H59      1.0000 0.88360  0.99050  0.11460  Biso   1.000  H
  H60      1.0000 0.11640  0.49050  0.38540  Biso   1.000  H
  H61      1.0000 0.83980  0.42300  0.52050  Biso   1.000  H
  H62      1.0000 0.66020  0.57700  0.02050  Biso   1.000  H
  H63      1.0000 0.16020  0.92300  0.97950  Biso   1.000  H
  H64      1.0000 0.33980  0.07700  0.47950  Biso   1.000  H
  H65      1.0000 0.52050  0.83980  0.42300  Biso   1.000  H
  H66      1.0000 0.02050  0.66020  0.57700  Biso   1.000  H
  H67      1.0000 0.97950  0.16020  0.92300  Biso   1.000  H
  H68      1.0000 0.47950  0.33980  0.07700  Biso   1.000  H
  H69      1.0000 0.42300  0.52050  0.83980  Biso   1.000  H
  H70      1.0000 0.57700  0.02050  0.66020  Biso   1.000  H
  H71      1.0000 0.92300  0.97950  0.16020  Biso   1.000  H
  H72      1.0000 0.07700  0.47950  0.33980  Biso   1.000  H
  C61      1.0000 0.90850  0.49670  0.53120  Biso   1.000  C
  C62      1.0000 0.59150  0.50330  0.03120  Biso   1.000  C
  C63      1.0000 0.09150  0.99670  0.96880  Biso   1.000  C
  C64      1.0000 0.40850  0.00330  0.46880  Biso   1.000  C
  C65      1.0000 0.53120  0.90850  0.49670  Biso   1.000  C
  C66      1.0000 0.03120  0.59150  0.50330  Biso   1.000  C
  C67      1.0000 0.96880  0.09150  0.99670  Biso   1.000  C
  C68      1.0000 0.46880  0.40850  0.00330  Biso   1.000  C
  C69      1.0000 0.49670  0.53120  0.90850  Biso   1.000  C
  C70      1.0000 0.50330  0.03120  0.59150  Biso   1.000  C
  C71      1.0000 0.99670  0.96880  0.09150  Biso   1.000  C
  C72      1.0000 0.00330  0.46880  0.40850  Biso   1.000  C
  H73      1.0000 0.93350  0.51920  0.54790  Biso   1.000  H
  H74      1.0000 0.56650  0.48080  0.04790  Biso   1.000  H
  H75      1.0000 0.06650  0.01920  0.95210  Biso   1.000  H
  H76      1.0000 0.43350  0.98080  0.45210  Biso   1.000  H
  H77      1.0000 0.54790  0.93350  0.51920  Biso   1.000  H
  H78      1.0000 0.04790  0.56650  0.48080  Biso   1.000  H
  H79      1.0000 0.95210  0.06650  0.01920  Biso   1.000  H
  H80      1.0000 0.45210  0.43350  0.98080  Biso   1.000  H
  H81      1.0000 0.51920  0.54790  0.93350  Biso   1.000  H
  H82      1.0000 0.48080  0.04790  0.56650  Biso   1.000  H
  H83      1.0000 0.01920  0.95210  0.06650  Biso   1.000  H
  H84      1.0000 0.98080  0.45210  0.43350  Biso   1.000  H
  H85      1.0000 0.87450  0.51250  0.53280  Biso   1.000  H
  H86      1.0000 0.62550  0.48750  0.03280  Biso   1.000  H
  H87      1.0000 0.12550  0.01250  0.96720  Biso   1.000  H
  H88      1.0000 0.37450  0.98750  0.46720  Biso   1.000  H
  H89      1.0000 0.53280  0.87450  0.51250  Biso   1.000  H
  H90      1.0000 0.03280  0.62550  0.48750  Biso   1.000  H
  H91      1.0000 0.96720  0.12550  0.01250  Biso   1.000  H
  H92      1.0000 0.46720  0.37450  0.98750  Biso   1.000  H
  H93      1.0000 0.51250  0.53280  0.87450  Biso   1.000  H
  H94      1.0000 0.48750  0.03280  0.62550  Biso   1.000  H
  H95      1.0000 0.01250  0.96720  0.12550  Biso   1.000  H
  H96      1.0000 0.98750  0.46720  0.37450  Biso   1.000  H
  H97      1.0000 0.91830  0.49150  0.49530  Biso   1.000  H
  H98      1.0000 0.58170  0.50850  0.99530  Biso   1.000  H
  H99      1.0000 0.08170  0.99150  0.00470  Biso   1.000  H
  H100     1.0000 0.41830  0.00850  0.50470  Biso   1.000  H
  H101     1.0000 0.49530  0.91830  0.49150  Biso   1.000  H
  H102     1.0000 0.99530  0.58170  0.50850  Biso   1.000  H
  H103     1.0000 0.00470  0.08170  0.99150  Biso   1.000  H
  H104     1.0000 0.50470  0.41830  0.00850  Biso   1.000  H
  H105     1.0000 0.49150  0.49530  0.91830  Biso   1.000  H
  H106     1.0000 0.50850  0.99530  0.58170  Biso   1.000  H
  H107     1.0000 0.99150  0.00470  0.08170  Biso   1.000  H
  H108     1.0000 0.00850  0.50470  0.41830  Biso   1.000  H
  C73      1.0000 0.90730  0.44230  0.56020  Biso   1.000  C
  C74      1.0000 0.59270  0.55770  0.06020  Biso   1.000  C
  C75      1.0000 0.09270  0.94230  0.93980  Biso   1.000  C
  C76      1.0000 0.40730  0.05770  0.43980  Biso   1.000  C
  C77      1.0000 0.56020  0.90730  0.44230  Biso   1.000  C
  C78      1.0000 0.06020  0.59270  0.55770  Biso   1.000  C
  C79      1.0000 0.93980  0.09270  0.94230  Biso   1.000  C
  C80      1.0000 0.43980  0.40730  0.05770  Biso   1.000  C
  C81      1.0000 0.44230  0.56020  0.90730  Biso   1.000  C
  C82      1.0000 0.55770  0.06020  0.59270  Biso   1.000  C
  C83      1.0000 0.94230  0.93980  0.09270  Biso   1.000  C
  C84      1.0000 0.05770  0.43980  0.40730  Biso   1.000  C
  H109     1.0000 0.89740  0.44820  0.59670  Biso   1.000  H
  H110     1.0000 0.60260  0.55180  0.09670  Biso   1.000  H
  H111     1.0000 0.10260  0.94820  0.90330  Biso   1.000  H
  H112     1.0000 0.39740  0.05180  0.40330  Biso   1.000  H
  H113     1.0000 0.59670  0.89740  0.44820  Biso   1.000  H
  H114     1.0000 0.09670  0.60260  0.55180  Biso   1.000  H
  H115     1.0000 0.90330  0.10260  0.94820  Biso   1.000  H
  H116     1.0000 0.40330  0.39740  0.05180  Biso   1.000  H
  H117     1.0000 0.44820  0.59670  0.89740  Biso   1.000  H
  H118     1.0000 0.55180  0.09670  0.60260  Biso   1.000  H
  H119     1.0000 0.94820  0.90330  0.10260  Biso   1.000  H
  H120     1.0000 0.05180  0.40330  0.39740  Biso   1.000  H
  C85      1.0000 0.88020  0.38750  0.80830  Biso   1.000  C
  C86      1.0000 0.61980  0.61250  0.30830  Biso   1.000  C
  C87      1.0000 0.11980  0.88750  0.69170  Biso   1.000  C
  C88      1.0000 0.38020  0.11250  0.19170  Biso   1.000  C
  C89      1.0000 0.80830  0.88020  0.38750  Biso   1.000  C
  C90      1.0000 0.30830  0.61980  0.61250  Biso   1.000  C
  C91      1.0000 0.69170  0.11980  0.88750  Biso   1.000  C
  C92      1.0000 0.19170  0.38020  0.11250  Biso   1.000  C
  C93      1.0000 0.38750  0.80830  0.88020  Biso   1.000  C
  C94      1.0000 0.61250  0.30830  0.61980  Biso   1.000  C
  C95      1.0000 0.88750  0.69170  0.11980  Biso   1.000  C
  C96      1.0000 0.11250  0.19170  0.38020  Biso   1.000  C
  H121     1.0000 0.91100  0.37260  0.82560  Biso   1.000  H
  H122     1.0000 0.58900  0.62740  0.32560  Biso   1.000  H
  H123     1.0000 0.08900  0.87260  0.67440  Biso   1.000  H
  H124     1.0000 0.41100  0.12740  0.17440  Biso   1.000  H
  H125     1.0000 0.82560  0.91100  0.37260  Biso   1.000  H
  H126     1.0000 0.32560  0.58900  0.62740  Biso   1.000  H
  H127     1.0000 0.67440  0.08900  0.87260  Biso   1.000  H
  H128     1.0000 0.17440  0.41100  0.12740  Biso   1.000  H
  H129     1.0000 0.37260  0.82560  0.91100  Biso   1.000  H
  H130     1.0000 0.62740  0.32560  0.58900  Biso   1.000  H
  H131     1.0000 0.87260  0.67440  0.08900  Biso   1.000  H
  H132     1.0000 0.12740  0.17440  0.41100  Biso   1.000  H
  C97      1.0000 0.86960  0.44350  0.82800  Biso   1.000  C
  C98      1.0000 0.63040  0.55650  0.32800  Biso   1.000  C
  C99      1.0000 0.13040  0.94350  0.67200  Biso   1.000  C
  C100     1.0000 0.36960  0.05650  0.17200  Biso   1.000  C
  C101     1.0000 0.82800  0.86960  0.44350  Biso   1.000  C
  C102     1.0000 0.32800  0.63040  0.55650  Biso   1.000  C
  C103     1.0000 0.67200  0.13040  0.94350  Biso   1.000  C
  C104     1.0000 0.17200  0.36960  0.05650  Biso   1.000  C
  C105     1.0000 0.44350  0.82800  0.86960  Biso   1.000  C
  C106     1.0000 0.55650  0.32800  0.63040  Biso   1.000  C
  C107     1.0000 0.94350  0.67200  0.13040  Biso   1.000  C
  C108     1.0000 0.05650  0.17200  0.36960  Biso   1.000  C
  H133     1.0000 0.83850  0.45680  0.81070  Biso   1.000  H
  H134     1.0000 0.66150  0.54320  0.31070  Biso   1.000  H
  H135     1.0000 0.16150  0.95680  0.68930  Biso   1.000  H
  H136     1.0000 0.33850  0.04320  0.18930  Biso   1.000  H
  H137     1.0000 0.81070  0.83850  0.45680  Biso   1.000  H
  H138     1.0000 0.31070  0.66150  0.54320  Biso   1.000  H
  H139     1.0000 0.68930  0.16150  0.95680  Biso   1.000  H
  H140     1.0000 0.18930  0.33850  0.04320  Biso   1.000  H
  H141     1.0000 0.45680  0.81070  0.83850  Biso   1.000  H
  H142     1.0000 0.54320  0.31070  0.66150  Biso   1.000  H
  H143     1.0000 0.95680  0.68930  0.16150  Biso   1.000  H
  H144     1.0000 0.04320  0.18930  0.33850  Biso   1.000  H
  H145     1.0000 0.86240  0.44220  0.86520  Biso   1.000  H
  H146     1.0000 0.63760  0.55780  0.36520  Biso   1.000  H
  H147     1.0000 0.13760  0.94220  0.63480  Biso   1.000  H
  H148     1.0000 0.36240  0.05780  0.13480  Biso   1.000  H
  H149     1.0000 0.86520  0.86240  0.44220  Biso   1.000  H
  H150     1.0000 0.36520  0.63760  0.55780  Biso   1.000  H
  H151     1.0000 0.63480  0.13760  0.94220  Biso   1.000  H
  H152     1.0000 0.13480  0.36240  0.05780  Biso   1.000  H
  H153     1.0000 0.44220  0.86520  0.86240  Biso   1.000  H
  H154     1.0000 0.55780  0.36520  0.63760  Biso   1.000  H
  H155     1.0000 0.94220  0.63480  0.13760  Biso   1.000  H
  H156     1.0000 0.05780  0.13480  0.36240  Biso   1.000  H
  C109     1.0000 0.91450  0.48130  0.81850  Biso   1.000  C
  C110     1.0000 0.58550  0.51870  0.31850  Biso   1.000  C
  C111     1.0000 0.08550  0.98130  0.68150  Biso   1.000  C
  C112     1.0000 0.41450  0.01870  0.18150  Biso   1.000  C
  C113     1.0000 0.81850  0.91450  0.48130  Biso   1.000  C
  C114     1.0000 0.31850  0.58550  0.51870  Biso   1.000  C
  C115     1.0000 0.68150  0.08550  0.98130  Biso   1.000  C
  C116     1.0000 0.18150  0.41450  0.01870  Biso   1.000  C
  C117     1.0000 0.48130  0.81850  0.91450  Biso   1.000  C
  C118     1.0000 0.51870  0.31850  0.58550  Biso   1.000  C
  C119     1.0000 0.98130  0.68150  0.08550  Biso   1.000  C
  C120     1.0000 0.01870  0.18150  0.41450  Biso   1.000  C
  H157     1.0000 0.92440  0.47800  0.78160  Biso   1.000  H
  H158     1.0000 0.57560  0.52200  0.28160  Biso   1.000  H
  H159     1.0000 0.07560  0.97800  0.71840  Biso   1.000  H
  H160     1.0000 0.42440  0.02200  0.21840  Biso   1.000  H
  H161     1.0000 0.78160  0.92440  0.47800  Biso   1.000  H
  H162     1.0000 0.28160  0.57560  0.52200  Biso   1.000  H
  H163     1.0000 0.71840  0.07560  0.97800  Biso   1.000  H
  H164     1.0000 0.21840  0.42440  0.02200  Biso   1.000  H
  H165     1.0000 0.47800  0.78160  0.92440  Biso   1.000  H
  H166     1.0000 0.52200  0.28160  0.57560  Biso   1.000  H
  H167     1.0000 0.97800  0.71840  0.07560  Biso   1.000  H
  H168     1.0000 0.02200  0.21840  0.42440  Biso   1.000  H
  C121     1.0000 0.89690  0.53560  0.82650  Biso   1.000  C
  C122     1.0000 0.60310  0.46440  0.32650  Biso   1.000  C
  C123     1.0000 0.10310  0.03560  0.67350  Biso   1.000  C
  C124     1.0000 0.39690  0.96440  0.17350  Biso   1.000  C
  C125     1.0000 0.82650  0.89690  0.53560  Biso   1.000  C
  C126     1.0000 0.32650  0.60310  0.46440  Biso   1.000  C
  C127     1.0000 0.67350  0.10310  0.03560  Biso   1.000  C
  C128     1.0000 0.17350  0.39690  0.96440  Biso   1.000  C
  C129     1.0000 0.53560  0.82650  0.89690  Biso   1.000  C
  C130     1.0000 0.46440  0.32650  0.60310  Biso   1.000  C
  C131     1.0000 0.03560  0.67350  0.10310  Biso   1.000  C
  C132     1.0000 0.96440  0.17350  0.39690  Biso   1.000  C
  H169     1.0000 0.92180  0.55920  0.81150  Biso   1.000  H
  H170     1.0000 0.57820  0.44080  0.31150  Biso   1.000  H
  H171     1.0000 0.07820  0.05920  0.68850  Biso   1.000  H
  H172     1.0000 0.42180  0.94080  0.18850  Biso   1.000  H
  H173     1.0000 0.81150  0.92180  0.55920  Biso   1.000  H
  H174     1.0000 0.31150  0.57820  0.44080  Biso   1.000  H
  H175     1.0000 0.68850  0.07820  0.05920  Biso   1.000  H
  H176     1.0000 0.18850  0.42180  0.94080  Biso   1.000  H
  H177     1.0000 0.55920  0.81150  0.92180  Biso   1.000  H
  H178     1.0000 0.44080  0.31150  0.57820  Biso   1.000  H
  H179     1.0000 0.05920  0.68850  0.07820  Biso   1.000  H
  H180     1.0000 0.94080  0.18850  0.42180  Biso   1.000  H
  H181     1.0000 0.89380  0.54240  0.86330  Biso   1.000  H
  H182     1.0000 0.60620  0.45760  0.36330  Biso   1.000  H
  H183     1.0000 0.10620  0.04240  0.63670  Biso   1.000  H
  H184     1.0000 0.39380  0.95760  0.13670  Biso   1.000  H
  H185     1.0000 0.86330  0.89380  0.54240  Biso   1.000  H
  H186     1.0000 0.36330  0.60620  0.45760  Biso   1.000  H
  H187     1.0000 0.63670  0.10620  0.04240  Biso   1.000  H
  H188     1.0000 0.13670  0.39380  0.95760  Biso   1.000  H
  H189     1.0000 0.54240  0.86330  0.89380  Biso   1.000  H
  H190     1.0000 0.45760  0.36330  0.60620  Biso   1.000  H
  H191     1.0000 0.04240  0.63670  0.10620  Biso   1.000  H
  H192     1.0000 0.95760  0.13670  0.39380  Biso   1.000  H
  H193     1.0000 0.86350  0.54050  0.81010  Biso   1.000  H
  H194     1.0000 0.63650  0.45950  0.31010  Biso   1.000  H
  H195     1.0000 0.13650  0.04050  0.68990  Biso   1.000  H
  H196     1.0000 0.36350  0.95950  0.18990  Biso   1.000  H
  H197     1.0000 0.81010  0.86350  0.54050  Biso   1.000  H
  H198     1.0000 0.31010  0.63650  0.45950  Biso   1.000  H
  H199     1.0000 0.68990  0.13650  0.04050  Biso   1.000  H
  H200     1.0000 0.18990  0.36350  0.95950  Biso   1.000  H
  H201     1.0000 0.54050  0.81010  0.86350  Biso   1.000  H
  H202     1.0000 0.45950  0.31010  0.63650  Biso   1.000  H
  H203     1.0000 0.04050  0.68990  0.13650  Biso   1.000  H
  H204     1.0000 0.95950  0.18990  0.36350  Biso   1.000  H
  C133     1.0000 0.95900  0.46940  0.84850  Biso   1.000  C
  C134     1.0000 0.54100  0.53060  0.34850  Biso   1.000  C
  C135     1.0000 0.04100  0.96940  0.65150  Biso   1.000  C
  C136     1.0000 0.45900  0.03060  0.15150  Biso   1.000  C
  C137     1.0000 0.84850  0.95900  0.46940  Biso   1.000  C
  C138     1.0000 0.34850  0.54100  0.53060  Biso   1.000  C
  C139     1.0000 0.65150  0.04100  0.96940  Biso   1.000  C
  C140     1.0000 0.15150  0.45900  0.03060  Biso   1.000  C
  C141     1.0000 0.46940  0.84850  0.95900  Biso   1.000  C
  C142     1.0000 0.53060  0.34850  0.54100  Biso   1.000  C
  C143     1.0000 0.96940  0.65150  0.04100  Biso   1.000  C
  C144     1.0000 0.03060  0.15150  0.45900  Biso   1.000  C
  H205     1.0000 0.95860  0.48970  0.88000  Biso   1.000  H
  H206     1.0000 0.54140  0.51030  0.38000  Biso   1.000  H
  H207     1.0000 0.04140  0.98970  0.62000  Biso   1.000  H
  H208     1.0000 0.45860  0.01030  0.12000  Biso   1.000  H
  H209     1.0000 0.88000  0.95860  0.48970  Biso   1.000  H
  H210     1.0000 0.38000  0.54140  0.51030  Biso   1.000  H
  H211     1.0000 0.62000  0.04140  0.98970  Biso   1.000  H
  H212     1.0000 0.12000  0.45860  0.01030  Biso   1.000  H
  H213     1.0000 0.48970  0.88000  0.95860  Biso   1.000  H
  H214     1.0000 0.51030  0.38000  0.54140  Biso   1.000  H
  H215     1.0000 0.98970  0.62000  0.04140  Biso   1.000  H
  H216     1.0000 0.01030  0.12000  0.45860  Biso   1.000  H
  H217     1.0000 0.98990  0.47750  0.82870  Biso   1.000  H
  H218     1.0000 0.51010  0.52250  0.32870  Biso   1.000  H
  H219     1.0000 0.01010  0.97750  0.67130  Biso   1.000  H
  H220     1.0000 0.48990  0.02250  0.17130  Biso   1.000  H
  H221     1.0000 0.82870  0.98990  0.47750  Biso   1.000  H
  H222     1.0000 0.32870  0.51010  0.52250  Biso   1.000  H
  H223     1.0000 0.67130  0.01010  0.97750  Biso   1.000  H
  H224     1.0000 0.17130  0.48990  0.02250  Biso   1.000  H
  H225     1.0000 0.47750  0.82870  0.98990  Biso   1.000  H
  H226     1.0000 0.52250  0.32870  0.51010  Biso   1.000  H
  H227     1.0000 0.97750  0.67130  0.01010  Biso   1.000  H
  H228     1.0000 0.02250  0.17130  0.48990  Biso   1.000  H
  H229     1.0000 0.95900  0.43290  0.85710  Biso   1.000  H
  H230     1.0000 0.54100  0.56710  0.35710  Biso   1.000  H
  H231     1.0000 0.04100  0.93290  0.64290  Biso   1.000  H
  H232     1.0000 0.45900  0.06710  0.14290  Biso   1.000  H
  H233     1.0000 0.85710  0.95900  0.43290  Biso   1.000  H
  H234     1.0000 0.35710  0.54100  0.56710  Biso   1.000  H
  H235     1.0000 0.64290  0.04100  0.93290  Biso   1.000  H
  H236     1.0000 0.14290  0.45900  0.06710  Biso   1.000  H
  H237     1.0000 0.43290  0.85710  0.95900  Biso   1.000  H
  H238     1.0000 0.56710  0.35710  0.54100  Biso   1.000  H
  H239     1.0000 0.93290  0.64290  0.04100  Biso   1.000  H
  H240     1.0000 0.06710  0.14290  0.45900  Biso   1.000  H
  C145     1.0000 0.83090  0.35720  0.82270  Biso   1.000  C
  C146     1.0000 0.66910  0.64280  0.32270  Biso   1.000  C
  C147     1.0000 0.16910  0.85720  0.67730  Biso   1.000  C
  C148     1.0000 0.33090  0.14280  0.17730  Biso   1.000  C
  C149     1.0000 0.82270  0.83090  0.35720  Biso   1.000  C
  C150     1.0000 0.32270  0.66910  0.64280  Biso   1.000  C
  C151     1.0000 0.67730  0.16910  0.85720  Biso   1.000  C
  C152     1.0000 0.17730  0.33090  0.14280  Biso   1.000  C
  C153     1.0000 0.35720  0.82270  0.83090  Biso   1.000  C
  C154     1.0000 0.64280  0.32270  0.66910  Biso   1.000  C
  C155     1.0000 0.85720  0.67730  0.16910  Biso   1.000  C
  C156     1.0000 0.14280  0.17730  0.33090  Biso   1.000  C
  C157     1.0000 0.86490  0.25490  0.68080  Biso   1.000  C
  C158     1.0000 0.63510  0.74510  0.18080  Biso   1.000  C
  C159     1.0000 0.13510  0.75490  0.81920  Biso   1.000  C
  C160     1.0000 0.36490  0.24510  0.31920  Biso   1.000  C
  C161     1.0000 0.68080  0.86490  0.25490  Biso   1.000  C
  C162     1.0000 0.18080  0.63510  0.74510  Biso   1.000  C
  C163     1.0000 0.81920  0.13510  0.75490  Biso   1.000  C
  C164     1.0000 0.31920  0.36490  0.24510  Biso   1.000  C
  C165     1.0000 0.25490  0.68080  0.86490  Biso   1.000  C
  C166     1.0000 0.74510  0.18080  0.63510  Biso   1.000  C
  C167     1.0000 0.75490  0.81920  0.13510  Biso   1.000  C
  C168     1.0000 0.24510  0.31920  0.36490  Biso   1.000  C
  C169     1.0000 0.97210  0.26320  0.76010  Biso   1.000  C
  C170     1.0000 0.52790  0.73680  0.26010  Biso   1.000  C
  C171     1.0000 0.02790  0.76320  0.73990  Biso   1.000  C
  C172     1.0000 0.47210  0.23680  0.23990  Biso   1.000  C
  C173     1.0000 0.76010  0.97210  0.26320  Biso   1.000  C
  C174     1.0000 0.26010  0.52790  0.73680  Biso   1.000  C
  C175     1.0000 0.73990  0.02790  0.76320  Biso   1.000  C
  C176     1.0000 0.23990  0.47210  0.23680  Biso   1.000  C
  C177     1.0000 0.26320  0.76010  0.97210  Biso   1.000  C
  C178     1.0000 0.73680  0.26010  0.52790  Biso   1.000  C
  C179     1.0000 0.76320  0.73990  0.02790  Biso   1.000  C
  C180     1.0000 0.23680  0.23990  0.47210  Biso   1.000  C
  C181     1.0000 0.92190  0.23960  0.68550  Biso   1.000  C
  C182     1.0000 0.57810  0.76040  0.18550  Biso   1.000  C
  C183     1.0000 0.07810  0.73960  0.81450  Biso   1.000  C
  C184     1.0000 0.42190  0.26040  0.31450  Biso   1.000  C
  C185     1.0000 0.68550  0.92190  0.23960  Biso   1.000  C
  C186     1.0000 0.18550  0.57810  0.76040  Biso   1.000  C
  C187     1.0000 0.81450  0.07810  0.73960  Biso   1.000  C
  C188     1.0000 0.31450  0.42190  0.26040  Biso   1.000  C
  C189     1.0000 0.23960  0.68550  0.92190  Biso   1.000  C
  C190     1.0000 0.76040  0.18550  0.57810  Biso   1.000  C
  C191     1.0000 0.73960  0.81450  0.07810  Biso   1.000  C
  C192     1.0000 0.26040  0.31450  0.42190  Biso   1.000  C
  H241     1.0000 0.94340  0.26640  0.66870  Biso   1.000  H
  H242     1.0000 0.55660  0.73360  0.16870  Biso   1.000  H
  H243     1.0000 0.05660  0.76640  0.83130  Biso   1.000  H
  H244     1.0000 0.44340  0.23360  0.33130  Biso   1.000  H
  H245     1.0000 0.66870  0.94340  0.26640  Biso   1.000  H
  H246     1.0000 0.16870  0.55660  0.73360  Biso   1.000  H
  H247     1.0000 0.83130  0.05660  0.76640  Biso   1.000  H
  H248     1.0000 0.33130  0.44340  0.23360  Biso   1.000  H
  H249     1.0000 0.26640  0.66870  0.94340  Biso   1.000  H
  H250     1.0000 0.73360  0.16870  0.55660  Biso   1.000  H
  H251     1.0000 0.76640  0.83130  0.05660  Biso   1.000  H
  H252     1.0000 0.23360  0.33130  0.44340  Biso   1.000  H
  C193     1.0000 0.93200  0.18840  0.65950  Biso   1.000  C
  C194     1.0000 0.56800  0.81160  0.15950  Biso   1.000  C
  C195     1.0000 0.06800  0.68840  0.84050  Biso   1.000  C
  C196     1.0000 0.43200  0.31160  0.34050  Biso   1.000  C
  C197     1.0000 0.65950  0.93200  0.18840  Biso   1.000  C
  C198     1.0000 0.15950  0.56800  0.81160  Biso   1.000  C
  C199     1.0000 0.84050  0.06800  0.68840  Biso   1.000  C
  C200     1.0000 0.34050  0.43200  0.31160  Biso   1.000  C
  C201     1.0000 0.18840  0.65950  0.93200  Biso   1.000  C
  C202     1.0000 0.81160  0.15950  0.56800  Biso   1.000  C
  C203     1.0000 0.68840  0.84050  0.06800  Biso   1.000  C
  C204     1.0000 0.31160  0.34050  0.43200  Biso   1.000  C
  H253     1.0000 0.91820  0.16090  0.68160  Biso   1.000  H
  H254     1.0000 0.58180  0.83910  0.18160  Biso   1.000  H
  H255     1.0000 0.08180  0.66090  0.81840  Biso   1.000  H
  H256     1.0000 0.41820  0.33910  0.31840  Biso   1.000  H
  H257     1.0000 0.68160  0.91820  0.16090  Biso   1.000  H
  H258     1.0000 0.18160  0.58180  0.83910  Biso   1.000  H
  H259     1.0000 0.81840  0.08180  0.66090  Biso   1.000  H
  H260     1.0000 0.31840  0.41820  0.33910  Biso   1.000  H
  H261     1.0000 0.16090  0.68160  0.91820  Biso   1.000  H
  H262     1.0000 0.83910  0.18160  0.58180  Biso   1.000  H
  H263     1.0000 0.66090  0.81840  0.08180  Biso   1.000  H
  H264     1.0000 0.33910  0.31840  0.41820  Biso   1.000  H
  H265     1.0000 0.91260  0.18750  0.62690  Biso   1.000  H
  H266     1.0000 0.58740  0.81250  0.12690  Biso   1.000  H
  H267     1.0000 0.08740  0.68750  0.87310  Biso   1.000  H
  H268     1.0000 0.41260  0.31250  0.37310  Biso   1.000  H
  H269     1.0000 0.62690  0.91260  0.18750  Biso   1.000  H
  H270     1.0000 0.12690  0.58740  0.81250  Biso   1.000  H
  H271     1.0000 0.87310  0.08740  0.68750  Biso   1.000  H
  H272     1.0000 0.37310  0.41260  0.31250  Biso   1.000  H
  H273     1.0000 0.18750  0.62690  0.91260  Biso   1.000  H
  H274     1.0000 0.81250  0.12690  0.58740  Biso   1.000  H
  H275     1.0000 0.68750  0.87310  0.08740  Biso   1.000  H
  H276     1.0000 0.31250  0.37310  0.41260  Biso   1.000  H
  C205     1.0000 0.98710  0.17610  0.64780  Biso   1.000  C
  C206     1.0000 0.51290  0.82390  0.14780  Biso   1.000  C
  C207     1.0000 0.01290  0.67610  0.85220  Biso   1.000  C
  C208     1.0000 0.48710  0.32390  0.35220  Biso   1.000  C
  C209     1.0000 0.64780  0.98710  0.17610  Biso   1.000  C
  C210     1.0000 0.14780  0.51290  0.82390  Biso   1.000  C
  C211     1.0000 0.85220  0.01290  0.67610  Biso   1.000  C
  C212     1.0000 0.35220  0.48710  0.32390  Biso   1.000  C
  C213     1.0000 0.17610  0.64780  0.98710  Biso   1.000  C
  C214     1.0000 0.82390  0.14780  0.51290  Biso   1.000  C
  C215     1.0000 0.67610  0.85220  0.01290  Biso   1.000  C
  C216     1.0000 0.32390  0.35220  0.48710  Biso   1.000  C
  H277     1.0000 0.00700  0.17900  0.68040  Biso   1.000  H
  H278     1.0000 0.49300  0.82100  0.18040  Biso   1.000  H
  H279     1.0000 0.99300  0.67900  0.81960  Biso   1.000  H
  H280     1.0000 0.50700  0.32100  0.31960  Biso   1.000  H
  H281     1.0000 0.68040  0.00700  0.17900  Biso   1.000  H
  H282     1.0000 0.18040  0.49300  0.82100  Biso   1.000  H
  H283     1.0000 0.81960  0.99300  0.67900  Biso   1.000  H
  H284     1.0000 0.31960  0.50700  0.32100  Biso   1.000  H
  H285     1.0000 0.17900  0.68040  0.00700  Biso   1.000  H
  H286     1.0000 0.82100  0.18040  0.49300  Biso   1.000  H
  H287     1.0000 0.67900  0.81960  0.99300  Biso   1.000  H
  H288     1.0000 0.32100  0.31960  0.50700  Biso   1.000  H
  C217     1.0000 0.99150  0.12060  0.62880  Biso   1.000  C
  C218     1.0000 0.50850  0.87940  0.12880  Biso   1.000  C
  C219     1.0000 0.00850  0.62060  0.87120  Biso   1.000  C
  C220     1.0000 0.49150  0.37940  0.37120  Biso   1.000  C
  C221     1.0000 0.62880  0.99150  0.12060  Biso   1.000  C
  C222     1.0000 0.12880  0.50850  0.87940  Biso   1.000  C
  C223     1.0000 0.87120  0.00850  0.62060  Biso   1.000  C
  C224     1.0000 0.37120  0.49150  0.37940  Biso   1.000  C
  C225     1.0000 0.12060  0.62880  0.99150  Biso   1.000  C
  C226     1.0000 0.87940  0.12880  0.50850  Biso   1.000  C
  C227     1.0000 0.62060  0.87120  0.00850  Biso   1.000  C
  C228     1.0000 0.37940  0.37120  0.49150  Biso   1.000  C
  H289     1.0000 0.98690  0.09710  0.65770  Biso   1.000  H
  H290     1.0000 0.51310  0.90290  0.15770  Biso   1.000  H
  H291     1.0000 0.01310  0.59710  0.84230  Biso   1.000  H
  H292     1.0000 0.48690  0.40290  0.34230  Biso   1.000  H
  H293     1.0000 0.65770  0.98690  0.09710  Biso   1.000  H
  H294     1.0000 0.15770  0.51310  0.90290  Biso   1.000  H
  H295     1.0000 0.84230  0.01310  0.59710  Biso   1.000  H
  H296     1.0000 0.34230  0.48690  0.40290  Biso   1.000  H
  H297     1.0000 0.09710  0.65770  0.98690  Biso   1.000  H
  H298     1.0000 0.90290  0.15770  0.51310  Biso   1.000  H
  H299     1.0000 0.59710  0.84230  0.01310  Biso   1.000  H
  H300     1.0000 0.40290  0.34230  0.48690  Biso   1.000  H
  H301     1.0000 0.02540  0.11520  0.61370  Biso   1.000  H
  H302     1.0000 0.47460  0.88480  0.11370  Biso   1.000  H
  H303     1.0000 0.97460  0.61520  0.88630  Biso   1.000  H
  H304     1.0000 0.52540  0.38480  0.38630  Biso   1.000  H
  H305     1.0000 0.61370  0.02540  0.11520  Biso   1.000  H
  H306     1.0000 0.11370  0.47460  0.88480  Biso   1.000  H
  H307     1.0000 0.88630  0.97460  0.61520  Biso   1.000  H
  H308     1.0000 0.38630  0.52540  0.38480  Biso   1.000  H
  H309     1.0000 0.11520  0.61370  0.02540  Biso   1.000  H
  H310     1.0000 0.88480  0.11370  0.47460  Biso   1.000  H
  H311     1.0000 0.61520  0.88630  0.97460  Biso   1.000  H
  H312     1.0000 0.38480  0.38630  0.52540  Biso   1.000  H
  H313     1.0000 0.96510  0.11400  0.60300  Biso   1.000  H
  H314     1.0000 0.53490  0.88600  0.10300  Biso   1.000  H
  H315     1.0000 0.03490  0.61400  0.89700  Biso   1.000  H
  H316     1.0000 0.46510  0.38600  0.39700  Biso   1.000  H
  H317     1.0000 0.60300  0.96510  0.11400  Biso   1.000  H
  H318     1.0000 0.10300  0.53490  0.88600  Biso   1.000  H
  H319     1.0000 0.89700  0.03490  0.61400  Biso   1.000  H
  H320     1.0000 0.39700  0.46510  0.38600  Biso   1.000  H
  H321     1.0000 0.11400  0.60300  0.96510  Biso   1.000  H
  H322     1.0000 0.88600  0.10300  0.53490  Biso   1.000  H
  H323     1.0000 0.61400  0.89700  0.03490  Biso   1.000  H
  H324     1.0000 0.38600  0.39700  0.46510  Biso   1.000  H
  C229     1.0000 0.01150  0.21200  0.60870  Biso   1.000  C
  C230     1.0000 0.48850  0.78800  0.10870  Biso   1.000  C
  C231     1.0000 0.98850  0.71200  0.89130  Biso   1.000  C
  C232     1.0000 0.51150  0.28800  0.39130  Biso   1.000  C
  C233     1.0000 0.60870  0.01150  0.21200  Biso   1.000  C
  C234     1.0000 0.10870  0.48850  0.78800  Biso   1.000  C
  C235     1.0000 0.89130  0.98850  0.71200  Biso   1.000  C
  C236     1.0000 0.39130  0.51150  0.28800  Biso   1.000  C
  C237     1.0000 0.21200  0.60870  0.01150  Biso   1.000  C
  C238     1.0000 0.78800  0.10870  0.48850  Biso   1.000  C
  C239     1.0000 0.71200  0.89130  0.98850  Biso   1.000  C
  C240     1.0000 0.28800  0.39130  0.51150  Biso   1.000  C
  H325     1.0000 0.99390  0.20840  0.57570  Biso   1.000  H
  H326     1.0000 0.50610  0.79160  0.07570  Biso   1.000  H
  H327     1.0000 0.00610  0.70840  0.92430  Biso   1.000  H
  H328     1.0000 0.49390  0.29160  0.42430  Biso   1.000  H
  H329     1.0000 0.57570  0.99390  0.20840  Biso   1.000  H
  H330     1.0000 0.07570  0.50610  0.79160  Biso   1.000  H
  H331     1.0000 0.92430  0.00610  0.70840  Biso   1.000  H
  H332     1.0000 0.42430  0.49390  0.29160  Biso   1.000  H
  H333     1.0000 0.20840  0.57570  0.99390  Biso   1.000  H
  H334     1.0000 0.79160  0.07570  0.50610  Biso   1.000  H
  H335     1.0000 0.70840  0.92430  0.00610  Biso   1.000  H
  H336     1.0000 0.29160  0.42430  0.49390  Biso   1.000  H
  H337     1.0000 0.04770  0.20320  0.60450  Biso   1.000  H
  H338     1.0000 0.45230  0.79680  0.10450  Biso   1.000  H
  H339     1.0000 0.95230  0.70320  0.89550  Biso   1.000  H
  H340     1.0000 0.54770  0.29680  0.39550  Biso   1.000  H
  H341     1.0000 0.60450  0.04770  0.20320  Biso   1.000  H
  H342     1.0000 0.10450  0.45230  0.79680  Biso   1.000  H
  H343     1.0000 0.89550  0.95230  0.70320  Biso   1.000  H
  H344     1.0000 0.39550  0.54770  0.29680  Biso   1.000  H
  H345     1.0000 0.20320  0.60450  0.04770  Biso   1.000  H
  H346     1.0000 0.79680  0.10450  0.45230  Biso   1.000  H
  H347     1.0000 0.70320  0.89550  0.95230  Biso   1.000  H
  H348     1.0000 0.29680  0.39550  0.54770  Biso   1.000  H
  H349     1.0000 0.00850  0.24740  0.62070  Biso   1.000  H
  H350     1.0000 0.49150  0.75260  0.12070  Biso   1.000  H
  H351     1.0000 0.99150  0.74740  0.87930  Biso   1.000  H
  H352     1.0000 0.50850  0.25260  0.37930  Biso   1.000  H
  H353     1.0000 0.62070  0.00850  0.24740  Biso   1.000  H
  H354     1.0000 0.12070  0.49150  0.75260  Biso   1.000  H
  H355     1.0000 0.87930  0.99150  0.74740  Biso   1.000  H
  H356     1.0000 0.37930  0.50850  0.25260  Biso   1.000  H
  H357     1.0000 0.24740  0.62070  0.00850  Biso   1.000  H
  H358     1.0000 0.75260  0.12070  0.49150  Biso   1.000  H
  H359     1.0000 0.74740  0.87930  0.99150  Biso   1.000  H
  H360     1.0000 0.25260  0.37930  0.50850  Biso   1.000  H
  C241     1.0000 0.02390  0.34930  0.58540  Biso   1.000  C
  C242     1.0000 0.47610  0.65070  0.08540  Biso   1.000  C
  C243     1.0000 0.97610  0.84930  0.91460  Biso   1.000  C
  C244     1.0000 0.52390  0.15070  0.41460  Biso   1.000  C
  C245     1.0000 0.58540  0.02390  0.34930  Biso   1.000  C
  C246     1.0000 0.08540  0.47610  0.65070  Biso   1.000  C
  C247     1.0000 0.91460  0.97610  0.84930  Biso   1.000  C
  C248     1.0000 0.41460  0.52390  0.15070  Biso   1.000  C
  C249     1.0000 0.34930  0.58540  0.02390  Biso   1.000  C
  C250     1.0000 0.65070  0.08540  0.47610  Biso   1.000  C
  C251     1.0000 0.84930  0.91460  0.97610  Biso   1.000  C
  C252     1.0000 0.15070  0.41460  0.52390  Biso   1.000  C
  C253     1.0000 0.96680  0.27090  0.81750  Biso   1.000  C
  C254     1.0000 0.53320  0.72910  0.31750  Biso   1.000  C
  C255     1.0000 0.03320  0.77090  0.68250  Biso   1.000  C
  C256     1.0000 0.46680  0.22910  0.18250  Biso   1.000  C
  C257     1.0000 0.81750  0.96680  0.27090  Biso   1.000  C
  C258     1.0000 0.31750  0.53320  0.72910  Biso   1.000  C
  C259     1.0000 0.68250  0.03320  0.77090  Biso   1.000  C
  C260     1.0000 0.18250  0.46680  0.22910  Biso   1.000  C
  C261     1.0000 0.27090  0.81750  0.96680  Biso   1.000  C
  C262     1.0000 0.72910  0.31750  0.53320  Biso   1.000  C
  C263     1.0000 0.77090  0.68250  0.03320  Biso   1.000  C
  C264     1.0000 0.22910  0.18250  0.46680  Biso   1.000  C
  C265     1.0000 0.04040  0.36730  0.88670  Biso   1.000  C
  C266     1.0000 0.45960  0.63270  0.38670  Biso   1.000  C
  C267     1.0000 0.95960  0.86730  0.61330  Biso   1.000  C
  C268     1.0000 0.54040  0.13270  0.11330  Biso   1.000  C
  C269     1.0000 0.88670  0.04040  0.36730  Biso   1.000  C
  C270     1.0000 0.38670  0.45960  0.63270  Biso   1.000  C
  C271     1.0000 0.61330  0.95960  0.86730  Biso   1.000  C
  C272     1.0000 0.11330  0.54040  0.13270  Biso   1.000  C
  C273     1.0000 0.36730  0.88670  0.04040  Biso   1.000  C
  C274     1.0000 0.63270  0.38670  0.45960  Biso   1.000  C
  C275     1.0000 0.86730  0.61330  0.95960  Biso   1.000  C
  C276     1.0000 0.13270  0.11330  0.54040  Biso   1.000  C
  C277     1.0000 0.00860  0.31770  0.88770  Biso   1.000  C
  C278     1.0000 0.49140  0.68230  0.38770  Biso   1.000  C
  C279     1.0000 0.99140  0.81770  0.61230  Biso   1.000  C
  C280     1.0000 0.50860  0.18230  0.11230  Biso   1.000  C
  C281     1.0000 0.88770  0.00860  0.31770  Biso   1.000  C
  C282     1.0000 0.38770  0.49140  0.68230  Biso   1.000  C
  C283     1.0000 0.61230  0.99140  0.81770  Biso   1.000  C
  C284     1.0000 0.11230  0.50860  0.18230  Biso   1.000  C
  C285     1.0000 0.31770  0.88770  0.00860  Biso   1.000  C
  C286     1.0000 0.68230  0.38770  0.49140  Biso   1.000  C
  C287     1.0000 0.81770  0.61230  0.99140  Biso   1.000  C
  C288     1.0000 0.18230  0.11230  0.50860  Biso   1.000  C
  H361     1.0000 0.97350  0.32520  0.90090  Biso   1.000  H
  H362     1.0000 0.52650  0.67480  0.40090  Biso   1.000  H
  H363     1.0000 0.02650  0.82520  0.59910  Biso   1.000  H
  H364     1.0000 0.47350  0.17480  0.09910  Biso   1.000  H
  H365     1.0000 0.90090  0.97350  0.32520  Biso   1.000  H
  H366     1.0000 0.40090  0.52650  0.67480  Biso   1.000  H
  H367     1.0000 0.59910  0.02650  0.82520  Biso   1.000  H
  H368     1.0000 0.09910  0.47350  0.17480  Biso   1.000  H
  H369     1.0000 0.32520  0.90090  0.97350  Biso   1.000  H
  H370     1.0000 0.67480  0.40090  0.52650  Biso   1.000  H
  H371     1.0000 0.82520  0.59910  0.02650  Biso   1.000  H
  H372     1.0000 0.17480  0.09910  0.47350  Biso   1.000  H
  C289     1.0000 0.03450  0.27440  0.92160  Biso   1.000  C
  C290     1.0000 0.46550  0.72560  0.42160  Biso   1.000  C
  C291     1.0000 0.96550  0.77440  0.57840  Biso   1.000  C
  C292     1.0000 0.53450  0.22560  0.07840  Biso   1.000  C
  C293     1.0000 0.92160  0.03450  0.27440  Biso   1.000  C
  C294     1.0000 0.42160  0.46550  0.72560  Biso   1.000  C
  C295     1.0000 0.57840  0.96550  0.77440  Biso   1.000  C
  C296     1.0000 0.07840  0.53450  0.22560  Biso   1.000  C
  C297     1.0000 0.27440  0.92160  0.03450  Biso   1.000  C
  C298     1.0000 0.72560  0.42160  0.46550  Biso   1.000  C
  C299     1.0000 0.77440  0.57840  0.96550  Biso   1.000  C
  C300     1.0000 0.22560  0.07840  0.53450  Biso   1.000  C
  H373     1.0000 0.05400  0.25320  0.89690  Biso   1.000  H
  H374     1.0000 0.44600  0.74680  0.39690  Biso   1.000  H
  H375     1.0000 0.94600  0.75320  0.60310  Biso   1.000  H
  H376     1.0000 0.55400  0.24680  0.10310  Biso   1.000  H
  H377     1.0000 0.89690  0.05400  0.25320  Biso   1.000  H
  H378     1.0000 0.39690  0.44600  0.74680  Biso   1.000  H
  H379     1.0000 0.60310  0.94600  0.75320  Biso   1.000  H
  H380     1.0000 0.10310  0.55400  0.24680  Biso   1.000  H
  H381     1.0000 0.25320  0.89690  0.05400  Biso   1.000  H
  H382     1.0000 0.74680  0.39690  0.44600  Biso   1.000  H
  H383     1.0000 0.75320  0.60310  0.94600  Biso   1.000  H
  H384     1.0000 0.24680  0.10310  0.55400  Biso   1.000  H
  H385     1.0000 0.00570  0.25270  0.93320  Biso   1.000  H
  H386     1.0000 0.49430  0.74730  0.43320  Biso   1.000  H
  H387     1.0000 0.99430  0.75270  0.56680  Biso   1.000  H
  H388     1.0000 0.50570  0.24730  0.06680  Biso   1.000  H
  H389     1.0000 0.93320  0.00570  0.25270  Biso   1.000  H
  H390     1.0000 0.43320  0.49430  0.74730  Biso   1.000  H
  H391     1.0000 0.56680  0.99430  0.75270  Biso   1.000  H
  H392     1.0000 0.06680  0.50570  0.24730  Biso   1.000  H
  H393     1.0000 0.25270  0.93320  0.00570  Biso   1.000  H
  H394     1.0000 0.74730  0.43320  0.49430  Biso   1.000  H
  H395     1.0000 0.75270  0.56680  0.99430  Biso   1.000  H
  H396     1.0000 0.24730  0.06680  0.50570  Biso   1.000  H
  C301     1.0000 0.07210  0.27910  0.97170  Biso   1.000  C
  C302     1.0000 0.42790  0.72090  0.47170  Biso   1.000  C
  C303     1.0000 0.92790  0.77910  0.52830  Biso   1.000  C
  C304     1.0000 0.57210  0.22090  0.02830  Biso   1.000  C
  C305     1.0000 0.97170  0.07210  0.27910  Biso   1.000  C
  C306     1.0000 0.47170  0.42790  0.72090  Biso   1.000  C
  C307     1.0000 0.52830  0.92790  0.77910  Biso   1.000  C
  C308     1.0000 0.02830  0.57210  0.22090  Biso   1.000  C
  C309     1.0000 0.27910  0.97170  0.07210  Biso   1.000  C
  C310     1.0000 0.72090  0.47170  0.42790  Biso   1.000  C
  C311     1.0000 0.77910  0.52830  0.92790  Biso   1.000  C
  C312     1.0000 0.22090  0.02830  0.57210  Biso   1.000  C
  H397     1.0000 0.06890  0.31720  0.97250  Biso   1.000  H
  H398     1.0000 0.43110  0.68280  0.47250  Biso   1.000  H
  H399     1.0000 0.93110  0.81720  0.52750  Biso   1.000  H
  H400     1.0000 0.56890  0.18280  0.02750  Biso   1.000  H
  H401     1.0000 0.97250  0.06890  0.31720  Biso   1.000  H
  H402     1.0000 0.47250  0.43110  0.68280  Biso   1.000  H
  H403     1.0000 0.52750  0.93110  0.81720  Biso   1.000  H
  H404     1.0000 0.02750  0.56890  0.18280  Biso   1.000  H
  H405     1.0000 0.31720  0.97250  0.06890  Biso   1.000  H
  H406     1.0000 0.68280  0.47250  0.43110  Biso   1.000  H
  H407     1.0000 0.81720  0.52750  0.93110  Biso   1.000  H
  H408     1.0000 0.18280  0.02750  0.56890  Biso   1.000  H
  C313     1.0000 0.08330  0.27620  0.03140  Biso   1.000  C
  C314     1.0000 0.41670  0.72380  0.53140  Biso   1.000  C
  C315     1.0000 0.91670  0.77620  0.46860  Biso   1.000  C
  C316     1.0000 0.58330  0.22380  0.96860  Biso   1.000  C
  C317     1.0000 0.03140  0.08330  0.27620  Biso   1.000  C
  C318     1.0000 0.53140  0.41670  0.72380  Biso   1.000  C
  C319     1.0000 0.46860  0.91670  0.77620  Biso   1.000  C
  C320     1.0000 0.96860  0.58330  0.22380  Biso   1.000  C
  C321     1.0000 0.27620  0.03140  0.08330  Biso   1.000  C
  C322     1.0000 0.72380  0.53140  0.41670  Biso   1.000  C
  C323     1.0000 0.77620  0.46860  0.91670  Biso   1.000  C
  C324     1.0000 0.22380  0.96860  0.58330  Biso   1.000  C
  H409     1.0000 0.10640  0.30400  0.04110  Biso   1.000  H
  H410     1.0000 0.39360  0.69600  0.54110  Biso   1.000  H
  H411     1.0000 0.89360  0.80400  0.45890  Biso   1.000  H
  H412     1.0000 0.60640  0.19600  0.95890  Biso   1.000  H
  H413     1.0000 0.04110  0.10640  0.30400  Biso   1.000  H
  H414     1.0000 0.54110  0.39360  0.69600  Biso   1.000  H
  H415     1.0000 0.45890  0.89360  0.80400  Biso   1.000  H
  H416     1.0000 0.95890  0.60640  0.19600  Biso   1.000  H
  H417     1.0000 0.30400  0.04110  0.10640  Biso   1.000  H
  H418     1.0000 0.69600  0.54110  0.39360  Biso   1.000  H
  H419     1.0000 0.80400  0.45890  0.89360  Biso   1.000  H
  H420     1.0000 0.19600  0.95890  0.60640  Biso   1.000  H
  H421     1.0000 0.09930  0.24320  0.03950  Biso   1.000  H
  H422     1.0000 0.40070  0.75680  0.53950  Biso   1.000  H
  H423     1.0000 0.90070  0.74320  0.46050  Biso   1.000  H
  H424     1.0000 0.59930  0.25680  0.96050  Biso   1.000  H
  H425     1.0000 0.03950  0.09930  0.24320  Biso   1.000  H
  H426     1.0000 0.53950  0.40070  0.75680  Biso   1.000  H
  H427     1.0000 0.46050  0.90070  0.74320  Biso   1.000  H
  H428     1.0000 0.96050  0.59930  0.25680  Biso   1.000  H
  H429     1.0000 0.24320  0.03950  0.09930  Biso   1.000  H
  H430     1.0000 0.75680  0.53950  0.40070  Biso   1.000  H
  H431     1.0000 0.74320  0.46050  0.90070  Biso   1.000  H
  H432     1.0000 0.25680  0.96050  0.59930  Biso   1.000  H
  H433     1.0000 0.05100  0.27940  0.05030  Biso   1.000  H
  H434     1.0000 0.44900  0.72060  0.55030  Biso   1.000  H
  H435     1.0000 0.94900  0.77940  0.44970  Biso   1.000  H
  H436     1.0000 0.55100  0.22060  0.94970  Biso   1.000  H
  H437     1.0000 0.05030  0.05100  0.27940  Biso   1.000  H
  H438     1.0000 0.55030  0.44900  0.72060  Biso   1.000  H
  H439     1.0000 0.44970  0.94900  0.77940  Biso   1.000  H
  H440     1.0000 0.94970  0.55100  0.22060  Biso   1.000  H
  H441     1.0000 0.27940  0.05030  0.05100  Biso   1.000  H
  H442     1.0000 0.72060  0.55030  0.44900  Biso   1.000  H
  H443     1.0000 0.77940  0.44970  0.94900  Biso   1.000  H
  H444     1.0000 0.22060  0.94970  0.55100  Biso   1.000  H
  C325     1.0000 0.12600  0.28170  0.94040  Biso   1.000  C
  C326     1.0000 0.37400  0.71830  0.44040  Biso   1.000  C
  C327     1.0000 0.87400  0.78170  0.55960  Biso   1.000  C
  C328     1.0000 0.62600  0.21830  0.05960  Biso   1.000  C
  C329     1.0000 0.94040  0.12600  0.28170  Biso   1.000  C
  C330     1.0000 0.44040  0.37400  0.71830  Biso   1.000  C
  C331     1.0000 0.55960  0.87400  0.78170  Biso   1.000  C
  C332     1.0000 0.05960  0.62600  0.21830  Biso   1.000  C
  C333     1.0000 0.28170  0.94040  0.12600  Biso   1.000  C
  C334     1.0000 0.71830  0.44040  0.37400  Biso   1.000  C
  C335     1.0000 0.78170  0.55960  0.87400  Biso   1.000  C
  C336     1.0000 0.21830  0.05960  0.62600  Biso   1.000  C
  H445     1.0000 0.12490  0.31000  0.91590  Biso   1.000  H
  H446     1.0000 0.37510  0.69000  0.41590  Biso   1.000  H
  H447     1.0000 0.87510  0.81000  0.58410  Biso   1.000  H
  H448     1.0000 0.62490  0.19000  0.08410  Biso   1.000  H
  H449     1.0000 0.91590  0.12490  0.31000  Biso   1.000  H
  H450     1.0000 0.41590  0.37510  0.69000  Biso   1.000  H
  H451     1.0000 0.58410  0.87510  0.81000  Biso   1.000  H
  H452     1.0000 0.08410  0.62490  0.19000  Biso   1.000  H
  H453     1.0000 0.31000  0.91590  0.12490  Biso   1.000  H
  H454     1.0000 0.69000  0.41590  0.37510  Biso   1.000  H
  H455     1.0000 0.81000  0.58410  0.87510  Biso   1.000  H
  H456     1.0000 0.19000  0.08410  0.62490  Biso   1.000  H
  H457     1.0000 0.13130  0.24940  0.92190  Biso   1.000  H
  H458     1.0000 0.36870  0.75060  0.42190  Biso   1.000  H
  H459     1.0000 0.86870  0.74940  0.57810  Biso   1.000  H
  H460     1.0000 0.63130  0.25060  0.07810  Biso   1.000  H
  H461     1.0000 0.92190  0.13130  0.24940  Biso   1.000  H
  H462     1.0000 0.42190  0.36870  0.75060  Biso   1.000  H
  H463     1.0000 0.57810  0.86870  0.74940  Biso   1.000  H
  H464     1.0000 0.07810  0.63130  0.25060  Biso   1.000  H
  H465     1.0000 0.24940  0.92190  0.13130  Biso   1.000  H
  H466     1.0000 0.75060  0.42190  0.36870  Biso   1.000  H
  H467     1.0000 0.74940  0.57810  0.86870  Biso   1.000  H
  H468     1.0000 0.25060  0.07810  0.63130  Biso   1.000  H
  H469     1.0000 0.15420  0.28710  0.96450  Biso   1.000  H
  H470     1.0000 0.34580  0.71290  0.46450  Biso   1.000  H
  H471     1.0000 0.84580  0.78710  0.53550  Biso   1.000  H
  H472     1.0000 0.65420  0.21290  0.03550  Biso   1.000  H
  H473     1.0000 0.96450  0.15420  0.28710  Biso   1.000  H
  H474     1.0000 0.46450  0.34580  0.71290  Biso   1.000  H
  H475     1.0000 0.53550  0.84580  0.78710  Biso   1.000  H
  H476     1.0000 0.03550  0.65420  0.21290  Biso   1.000  H
  H477     1.0000 0.28710  0.96450  0.15420  Biso   1.000  H
  H478     1.0000 0.71290  0.46450  0.34580  Biso   1.000  H
  H479     1.0000 0.78710  0.53550  0.84580  Biso   1.000  H
  H480     1.0000 0.21290  0.03550  0.65420  Biso   1.000  H
  O209     1.0000 0.67900  0.38800  0.95700  Biso   1.000  O
  O210     1.0000 0.82100  0.61200  0.45700  Biso   1.000  O
  O211     1.0000 0.32100  0.88800  0.54300  Biso   1.000  O
  O212     1.0000 0.17900  0.11200  0.04300  Biso   1.000  O
  O213     1.0000 0.95700  0.67900  0.38800  Biso   1.000  O
  O214     1.0000 0.45700  0.82100  0.61200  Biso   1.000  O
  O215     1.0000 0.54300  0.32100  0.88800  Biso   1.000  O
  O216     1.0000 0.04300  0.17900  0.11200  Biso   1.000  O
  O217     1.0000 0.38800  0.95700  0.67900  Biso   1.000  O
  O218     1.0000 0.61200  0.45700  0.82100  Biso   1.000  O
  O219     1.0000 0.88800  0.54300  0.32100  Biso   1.000  O
  O220     1.0000 0.11200  0.04300  0.17900  Biso   1.000  O
  O221     1.0000 0.12570  0.27010  0.79900  Biso   1.000  O
  O222     1.0000 0.37430  0.72990  0.29900  Biso   1.000  O
  O223     1.0000 0.87430  0.77010  0.70100  Biso   1.000  O
  O224     1.0000 0.62570  0.22990  0.20100  Biso   1.000  O
  O225     1.0000 0.79900  0.12570  0.27010  Biso   1.000  O
  O226     1.0000 0.29900  0.37430  0.72990  Biso   1.000  O
  O227     1.0000 0.70100  0.87430  0.77010  Biso   1.000  O
  O228     1.0000 0.20100  0.62570  0.22990  Biso   1.000  O
  O229     1.0000 0.27010  0.79900  0.12570  Biso   1.000  O
  O230     1.0000 0.72990  0.29900  0.37430  Biso   1.000  O
  O231     1.0000 0.77010  0.70100  0.87430  Biso   1.000  O
  O232     1.0000 0.22990  0.20100  0.62570  Biso   1.000  O
  Cu37     1.0000 0.77485  0.28785  0.62194  Biso   1.000  Cu
  Cu38     1.0000 0.72515  0.71215  0.12194  Biso   1.000  Cu
  Cu39     1.0000 0.22515  0.78785  0.87806  Biso   1.000  Cu
  Cu40     1.0000 0.27485  0.21215  0.37806  Biso   1.000  Cu
  Cu41     1.0000 0.62194  0.77485  0.28785  Biso   1.000  Cu
  Cu42     1.0000 0.12194  0.72515  0.71215  Biso   1.000  Cu
  Cu43     1.0000 0.87806  0.22515  0.78785  Biso   1.000  Cu
  Cu44     1.0000 0.37806  0.27485  0.21215  Biso   1.000  Cu
  Cu45     1.0000 0.28785  0.62194  0.77485  Biso   1.000  Cu
  Cu46     1.0000 0.71215  0.12194  0.72515  Biso   1.000  Cu
  Cu47     1.0000 0.78785  0.87806  0.22515  Biso   1.000  Cu
  Cu48     1.0000 0.21215  0.37806  0.27485  Biso   1.000  Cu
  O233     1.0000 0.17730  0.35930  0.83750  Biso   1.000  O
  O234     1.0000 0.32270  0.64070  0.33750  Biso   1.000  O
  O235     1.0000 0.82270  0.85930  0.66250  Biso   1.000  O
  O236     1.0000 0.67730  0.14070  0.16250  Biso   1.000  O
  O237     1.0000 0.83750  0.17730  0.35930  Biso   1.000  O
  O238     1.0000 0.33750  0.32270  0.64070  Biso   1.000  O
  O239     1.0000 0.66250  0.82270  0.85930  Biso   1.000  O
  O240     1.0000 0.16250  0.67730  0.14070  Biso   1.000  O
  O241     1.0000 0.35930  0.83750  0.17730  Biso   1.000  O
  O242     1.0000 0.64070  0.33750  0.32270  Biso   1.000  O
  O243     1.0000 0.85930  0.66250  0.82270  Biso   1.000  O
  O244     1.0000 0.14070  0.16250  0.67730  Biso   1.000  O
  O245     1.0000 0.86110  0.52310  0.68960  Biso   1.000  O
  O246     1.0000 0.63890  0.47690  0.18960  Biso   1.000  O
  O247     1.0000 0.13890  0.02310  0.81040  Biso   1.000  O
  O248     1.0000 0.36110  0.97690  0.31040  Biso   1.000  O
  O249     1.0000 0.68960  0.86110  0.52310  Biso   1.000  O
  O250     1.0000 0.18960  0.63890  0.47690  Biso   1.000  O
  O251     1.0000 0.81040  0.13890  0.02310  Biso   1.000  O
  O252     1.0000 0.31040  0.36110  0.97690  Biso   1.000  O
  O253     1.0000 0.52310  0.68960  0.86110  Biso   1.000  O
  O254     1.0000 0.47690  0.18960  0.63890  Biso   1.000  O
  O255     1.0000 0.02310  0.81040  0.13890  Biso   1.000  O
  O256     1.0000 0.97690  0.31040  0.36110  Biso   1.000  O
  O257     1.0000 0.82200  0.61110  0.73000  Biso   1.000  O
  O258     1.0000 0.67800  0.38890  0.23000  Biso   1.000  O
  O259     1.0000 0.17800  0.11110  0.77000  Biso   1.000  O
  O260     1.0000 0.32200  0.88890  0.27000  Biso   1.000  O
  O261     1.0000 0.73000  0.82200  0.61110  Biso   1.000  O
  O262     1.0000 0.23000  0.67800  0.38890  Biso   1.000  O
  O263     1.0000 0.77000  0.17800  0.11110  Biso   1.000  O
  O264     1.0000 0.27000  0.32200  0.88890  Biso   1.000  O
  O265     1.0000 0.61110  0.73000  0.82200  Biso   1.000  O
  O266     1.0000 0.38890  0.23000  0.67800  Biso   1.000  O
  O267     1.0000 0.11110  0.77000  0.17800  Biso   1.000  O
  O268     1.0000 0.88890  0.27000  0.32200  Biso   1.000  O
  O269     1.0000 0.96560  0.52980  0.68930  Biso   1.000  O
  O270     1.0000 0.53440  0.47020  0.18930  Biso   1.000  O
  O271     1.0000 0.03440  0.02980  0.81070  Biso   1.000  O
  O272     1.0000 0.46560  0.97020  0.31070  Biso   1.000  O
  O273     1.0000 0.68930  0.96560  0.52980  Biso   1.000  O
  O274     1.0000 0.18930  0.53440  0.47020  Biso   1.000  O
  O275     1.0000 0.81070  0.03440  0.02980  Biso   1.000  O
  O276     1.0000 0.31070  0.46560  0.97020  Biso   1.000  O
  O277     1.0000 0.52980  0.68930  0.96560  Biso   1.000  O
  O278     1.0000 0.47020  0.18930  0.53440  Biso   1.000  O
  O279     1.0000 0.02980  0.81070  0.03440  Biso   1.000  O
  O280     1.0000 0.97020  0.31070  0.46560  Biso   1.000  O
  O281     1.0000 0.86430  0.35810  0.95680  Biso   1.000  O
  O282     1.0000 0.63570  0.64190  0.45680  Biso   1.000  O
  O283     1.0000 0.13570  0.85810  0.54320  Biso   1.000  O
  O284     1.0000 0.36430  0.14190  0.04320  Biso   1.000  O
  O285     1.0000 0.95680  0.86430  0.35810  Biso   1.000  O
  O286     1.0000 0.45680  0.63570  0.64190  Biso   1.000  O
  O287     1.0000 0.54320  0.13570  0.85810  Biso   1.000  O
  O288     1.0000 0.04320  0.36430  0.14190  Biso   1.000  O
  O289     1.0000 0.35810  0.95680  0.86430  Biso   1.000  O
  O290     1.0000 0.64190  0.45680  0.63570  Biso   1.000  O
  O291     1.0000 0.85810  0.54320  0.13570  Biso   1.000  O
  O292     1.0000 0.14190  0.04320  0.36430  Biso   1.000  O
  O293     1.0000 0.92450  0.50230  0.97410  Biso   1.000  O
  O294     1.0000 0.57550  0.49770  0.47410  Biso   1.000  O
  O295     1.0000 0.07550  0.00230  0.52590  Biso   1.000  O
  O296     1.0000 0.42450  0.99770  0.02590  Biso   1.000  O
  O297     1.0000 0.97410  0.92450  0.50230  Biso   1.000  O
  O298     1.0000 0.47410  0.57550  0.49770  Biso   1.000  O
  O299     1.0000 0.52590  0.07550  0.00230  Biso   1.000  O
  O300     1.0000 0.02590  0.42450  0.99770  Biso   1.000  O
  O301     1.0000 0.50230  0.97410  0.92450  Biso   1.000  O
  O302     1.0000 0.49770  0.47410  0.57550  Biso   1.000  O
  O303     1.0000 0.00230  0.52590  0.07550  Biso   1.000  O
  O304     1.0000 0.99770  0.02590  0.42450  Biso   1.000  O
  O305     1.0000 0.73090  0.49360  0.77210  Biso   1.000  O
  O306     1.0000 0.76910  0.50640  0.27210  Biso   1.000  O
  O307     1.0000 0.26910  0.99360  0.72790  Biso   1.000  O
  O308     1.0000 0.23090  0.00640  0.22790  Biso   1.000  O
  O309     1.0000 0.77210  0.73090  0.49360  Biso   1.000  O
  O310     1.0000 0.27210  0.76910  0.50640  Biso   1.000  O
  O311     1.0000 0.72790  0.26910  0.99360  Biso   1.000  O
  O312     1.0000 0.22790  0.23090  0.00640  Biso   1.000  O
  O313     1.0000 0.49360  0.77210  0.73090  Biso   1.000  O
  O314     1.0000 0.50640  0.27210  0.76910  Biso   1.000  O
  O315     1.0000 0.99360  0.72790  0.26910  Biso   1.000  O
  O316     1.0000 0.00640  0.22790  0.23090  Biso   1.000  O
  O317     1.0000 0.01640  0.51640  0.98360  Biso   1.000  O
  O318     1.0000 0.48360  0.48360  0.48360  Biso   1.000  O
  O319     1.0000 0.98360  0.01640  0.51640  Biso   1.000  O
  O320     1.0000 0.51640  0.98360  0.01640  Biso   1.000  O
  O321     1.0000 0.79700  0.53340  0.59740  Biso   1.000  O
  O322     1.0000 0.70300  0.46660  0.09740  Biso   1.000  O
  O323     1.0000 0.20300  0.03340  0.90260  Biso   1.000  O
  O324     1.0000 0.29700  0.96660  0.40260  Biso   1.000  O
  O325     1.0000 0.59740  0.79700  0.53340  Biso   1.000  O
  O326     1.0000 0.09740  0.70300  0.46660  Biso   1.000  O
  O327     1.0000 0.90260  0.20300  0.03340  Biso   1.000  O
  O328     1.0000 0.40260  0.29700  0.96660  Biso   1.000  O
  O329     1.0000 0.53340  0.59740  0.79700  Biso   1.000  O
  O330     1.0000 0.46660  0.09740  0.70300  Biso   1.000  O
  O331     1.0000 0.03340  0.90260  0.20300  Biso   1.000  O
  O332     1.0000 0.96660  0.40260  0.29700  Biso   1.000  O
  O333     1.0000 0.72110  0.60710  0.62060  Biso   1.000  O
  O334     1.0000 0.77890  0.39290  0.12060  Biso   1.000  O
  O335     1.0000 0.27890  0.10710  0.87940  Biso   1.000  O
  O336     1.0000 0.22110  0.89290  0.37940  Biso   1.000  O
  O337     1.0000 0.62060  0.72110  0.60710  Biso   1.000  O
  O338     1.0000 0.12060  0.77890  0.39290  Biso   1.000  O
  O339     1.0000 0.87940  0.27890  0.10710  Biso   1.000  O
  O340     1.0000 0.37940  0.22110  0.89290  Biso   1.000  O
  O341     1.0000 0.60710  0.62060  0.72110  Biso   1.000  O
  O342     1.0000 0.39290  0.12060  0.77890  Biso   1.000  O
  O343     1.0000 0.10710  0.87940  0.27890  Biso   1.000  O
  O344     1.0000 0.89290  0.37940  0.22110  Biso   1.000  O
  O345     1.0000 0.74530  0.43990  0.61270  Biso   1.000  O
  O346     1.0000 0.75470  0.56010  0.11270  Biso   1.000  O
  O347     1.0000 0.25470  0.93990  0.88730  Biso   1.000  O
  O348     1.0000 0.24530  0.06010  0.38730  Biso   1.000  O
  O349     1.0000 0.61270  0.74530  0.43990  Biso   1.000  O
  O350     1.0000 0.11270  0.75470  0.56010  Biso   1.000  O
  O351     1.0000 0.88730  0.25470  0.93990  Biso   1.000  O
  O352     1.0000 0.38730  0.24530  0.06010  Biso   1.000  O
  O353     1.0000 0.43990  0.61270  0.74530  Biso   1.000  O
  O354     1.0000 0.56010  0.11270  0.75470  Biso   1.000  O
  O355     1.0000 0.93990  0.88730  0.25470  Biso   1.000  O
  O356     1.0000 0.06010  0.38730  0.24530  Biso   1.000  O
  O357     1.0000 0.15700  0.17900  0.84300  Biso   1.000  O
  O358     1.0000 0.34300  0.82100  0.34300  Biso   1.000  O
  O359     1.0000 0.84300  0.67900  0.65700  Biso   1.000  O
  O360     1.0000 0.65700  0.32100  0.15700  Biso   1.000  O
  O361     1.0000 0.84300  0.15700  0.17900  Biso   1.000  O
  O362     1.0000 0.34300  0.34300  0.82100  Biso   1.000  O
  O363     1.0000 0.65700  0.84300  0.67900  Biso   1.000  O
  O364     1.0000 0.15700  0.65700  0.32100  Biso   1.000  O
  O365     1.0000 0.17900  0.84300  0.15700  Biso   1.000  O
  O366     1.0000 0.82100  0.34300  0.34300  Biso   1.000  O
  O367     1.0000 0.67900  0.65700  0.84300  Biso   1.000  O
  O368     1.0000 0.32100  0.15700  0.65700  Biso   1.000  O
