data_image0
_cell_length_a       21.085
_cell_length_b       23.379
_cell_length_c       26.922
_cell_angle_alpha    90
_cell_angle_beta     90
_cell_angle_gamma    90

_symmetry_space_group_name_H-M    "P 1"
_symmetry_int_tables_number       1

loop_
  _symmetry_equiv_pos_as_xyz
  'x, y, z'

loop_
  _atom_site_label
  _atom_site_occupancy
  _atom_site_fract_x
  _atom_site_fract_y
  _atom_site_fract_z
  _atom_site_thermal_displace_type
  _atom_site_B_iso_or_equiv
  _atom_site_type_symbol
  Dy1      1.0000 0.50998  0.30365  0.37651  Biso   1.000  Dy
  Dy2      1.0000 0.99002  0.69635  0.87651  Biso   1.000  Dy
  Dy3      1.0000 0.49002  0.80365  0.12349  Biso   1.000  Dy
  Dy4      1.0000 0.00998  0.19635  0.62349  Biso   1.000  Dy
  Dy5      1.0000 0.49002  0.69635  0.62349  Biso   1.000  Dy
  Dy6      1.0000 0.00998  0.30365  0.12349  Biso   1.000  Dy
  Dy7      1.0000 0.50998  0.19635  0.87651  Biso   1.000  Dy
  Dy8      1.0000 0.99002  0.80365  0.37651  Biso   1.000  Dy
  Cu1      1.0000 0.63776  0.20924  0.37131  Biso   1.000  Cu
  Cu2      1.0000 0.86224  0.79076  0.87131  Biso   1.000  Cu
  Cu3      1.0000 0.36224  0.70924  0.12869  Biso   1.000  Cu
  Cu4      1.0000 0.13776  0.29076  0.62869  Biso   1.000  Cu
  Cu5      1.0000 0.36224  0.79076  0.62869  Biso   1.000  Cu
  Cu6      1.0000 0.13776  0.20924  0.12869  Biso   1.000  Cu
  Cu7      1.0000 0.63776  0.29076  0.87131  Biso   1.000  Cu
  Cu8      1.0000 0.86224  0.70924  0.37131  Biso   1.000  Cu
  Cu9      1.0000 0.38084  0.39708  0.38509  Biso   1.000  Cu
  Cu10     1.0000 0.11916  0.60292  0.88509  Biso   1.000  Cu
  Cu11     1.0000 0.61916  0.89708  0.11491  Biso   1.000  Cu
  Cu12     1.0000 0.88084  0.10292  0.61491  Biso   1.000  Cu
  Cu13     1.0000 0.61916  0.60292  0.61491  Biso   1.000  Cu
  Cu14     1.0000 0.88084  0.39708  0.11491  Biso   1.000  Cu
  Cu15     1.0000 0.38084  0.10292  0.88509  Biso   1.000  Cu
  Cu16     1.0000 0.11916  0.89708  0.38509  Biso   1.000  Cu
  Fe1      1.0000 0.40262  0.56698  0.26618  Biso   1.000  Fe
  Fe2      1.0000 0.09738  0.43302  0.76618  Biso   1.000  Fe
  Fe3      1.0000 0.59738  0.06698  0.23382  Biso   1.000  Fe
  Fe4      1.0000 0.90262  0.93302  0.73382  Biso   1.000  Fe
  Fe5      1.0000 0.59738  0.43302  0.73382  Biso   1.000  Fe
  Fe6      1.0000 0.90262  0.56698  0.23382  Biso   1.000  Fe
  Fe7      1.0000 0.40262  0.93302  0.76618  Biso   1.000  Fe
  Fe8      1.0000 0.09738  0.06698  0.26618  Biso   1.000  Fe
  O1       1.0000 0.40220  0.32073  0.35825  Biso   1.000  O
  O2       1.0000 0.09780  0.67927  0.85825  Biso   1.000  O
  O3       1.0000 0.59780  0.82073  0.14175  Biso   1.000  O
  O4       1.0000 0.90220  0.17927  0.64175  Biso   1.000  O
  O5       1.0000 0.59780  0.67927  0.64175  Biso   1.000  O
  O6       1.0000 0.90220  0.32073  0.14175  Biso   1.000  O
  O7       1.0000 0.40220  0.17927  0.85825  Biso   1.000  O
  O8       1.0000 0.09780  0.82073  0.35825  Biso   1.000  O
  O9       1.0000 0.55740  0.22242  0.40909  Biso   1.000  O
  O10      1.0000 0.94260  0.77758  0.90909  Biso   1.000  O
  O11      1.0000 0.44260  0.72242  0.09091  Biso   1.000  O
  O12      1.0000 0.05740  0.27758  0.59091  Biso   1.000  O
  O13      1.0000 0.44260  0.77758  0.59091  Biso   1.000  O
  O14      1.0000 0.05740  0.22242  0.09091  Biso   1.000  O
  O15      1.0000 0.55740  0.27758  0.90909  Biso   1.000  O
  O16      1.0000 0.94260  0.72242  0.40909  Biso   1.000  O
  O17      1.0000 0.46360  0.38052  0.41826  Biso   1.000  O
  O18      1.0000 0.03640  0.61948  0.91826  Biso   1.000  O
  O19      1.0000 0.53640  0.88052  0.08174  Biso   1.000  O
  O20      1.0000 0.96360  0.11948  0.58174  Biso   1.000  O
  O21      1.0000 0.53640  0.61948  0.58174  Biso   1.000  O
  O22      1.0000 0.96360  0.38052  0.08174  Biso   1.000  O
  O23      1.0000 0.46360  0.11948  0.91826  Biso   1.000  O
  O24      1.0000 0.03640  0.88052  0.41826  Biso   1.000  O
  N1       1.0000 0.36220  0.45890  0.43300  Biso   1.000  N
  N2       1.0000 0.13780  0.54110  0.93300  Biso   1.000  N
  N3       1.0000 0.63780  0.95890  0.06700  Biso   1.000  N
  N4       1.0000 0.86220  0.04110  0.56700  Biso   1.000  N
  N5       1.0000 0.63780  0.54110  0.56700  Biso   1.000  N
  N6       1.0000 0.86220  0.45890  0.06700  Biso   1.000  N
  N7       1.0000 0.36220  0.04110  0.93300  Biso   1.000  N
  N8       1.0000 0.13780  0.95890  0.43300  Biso   1.000  N
  O25      1.0000 0.44320  0.21530  0.34770  Biso   1.000  O
  O26      1.0000 0.05680  0.78470  0.84770  Biso   1.000  O
  O27      1.0000 0.55680  0.71530  0.15230  Biso   1.000  O
  O28      1.0000 0.94320  0.28470  0.65230  Biso   1.000  O
  O29      1.0000 0.55680  0.78470  0.65230  Biso   1.000  O
  O30      1.0000 0.94320  0.21530  0.15230  Biso   1.000  O
  O31      1.0000 0.44320  0.28470  0.84770  Biso   1.000  O
  O32      1.0000 0.05680  0.71530  0.34770  Biso   1.000  O
  O33      1.0000 0.56710  0.33640  0.45390  Biso   1.000  O
  O34      1.0000 0.93290  0.66360  0.95390  Biso   1.000  O
  O35      1.0000 0.43290  0.83640  0.04610  Biso   1.000  O
  O36      1.0000 0.06710  0.16360  0.54610  Biso   1.000  O
  O37      1.0000 0.43290  0.66360  0.54610  Biso   1.000  O
  O38      1.0000 0.06710  0.33640  0.04610  Biso   1.000  O
  O39      1.0000 0.56710  0.16360  0.95390  Biso   1.000  O
  O40      1.0000 0.93290  0.83640  0.45390  Biso   1.000  O
  O41      1.0000 0.45490  0.26110  0.45230  Biso   1.000  O
  O42      1.0000 0.04510  0.73890  0.95230  Biso   1.000  O
  O43      1.0000 0.54510  0.76110  0.04770  Biso   1.000  O
  O44      1.0000 0.95490  0.23890  0.54770  Biso   1.000  O
  O45      1.0000 0.54510  0.73890  0.54770  Biso   1.000  O
  O46      1.0000 0.95490  0.26110  0.04770  Biso   1.000  O
  O47      1.0000 0.45490  0.23890  0.95230  Biso   1.000  O
  O48      1.0000 0.04510  0.76110  0.45230  Biso   1.000  O
  N9       1.0000 0.41050  0.45590  0.32680  Biso   1.000  N
  N10      1.0000 0.08950  0.54410  0.82680  Biso   1.000  N
  N11      1.0000 0.58950  0.95590  0.17320  Biso   1.000  N
  N12      1.0000 0.91050  0.04410  0.67320  Biso   1.000  N
  N13      1.0000 0.58950  0.54410  0.67320  Biso   1.000  N
  N14      1.0000 0.91050  0.45590  0.17320  Biso   1.000  N
  N15      1.0000 0.41050  0.04410  0.82680  Biso   1.000  N
  N16      1.0000 0.08950  0.95590  0.32680  Biso   1.000  N
  C1       1.0000 0.76660  0.12390  0.38210  Biso   1.000  C
  C2       1.0000 0.73340  0.87610  0.88210  Biso   1.000  C
  C3       1.0000 0.23340  0.62390  0.11790  Biso   1.000  C
  C4       1.0000 0.26660  0.37610  0.61790  Biso   1.000  C
  C5       1.0000 0.23340  0.87610  0.61790  Biso   1.000  C
  C6       1.0000 0.26660  0.12390  0.11790  Biso   1.000  C
  C7       1.0000 0.76660  0.37610  0.88210  Biso   1.000  C
  C8       1.0000 0.73340  0.62390  0.38210  Biso   1.000  C
  N17      1.0000 0.72460  0.21480  0.34290  Biso   1.000  N
  N18      1.0000 0.77540  0.78520  0.84290  Biso   1.000  N
  N19      1.0000 0.27540  0.71480  0.15710  Biso   1.000  N
  N20      1.0000 0.22460  0.28520  0.65710  Biso   1.000  N
  N21      1.0000 0.27540  0.78520  0.65710  Biso   1.000  N
  N22      1.0000 0.22460  0.21480  0.15710  Biso   1.000  N
  N23      1.0000 0.72460  0.28520  0.84290  Biso   1.000  N
  N24      1.0000 0.77540  0.71480  0.34290  Biso   1.000  N
  O49      1.0000 0.57410  0.39285  0.35142  Biso   1.000  O
  O50      1.0000 0.92590  0.60715  0.85142  Biso   1.000  O
  O51      1.0000 0.42590  0.89285  0.14858  Biso   1.000  O
  O52      1.0000 0.07410  0.10715  0.64858  Biso   1.000  O
  O53      1.0000 0.42590  0.60715  0.64858  Biso   1.000  O
  O54      1.0000 0.07410  0.39285  0.14858  Biso   1.000  O
  O55      1.0000 0.57410  0.10715  0.85142  Biso   1.000  O
  O56      1.0000 0.92590  0.89285  0.35142  Biso   1.000  O
  C9       1.0000 0.38230  0.22610  0.33240  Biso   1.000  C
  C10      1.0000 0.11770  0.77390  0.83240  Biso   1.000  C
  C11      1.0000 0.61770  0.72610  0.16760  Biso   1.000  C
  C12      1.0000 0.88230  0.27390  0.66760  Biso   1.000  C
  C13      1.0000 0.61770  0.77390  0.66760  Biso   1.000  C
  C14      1.0000 0.88230  0.22610  0.16760  Biso   1.000  C
  C15      1.0000 0.38230  0.27390  0.83240  Biso   1.000  C
  C16      1.0000 0.11770  0.72610  0.33240  Biso   1.000  C
  C17      1.0000 0.76390  0.16300  0.33670  Biso   1.000  C
  C18      1.0000 0.73610  0.83700  0.83670  Biso   1.000  C
  C19      1.0000 0.23610  0.66300  0.16330  Biso   1.000  C
  C20      1.0000 0.26390  0.33700  0.66330  Biso   1.000  C
  C21      1.0000 0.23610  0.83700  0.66330  Biso   1.000  C
  C22      1.0000 0.26390  0.16300  0.16330  Biso   1.000  C
  C23      1.0000 0.76390  0.33700  0.83670  Biso   1.000  C
  C24      1.0000 0.73610  0.66300  0.33670  Biso   1.000  C
  H1       1.0000 0.80680  0.17470  0.32850  Biso   1.000  H
  H2       1.0000 0.69320  0.82530  0.82850  Biso   1.000  H
  H3       1.0000 0.19320  0.67470  0.17150  Biso   1.000  H
  H4       1.0000 0.30680  0.32530  0.67150  Biso   1.000  H
  H5       1.0000 0.19320  0.82530  0.67150  Biso   1.000  H
  H6       1.0000 0.30680  0.17470  0.17150  Biso   1.000  H
  H7       1.0000 0.80680  0.32530  0.82850  Biso   1.000  H
  H8       1.0000 0.69320  0.67470  0.32850  Biso   1.000  H
  H9       1.0000 0.74770  0.14120  0.30890  Biso   1.000  H
  H10      1.0000 0.75230  0.85880  0.80890  Biso   1.000  H
  H11      1.0000 0.25230  0.64120  0.19110  Biso   1.000  H
  H12      1.0000 0.24770  0.35880  0.69110  Biso   1.000  H
  H13      1.0000 0.25230  0.85880  0.69110  Biso   1.000  H
  H14      1.0000 0.24770  0.14120  0.19110  Biso   1.000  H
  H15      1.0000 0.74770  0.35880  0.80890  Biso   1.000  H
  H16      1.0000 0.75230  0.64120  0.30890  Biso   1.000  H
  O57      1.0000 0.50760  0.30860  0.29020  Biso   1.000  O
  O58      1.0000 0.99240  0.69140  0.79020  Biso   1.000  O
  O59      1.0000 0.49240  0.80860  0.20980  Biso   1.000  O
  O60      1.0000 0.00760  0.19140  0.70980  Biso   1.000  O
  O61      1.0000 0.49240  0.69140  0.70980  Biso   1.000  O
  O62      1.0000 0.00760  0.30860  0.20980  Biso   1.000  O
  O63      1.0000 0.50760  0.19140  0.79020  Biso   1.000  O
  O64      1.0000 0.99240  0.80860  0.29020  Biso   1.000  O
  C25      1.0000 0.40730  0.49850  0.30530  Biso   1.000  C
  C26      1.0000 0.09270  0.50150  0.80530  Biso   1.000  C
  C27      1.0000 0.59270  0.99850  0.19470  Biso   1.000  C
  C28      1.0000 0.90730  0.00150  0.69470  Biso   1.000  C
  C29      1.0000 0.59270  0.50150  0.69470  Biso   1.000  C
  C30      1.0000 0.90730  0.49850  0.19470  Biso   1.000  C
  C31      1.0000 0.40730  0.00150  0.80530  Biso   1.000  C
  C32      1.0000 0.09270  0.99850  0.30530  Biso   1.000  C
  C33      1.0000 0.36170  0.28240  0.33950  Biso   1.000  C
  C34      1.0000 0.13830  0.71760  0.83950  Biso   1.000  C
  C35      1.0000 0.63830  0.78240  0.16050  Biso   1.000  C
  C36      1.0000 0.86170  0.21760  0.66050  Biso   1.000  C
  C37      1.0000 0.63830  0.71760  0.66050  Biso   1.000  C
  C38      1.0000 0.86170  0.28240  0.16050  Biso   1.000  C
  C39      1.0000 0.36170  0.21760  0.83950  Biso   1.000  C
  C40      1.0000 0.13830  0.78240  0.33950  Biso   1.000  C
  N25      1.0000 0.65480  0.13870  0.40900  Biso   1.000  N
  N26      1.0000 0.84520  0.86130  0.90900  Biso   1.000  N
  N27      1.0000 0.34520  0.63870  0.09100  Biso   1.000  N
  N28      1.0000 0.15480  0.36130  0.59100  Biso   1.000  N
  N29      1.0000 0.34520  0.86130  0.59100  Biso   1.000  N
  N30      1.0000 0.15480  0.13870  0.09100  Biso   1.000  N
  N31      1.0000 0.65480  0.36130  0.90900  Biso   1.000  N
  N32      1.0000 0.84520  0.63870  0.40900  Biso   1.000  N
  C41      1.0000 0.54150  0.19910  0.45240  Biso   1.000  C
  C42      1.0000 0.95850  0.80090  0.95240  Biso   1.000  C
  C43      1.0000 0.45850  0.69910  0.04760  Biso   1.000  C
  C44      1.0000 0.04150  0.30090  0.54760  Biso   1.000  C
  C45      1.0000 0.45850  0.80090  0.54760  Biso   1.000  C
  C46      1.0000 0.04150  0.19910  0.04760  Biso   1.000  C
  C47      1.0000 0.54150  0.30090  0.95240  Biso   1.000  C
  C48      1.0000 0.95850  0.69910  0.45240  Biso   1.000  C
  C49      1.0000 0.70300  0.09790  0.39140  Biso   1.000  C
  C50      1.0000 0.79700  0.90210  0.89140  Biso   1.000  C
  C51      1.0000 0.29700  0.59790  0.10860  Biso   1.000  C
  C52      1.0000 0.20300  0.40210  0.60860  Biso   1.000  C
  C53      1.0000 0.29700  0.90210  0.60860  Biso   1.000  C
  C54      1.0000 0.20300  0.09790  0.10860  Biso   1.000  C
  C55      1.0000 0.70300  0.40210  0.89140  Biso   1.000  C
  C56      1.0000 0.79700  0.59790  0.39140  Biso   1.000  C
  H17      1.0000 0.68800  0.08040  0.36080  Biso   1.000  H
  H18      1.0000 0.81200  0.91960  0.86080  Biso   1.000  H
  H19      1.0000 0.31200  0.58040  0.13920  Biso   1.000  H
  H20      1.0000 0.18800  0.41960  0.63920  Biso   1.000  H
  H21      1.0000 0.31200  0.91960  0.63920  Biso   1.000  H
  H22      1.0000 0.18800  0.08040  0.13920  Biso   1.000  H
  H23      1.0000 0.68800  0.41960  0.86080  Biso   1.000  H
  H24      1.0000 0.81200  0.58040  0.36080  Biso   1.000  H
  H25      1.0000 0.70750  0.06770  0.41580  Biso   1.000  H
  H26      1.0000 0.79250  0.93230  0.91580  Biso   1.000  H
  H27      1.0000 0.29250  0.56770  0.08420  Biso   1.000  H
  H28      1.0000 0.20750  0.43230  0.58420  Biso   1.000  H
  H29      1.0000 0.29250  0.93230  0.58420  Biso   1.000  H
  H30      1.0000 0.20750  0.06770  0.08420  Biso   1.000  H
  H31      1.0000 0.70750  0.43230  0.91580  Biso   1.000  H
  H32      1.0000 0.79250  0.56770  0.41580  Biso   1.000  H
  N33      1.0000 0.25810  0.55070  0.25560  Biso   1.000  N
  N34      1.0000 0.24190  0.44930  0.75560  Biso   1.000  N
  N35      1.0000 0.74190  0.05070  0.24440  Biso   1.000  N
  N36      1.0000 0.75810  0.94930  0.74440  Biso   1.000  N
  N37      1.0000 0.74190  0.44930  0.74440  Biso   1.000  N
  N38      1.0000 0.75810  0.55070  0.24440  Biso   1.000  N
  N39      1.0000 0.25810  0.94930  0.75560  Biso   1.000  N
  N40      1.0000 0.24190  0.05070  0.25560  Biso   1.000  N
  C57      1.0000 0.47890  0.39520  0.46500  Biso   1.000  C
  C58      1.0000 0.02110  0.60480  0.96500  Biso   1.000  C
  C59      1.0000 0.52110  0.89520  0.03500  Biso   1.000  C
  C60      1.0000 0.97890  0.10480  0.53500  Biso   1.000  C
  C61      1.0000 0.52110  0.60480  0.53500  Biso   1.000  C
  C62      1.0000 0.97890  0.39520  0.03500  Biso   1.000  C
  C63      1.0000 0.47890  0.10480  0.96500  Biso   1.000  C
  C64      1.0000 0.02110  0.89520  0.46500  Biso   1.000  C
  C65      1.0000 0.38460  0.61480  0.32320  Biso   1.000  C
  C66      1.0000 0.11540  0.38520  0.82320  Biso   1.000  C
  C67      1.0000 0.61540  0.11480  0.17680  Biso   1.000  C
  C68      1.0000 0.88460  0.88520  0.67680  Biso   1.000  C
  C69      1.0000 0.61540  0.38520  0.67680  Biso   1.000  C
  C70      1.0000 0.88460  0.61480  0.17680  Biso   1.000  C
  C71      1.0000 0.38460  0.88520  0.82320  Biso   1.000  C
  C72      1.0000 0.11540  0.11480  0.32320  Biso   1.000  C
  C73      1.0000 0.31540  0.50300  0.42050  Biso   1.000  C
  C74      1.0000 0.18460  0.49700  0.92050  Biso   1.000  C
  C75      1.0000 0.68460  0.00300  0.07950  Biso   1.000  C
  C76      1.0000 0.81540  0.99700  0.57950  Biso   1.000  C
  C77      1.0000 0.68460  0.49700  0.57950  Biso   1.000  C
  C78      1.0000 0.81540  0.50300  0.07950  Biso   1.000  C
  C79      1.0000 0.31540  0.99700  0.92050  Biso   1.000  C
  C80      1.0000 0.18460  0.00300  0.42050  Biso   1.000  C
  H33      1.0000 0.33230  0.52650  0.39390  Biso   1.000  H
  H34      1.0000 0.16770  0.47350  0.89390  Biso   1.000  H
  H35      1.0000 0.66770  0.02650  0.10610  Biso   1.000  H
  H36      1.0000 0.83230  0.97350  0.60610  Biso   1.000  H
  H37      1.0000 0.66770  0.47350  0.60610  Biso   1.000  H
  H38      1.0000 0.83230  0.52650  0.10610  Biso   1.000  H
  H39      1.0000 0.33230  0.97350  0.89390  Biso   1.000  H
  H40      1.0000 0.16770  0.02650  0.39390  Biso   1.000  H
  H41      1.0000 0.30930  0.52740  0.44920  Biso   1.000  H
  H42      1.0000 0.19070  0.47260  0.94920  Biso   1.000  H
  H43      1.0000 0.69070  0.02740  0.05080  Biso   1.000  H
  H44      1.0000 0.80930  0.97260  0.55080  Biso   1.000  H
  H45      1.0000 0.69070  0.47260  0.55080  Biso   1.000  H
  H46      1.0000 0.80930  0.52740  0.05080  Biso   1.000  H
  H47      1.0000 0.30930  0.97260  0.94920  Biso   1.000  H
  H48      1.0000 0.19070  0.02740  0.44920  Biso   1.000  H
  C81      1.0000 0.28050  0.19900  0.29970  Biso   1.000  C
  C82      1.0000 0.21950  0.80100  0.79970  Biso   1.000  C
  C83      1.0000 0.71950  0.69900  0.20030  Biso   1.000  C
  C84      1.0000 0.78050  0.30100  0.70030  Biso   1.000  C
  C85      1.0000 0.71950  0.80100  0.70030  Biso   1.000  C
  C86      1.0000 0.78050  0.19900  0.20030  Biso   1.000  C
  C87      1.0000 0.28050  0.30100  0.79970  Biso   1.000  C
  C88      1.0000 0.21950  0.69900  0.29970  Biso   1.000  C
  H49      1.0000 0.25370  0.17150  0.28610  Biso   1.000  H
  H50      1.0000 0.24630  0.82850  0.78610  Biso   1.000  H
  H51      1.0000 0.74630  0.67150  0.21390  Biso   1.000  H
  H52      1.0000 0.75370  0.32850  0.71390  Biso   1.000  H
  H53      1.0000 0.74630  0.82850  0.71390  Biso   1.000  H
  H54      1.0000 0.75370  0.17150  0.21390  Biso   1.000  H
  H55      1.0000 0.25370  0.32850  0.78610  Biso   1.000  H
  H56      1.0000 0.24630  0.67150  0.28610  Biso   1.000  H
  C89      1.0000 0.27020  0.35280  0.33460  Biso   1.000  C
  C90      1.0000 0.22980  0.64720  0.83460  Biso   1.000  C
  C91      1.0000 0.72980  0.85280  0.16540  Biso   1.000  C
  C92      1.0000 0.77020  0.14720  0.66540  Biso   1.000  C
  C93      1.0000 0.72980  0.64720  0.66540  Biso   1.000  C
  C94      1.0000 0.77020  0.35280  0.16540  Biso   1.000  C
  C95      1.0000 0.27020  0.14720  0.83460  Biso   1.000  C
  C96      1.0000 0.22980  0.85280  0.33460  Biso   1.000  C
  H57      1.0000 0.23020  0.35840  0.32100  Biso   1.000  H
  H58      1.0000 0.26980  0.64160  0.82100  Biso   1.000  H
  H59      1.0000 0.76980  0.85840  0.17900  Biso   1.000  H
  H60      1.0000 0.73020  0.14160  0.67900  Biso   1.000  H
  H61      1.0000 0.76980  0.64160  0.67900  Biso   1.000  H
  H62      1.0000 0.73020  0.35840  0.17900  Biso   1.000  H
  H63      1.0000 0.23020  0.14160  0.82100  Biso   1.000  H
  H64      1.0000 0.26980  0.85840  0.32100  Biso   1.000  H
  C97      1.0000 0.81200  0.07490  0.36790  Biso   1.000  C
  C98      1.0000 0.68800  0.92510  0.86790  Biso   1.000  C
  C99      1.0000 0.18800  0.57490  0.13210  Biso   1.000  C
  C100     1.0000 0.31200  0.42510  0.63210  Biso   1.000  C
  C101     1.0000 0.18800  0.92510  0.63210  Biso   1.000  C
  C102     1.0000 0.31200  0.07490  0.13210  Biso   1.000  C
  C103     1.0000 0.81200  0.42510  0.86790  Biso   1.000  C
  C104     1.0000 0.68800  0.57490  0.36790  Biso   1.000  C
  H65      1.0000 0.79580  0.05530  0.33930  Biso   1.000  H
  H66      1.0000 0.70420  0.94470  0.83930  Biso   1.000  H
  H67      1.0000 0.20420  0.55530  0.16070  Biso   1.000  H
  H68      1.0000 0.29580  0.44470  0.66070  Biso   1.000  H
  H69      1.0000 0.20420  0.94470  0.66070  Biso   1.000  H
  H70      1.0000 0.29580  0.05530  0.16070  Biso   1.000  H
  H71      1.0000 0.79580  0.44470  0.83930  Biso   1.000  H
  H72      1.0000 0.70420  0.55530  0.33930  Biso   1.000  H
  H73      1.0000 0.81530  0.04860  0.39510  Biso   1.000  H
  H74      1.0000 0.68470  0.95140  0.89510  Biso   1.000  H
  H75      1.0000 0.18470  0.54860  0.10490  Biso   1.000  H
  H76      1.0000 0.31530  0.45140  0.60490  Biso   1.000  H
  H77      1.0000 0.18470  0.95140  0.60490  Biso   1.000  H
  H78      1.0000 0.31530  0.04860  0.10490  Biso   1.000  H
  H79      1.0000 0.81530  0.45140  0.89510  Biso   1.000  H
  H80      1.0000 0.68470  0.54860  0.39510  Biso   1.000  H
  H81      1.0000 0.85310  0.09030  0.36050  Biso   1.000  H
  H82      1.0000 0.64690  0.90970  0.86050  Biso   1.000  H
  H83      1.0000 0.14690  0.59030  0.13950  Biso   1.000  H
  H84      1.0000 0.35310  0.40970  0.63950  Biso   1.000  H
  H85      1.0000 0.14690  0.90970  0.63950  Biso   1.000  H
  H86      1.0000 0.35310  0.09030  0.13950  Biso   1.000  H
  H87      1.0000 0.85310  0.40970  0.86050  Biso   1.000  H
  H88      1.0000 0.64690  0.59030  0.36050  Biso   1.000  H
  C105     1.0000 0.48750  0.21920  0.47760  Biso   1.000  C
  C106     1.0000 0.01250  0.78080  0.97760  Biso   1.000  C
  C107     1.0000 0.51250  0.71920  0.02240  Biso   1.000  C
  C108     1.0000 0.98750  0.28080  0.52240  Biso   1.000  C
  C109     1.0000 0.51250  0.78080  0.52240  Biso   1.000  C
  C110     1.0000 0.98750  0.21920  0.02240  Biso   1.000  C
  C111     1.0000 0.48750  0.28080  0.97760  Biso   1.000  C
  C112     1.0000 0.01250  0.71920  0.47760  Biso   1.000  C
  C113     1.0000 0.25130  0.47950  0.40440  Biso   1.000  C
  C114     1.0000 0.24870  0.52050  0.90440  Biso   1.000  C
  C115     1.0000 0.74870  0.97950  0.09560  Biso   1.000  C
  C116     1.0000 0.75130  0.02050  0.59560  Biso   1.000  C
  C117     1.0000 0.74870  0.52050  0.59560  Biso   1.000  C
  C118     1.0000 0.75130  0.47950  0.09560  Biso   1.000  C
  C119     1.0000 0.25130  0.02050  0.90440  Biso   1.000  C
  C120     1.0000 0.24870  0.97950  0.40440  Biso   1.000  C
  C121     1.0000 0.44310  0.43260  0.49410  Biso   1.000  C
  C122     1.0000 0.05690  0.56740  0.99410  Biso   1.000  C
  C123     1.0000 0.55690  0.93260  0.00590  Biso   1.000  C
  C124     1.0000 0.94310  0.06740  0.50590  Biso   1.000  C
  C125     1.0000 0.55690  0.56740  0.50590  Biso   1.000  C
  C126     1.0000 0.94310  0.43260  0.00590  Biso   1.000  C
  C127     1.0000 0.44310  0.06740  0.99410  Biso   1.000  C
  C128     1.0000 0.05690  0.93260  0.49410  Biso   1.000  C
  C129     1.0000 0.79130  0.15480  0.42750  Biso   1.000  C
  C130     1.0000 0.70870  0.84520  0.92750  Biso   1.000  C
  C131     1.0000 0.20870  0.65480  0.07250  Biso   1.000  C
  C132     1.0000 0.29130  0.34520  0.57250  Biso   1.000  C
  C133     1.0000 0.20870  0.84520  0.57250  Biso   1.000  C
  C134     1.0000 0.29130  0.15480  0.07250  Biso   1.000  C
  C135     1.0000 0.79130  0.34520  0.92750  Biso   1.000  C
  C136     1.0000 0.70870  0.65480  0.42750  Biso   1.000  C
  H89      1.0000 0.76270  0.18520  0.43610  Biso   1.000  H
  H90      1.0000 0.73730  0.81480  0.93610  Biso   1.000  H
  H91      1.0000 0.23730  0.68520  0.06390  Biso   1.000  H
  H92      1.0000 0.26270  0.31480  0.56390  Biso   1.000  H
  H93      1.0000 0.23730  0.81480  0.56390  Biso   1.000  H
  H94      1.0000 0.26270  0.18520  0.06390  Biso   1.000  H
  H95      1.0000 0.76270  0.31480  0.93610  Biso   1.000  H
  H96      1.0000 0.73730  0.68520  0.43610  Biso   1.000  H
  H97      1.0000 0.83240  0.17040  0.42050  Biso   1.000  H
  H98      1.0000 0.66760  0.82960  0.92050  Biso   1.000  H
  H99      1.0000 0.16760  0.67040  0.07950  Biso   1.000  H
  H100     1.0000 0.33240  0.32960  0.57950  Biso   1.000  H
  H101     1.0000 0.16760  0.82960  0.57950  Biso   1.000  H
  H102     1.0000 0.33240  0.17040  0.07950  Biso   1.000  H
  H103     1.0000 0.83240  0.32960  0.92050  Biso   1.000  H
  H104     1.0000 0.66760  0.67040  0.42050  Biso   1.000  H
  H105     1.0000 0.79430  0.12850  0.45470  Biso   1.000  H
  H106     1.0000 0.70570  0.87150  0.95470  Biso   1.000  H
  H107     1.0000 0.20570  0.62850  0.04530  Biso   1.000  H
  H108     1.0000 0.29430  0.37150  0.54530  Biso   1.000  H
  H109     1.0000 0.20570  0.87150  0.54530  Biso   1.000  H
  H110     1.0000 0.29430  0.12850  0.04530  Biso   1.000  H
  H111     1.0000 0.79430  0.37150  0.95470  Biso   1.000  H
  H112     1.0000 0.70570  0.62850  0.45470  Biso   1.000  H
  C137     1.0000 0.34180  0.18490  0.31200  Biso   1.000  C
  C138     1.0000 0.15820  0.81510  0.81200  Biso   1.000  C
  C139     1.0000 0.65820  0.68490  0.18800  Biso   1.000  C
  C140     1.0000 0.84180  0.31510  0.68800  Biso   1.000  C
  C141     1.0000 0.65820  0.81510  0.68800  Biso   1.000  C
  C142     1.0000 0.84180  0.18490  0.18800  Biso   1.000  C
  C143     1.0000 0.34180  0.31510  0.81200  Biso   1.000  C
  C144     1.0000 0.15820  0.68490  0.31200  Biso   1.000  C
  H113     1.0000 0.35650  0.14790  0.30680  Biso   1.000  H
  H114     1.0000 0.14350  0.85210  0.80680  Biso   1.000  H
  H115     1.0000 0.64350  0.64790  0.19320  Biso   1.000  H
  H116     1.0000 0.85650  0.35210  0.69320  Biso   1.000  H
  H117     1.0000 0.64350  0.85210  0.69320  Biso   1.000  H
  H118     1.0000 0.85650  0.14790  0.19320  Biso   1.000  H
  H119     1.0000 0.35650  0.35210  0.80680  Biso   1.000  H
  H120     1.0000 0.14350  0.64790  0.30680  Biso   1.000  H
  C145     1.0000 0.22270  0.44050  0.44510  Biso   1.000  C
  C146     1.0000 0.27730  0.55950  0.94510  Biso   1.000  C
  C147     1.0000 0.77730  0.94050  0.05490  Biso   1.000  C
  C148     1.0000 0.72270  0.05950  0.55490  Biso   1.000  C
  C149     1.0000 0.77730  0.55950  0.55490  Biso   1.000  C
  C150     1.0000 0.72270  0.44050  0.05490  Biso   1.000  C
  C151     1.0000 0.22270  0.05950  0.94510  Biso   1.000  C
  C152     1.0000 0.27730  0.94050  0.44510  Biso   1.000  C
  H121     1.0000 0.24980  0.40800  0.45010  Biso   1.000  H
  H122     1.0000 0.25020  0.59200  0.95010  Biso   1.000  H
  H123     1.0000 0.75020  0.90800  0.04990  Biso   1.000  H
  H124     1.0000 0.74980  0.09200  0.54990  Biso   1.000  H
  H125     1.0000 0.75020  0.59200  0.54990  Biso   1.000  H
  H126     1.0000 0.74980  0.40800  0.04990  Biso   1.000  H
  H127     1.0000 0.24980  0.09200  0.95010  Biso   1.000  H
  H128     1.0000 0.25020  0.90800  0.45010  Biso   1.000  H
  H129     1.0000 0.18140  0.42770  0.43490  Biso   1.000  H
  H130     1.0000 0.31860  0.57230  0.93490  Biso   1.000  H
  H131     1.0000 0.81860  0.92770  0.06510  Biso   1.000  H
  H132     1.0000 0.68140  0.07230  0.56510  Biso   1.000  H
  H133     1.0000 0.81860  0.57230  0.56510  Biso   1.000  H
  H134     1.0000 0.68140  0.42770  0.06510  Biso   1.000  H
  H135     1.0000 0.18140  0.07230  0.93490  Biso   1.000  H
  H136     1.0000 0.31860  0.92770  0.43490  Biso   1.000  H
  H137     1.0000 0.21920  0.46160  0.47560  Biso   1.000  H
  H138     1.0000 0.28080  0.53840  0.97560  Biso   1.000  H
  H139     1.0000 0.78080  0.96160  0.02440  Biso   1.000  H
  H140     1.0000 0.71920  0.03840  0.52440  Biso   1.000  H
  H141     1.0000 0.78080  0.53840  0.52440  Biso   1.000  H
  H142     1.0000 0.71920  0.46160  0.02440  Biso   1.000  H
  H143     1.0000 0.21920  0.03840  0.97560  Biso   1.000  H
  H144     1.0000 0.28080  0.96160  0.47560  Biso   1.000  H
  C153     1.0000 0.71660  0.31520  0.31830  Biso   1.000  C
  C154     1.0000 0.78340  0.68480  0.81830  Biso   1.000  C
  C155     1.0000 0.28340  0.81520  0.18170  Biso   1.000  C
  C156     1.0000 0.21660  0.18480  0.68170  Biso   1.000  C
  C157     1.0000 0.28340  0.68480  0.68170  Biso   1.000  C
  C158     1.0000 0.21660  0.31520  0.18170  Biso   1.000  C
  C159     1.0000 0.71660  0.18480  0.81830  Biso   1.000  C
  C160     1.0000 0.78340  0.81520  0.31830  Biso   1.000  C
  C161     1.0000 0.75250  0.35860  0.29560  Biso   1.000  C
  C162     1.0000 0.74750  0.64140  0.79560  Biso   1.000  C
  C163     1.0000 0.24750  0.85860  0.20440  Biso   1.000  C
  C164     1.0000 0.25250  0.14140  0.70440  Biso   1.000  C
  C165     1.0000 0.24750  0.64140  0.70440  Biso   1.000  C
  C166     1.0000 0.25250  0.35860  0.20440  Biso   1.000  C
  C167     1.0000 0.75250  0.14140  0.79560  Biso   1.000  C
  C168     1.0000 0.74750  0.85860  0.29560  Biso   1.000  C
  H145     1.0000 0.79340  0.35060  0.28460  Biso   1.000  H
  H146     1.0000 0.70660  0.64940  0.78460  Biso   1.000  H
  H147     1.0000 0.20660  0.85060  0.21540  Biso   1.000  H
  H148     1.0000 0.29340  0.14940  0.71540  Biso   1.000  H
  H149     1.0000 0.20660  0.64940  0.71540  Biso   1.000  H
  H150     1.0000 0.29340  0.35060  0.21540  Biso   1.000  H
  H151     1.0000 0.79340  0.14940  0.78460  Biso   1.000  H
  H152     1.0000 0.70660  0.85060  0.28460  Biso   1.000  H
  C169     1.0000 0.66930  0.42410  0.30730  Biso   1.000  C
  C170     1.0000 0.83070  0.57590  0.80730  Biso   1.000  C
  C171     1.0000 0.33070  0.92410  0.19270  Biso   1.000  C
  C172     1.0000 0.16930  0.07590  0.69270  Biso   1.000  C
  C173     1.0000 0.33070  0.57590  0.69270  Biso   1.000  C
  C174     1.0000 0.16930  0.42410  0.19270  Biso   1.000  C
  C175     1.0000 0.66930  0.07590  0.80730  Biso   1.000  C
  C176     1.0000 0.83070  0.92410  0.30730  Biso   1.000  C
  H153     1.0000 0.65350  0.46100  0.30340  Biso   1.000  H
  H154     1.0000 0.84650  0.53900  0.80340  Biso   1.000  H
  H155     1.0000 0.34650  0.96100  0.19660  Biso   1.000  H
  H156     1.0000 0.15350  0.03900  0.69660  Biso   1.000  H
  H157     1.0000 0.34650  0.53900  0.69660  Biso   1.000  H
  H158     1.0000 0.15350  0.46100  0.19660  Biso   1.000  H
  H159     1.0000 0.65350  0.03900  0.80340  Biso   1.000  H
  H160     1.0000 0.84650  0.96100  0.30340  Biso   1.000  H
  C177     1.0000 0.46120  0.44280  0.54340  Biso   1.000  C
  C178     1.0000 0.03880  0.55720  0.04340  Biso   1.000  C
  C179     1.0000 0.53880  0.94280  0.95660  Biso   1.000  C
  C180     1.0000 0.96120  0.05720  0.45660  Biso   1.000  C
  C181     1.0000 0.53880  0.55720  0.45660  Biso   1.000  C
  C182     1.0000 0.96120  0.44280  0.95660  Biso   1.000  C
  C183     1.0000 0.46120  0.05720  0.04340  Biso   1.000  C
  C184     1.0000 0.03880  0.94280  0.54340  Biso   1.000  C
  H161     1.0000 0.43680  0.46730  0.56280  Biso   1.000  H
  H162     1.0000 0.06320  0.53270  0.06280  Biso   1.000  H
  H163     1.0000 0.56320  0.96730  0.93720  Biso   1.000  H
  H164     1.0000 0.93680  0.03270  0.43720  Biso   1.000  H
  H165     1.0000 0.56320  0.53270  0.43720  Biso   1.000  H
  H166     1.0000 0.93680  0.46730  0.93720  Biso   1.000  H
  H167     1.0000 0.43680  0.03270  0.06280  Biso   1.000  H
  H168     1.0000 0.06320  0.96730  0.56280  Biso   1.000  H
  C185     1.0000 0.65590  0.32720  0.33520  Biso   1.000  C
  C186     1.0000 0.84410  0.67280  0.83520  Biso   1.000  C
  C187     1.0000 0.34410  0.82720  0.16480  Biso   1.000  C
  C188     1.0000 0.15590  0.17280  0.66480  Biso   1.000  C
  C189     1.0000 0.34410  0.67280  0.66480  Biso   1.000  C
  C190     1.0000 0.15590  0.32720  0.16480  Biso   1.000  C
  C191     1.0000 0.65590  0.17280  0.83520  Biso   1.000  C
  C192     1.0000 0.84410  0.82720  0.33520  Biso   1.000  C
  N41      1.0000 0.37370  0.64370  0.35640  Biso   1.000  N
  N42      1.0000 0.12630  0.35630  0.85640  Biso   1.000  N
  N43      1.0000 0.62630  0.14370  0.14360  Biso   1.000  N
  N44      1.0000 0.87370  0.85630  0.64360  Biso   1.000  N
  N45      1.0000 0.62630  0.35630  0.64360  Biso   1.000  N
  N46      1.0000 0.87370  0.64370  0.14360  Biso   1.000  N
  N47      1.0000 0.37370  0.85630  0.85640  Biso   1.000  N
  N48      1.0000 0.12630  0.14370  0.35640  Biso   1.000  N
  C193     1.0000 0.63290  0.38380  0.33070  Biso   1.000  C
  C194     1.0000 0.86710  0.61620  0.83070  Biso   1.000  C
  C195     1.0000 0.36710  0.88380  0.16930  Biso   1.000  C
  C196     1.0000 0.13290  0.11620  0.66930  Biso   1.000  C
  C197     1.0000 0.36710  0.61620  0.66930  Biso   1.000  C
  C198     1.0000 0.13290  0.38380  0.16930  Biso   1.000  C
  C199     1.0000 0.63290  0.11620  0.83070  Biso   1.000  C
  C200     1.0000 0.86710  0.88380  0.33070  Biso   1.000  C
  C201     1.0000 0.39890  0.63330  0.22440  Biso   1.000  C
  C202     1.0000 0.10110  0.36670  0.72440  Biso   1.000  C
  C203     1.0000 0.60110  0.13330  0.27560  Biso   1.000  C
  C204     1.0000 0.89890  0.86670  0.77560  Biso   1.000  C
  C205     1.0000 0.60110  0.36670  0.77560  Biso   1.000  C
  C206     1.0000 0.89890  0.63330  0.27560  Biso   1.000  C
  C207     1.0000 0.39890  0.86670  0.72440  Biso   1.000  C
  C208     1.0000 0.10110  0.13330  0.22440  Biso   1.000  C
  C209     1.0000 0.62690  0.12530  0.44980  Biso   1.000  C
  C210     1.0000 0.87310  0.87470  0.94980  Biso   1.000  C
  C211     1.0000 0.37310  0.62530  0.05020  Biso   1.000  C
  C212     1.0000 0.12690  0.37470  0.55020  Biso   1.000  C
  C213     1.0000 0.37310  0.87470  0.55020  Biso   1.000  C
  C214     1.0000 0.12690  0.12530  0.05020  Biso   1.000  C
  C215     1.0000 0.62690  0.37470  0.94980  Biso   1.000  C
  C216     1.0000 0.87310  0.62530  0.44980  Biso   1.000  C
  H169     1.0000 0.64230  0.09290  0.46580  Biso   1.000  H
  H170     1.0000 0.85770  0.90710  0.96580  Biso   1.000  H
  H171     1.0000 0.35770  0.59290  0.03420  Biso   1.000  H
  H172     1.0000 0.14230  0.40710  0.53420  Biso   1.000  H
  H173     1.0000 0.35770  0.90710  0.53420  Biso   1.000  H
  H174     1.0000 0.14230  0.09290  0.03420  Biso   1.000  H
  H175     1.0000 0.64230  0.40710  0.96580  Biso   1.000  H
  H176     1.0000 0.85770  0.59290  0.46580  Biso   1.000  H
  C217     1.0000 0.29780  0.29640  0.32810  Biso   1.000  C
  C218     1.0000 0.20220  0.70360  0.82810  Biso   1.000  C
  C219     1.0000 0.70220  0.79640  0.17190  Biso   1.000  C
  C220     1.0000 0.79780  0.20360  0.67190  Biso   1.000  C
  C221     1.0000 0.70220  0.70360  0.67190  Biso   1.000  C
  C222     1.0000 0.79780  0.29640  0.17190  Biso   1.000  C
  C223     1.0000 0.29780  0.20360  0.82810  Biso   1.000  C
  C224     1.0000 0.20220  0.79640  0.32810  Biso   1.000  C
  C225     1.0000 0.39370  0.27640  0.47170  Biso   1.000  C
  C226     1.0000 0.10630  0.72360  0.97170  Biso   1.000  C
  C227     1.0000 0.60630  0.77640  0.02830  Biso   1.000  C
  C228     1.0000 0.89370  0.22360  0.52830  Biso   1.000  C
  C229     1.0000 0.60630  0.72360  0.52830  Biso   1.000  C
  C230     1.0000 0.89370  0.27640  0.02830  Biso   1.000  C
  C231     1.0000 0.39370  0.22360  0.97170  Biso   1.000  C
  C232     1.0000 0.10630  0.77640  0.47170  Biso   1.000  C
  H177     1.0000 0.36850  0.24250  0.47570  Biso   1.000  H
  H178     1.0000 0.13150  0.75750  0.97570  Biso   1.000  H
  H179     1.0000 0.63150  0.74250  0.02430  Biso   1.000  H
  H180     1.0000 0.86850  0.25750  0.52430  Biso   1.000  H
  H181     1.0000 0.63150  0.75750  0.52430  Biso   1.000  H
  H182     1.0000 0.86850  0.24250  0.02430  Biso   1.000  H
  H183     1.0000 0.36850  0.25750  0.97570  Biso   1.000  H
  H184     1.0000 0.13150  0.74250  0.47570  Biso   1.000  H
  H185     1.0000 0.37300  0.30190  0.44900  Biso   1.000  H
  H186     1.0000 0.12700  0.69810  0.94900  Biso   1.000  H
  H187     1.0000 0.62700  0.80190  0.05100  Biso   1.000  H
  H188     1.0000 0.87300  0.19810  0.55100  Biso   1.000  H
  H189     1.0000 0.62700  0.69810  0.55100  Biso   1.000  H
  H190     1.0000 0.87300  0.30190  0.05100  Biso   1.000  H
  H191     1.0000 0.37300  0.19810  0.94900  Biso   1.000  H
  H192     1.0000 0.12700  0.80190  0.44900  Biso   1.000  H
  H193     1.0000 0.39880  0.29490  0.50320  Biso   1.000  H
  H194     1.0000 0.10120  0.70510  0.00320  Biso   1.000  H
  H195     1.0000 0.60120  0.79490  0.99680  Biso   1.000  H
  H196     1.0000 0.89880  0.20510  0.49680  Biso   1.000  H
  H197     1.0000 0.60120  0.70510  0.49680  Biso   1.000  H
  H198     1.0000 0.89880  0.29490  0.99680  Biso   1.000  H
  H199     1.0000 0.39880  0.20510  0.00320  Biso   1.000  H
  H200     1.0000 0.10120  0.79490  0.50320  Biso   1.000  H
  C233     1.0000 0.74520  0.25950  0.32300  Biso   1.000  C
  C234     1.0000 0.75480  0.74050  0.82300  Biso   1.000  C
  C235     1.0000 0.25480  0.75950  0.17700  Biso   1.000  C
  C236     1.0000 0.24520  0.24050  0.67700  Biso   1.000  C
  C237     1.0000 0.25480  0.74050  0.67700  Biso   1.000  C
  C238     1.0000 0.24520  0.25950  0.17700  Biso   1.000  C
  C239     1.0000 0.74520  0.24050  0.82300  Biso   1.000  C
  C240     1.0000 0.75480  0.75950  0.32300  Biso   1.000  C
  H201     1.0000 0.78540  0.25620  0.30910  Biso   1.000  H
  H202     1.0000 0.71460  0.74380  0.80910  Biso   1.000  H
  H203     1.0000 0.21460  0.75620  0.19090  Biso   1.000  H
  H204     1.0000 0.28540  0.24380  0.69090  Biso   1.000  H
  H205     1.0000 0.21460  0.74380  0.69090  Biso   1.000  H
  H206     1.0000 0.28540  0.25620  0.19090  Biso   1.000  H
  H207     1.0000 0.78540  0.24380  0.80910  Biso   1.000  H
  H208     1.0000 0.71460  0.75620  0.30910  Biso   1.000  H
  C241     1.0000 0.46890  0.19860  0.52360  Biso   1.000  C
  C242     1.0000 0.03110  0.80140  0.02360  Biso   1.000  C
  C243     1.0000 0.53110  0.69860  0.97640  Biso   1.000  C
  C244     1.0000 0.96890  0.30140  0.47640  Biso   1.000  C
  C245     1.0000 0.53110  0.80140  0.47640  Biso   1.000  C
  C246     1.0000 0.96890  0.19860  0.97640  Biso   1.000  C
  C247     1.0000 0.46890  0.30140  0.02360  Biso   1.000  C
  C248     1.0000 0.03110  0.69860  0.52360  Biso   1.000  C
  H209     1.0000 0.43360  0.21380  0.53960  Biso   1.000  H
  H210     1.0000 0.06640  0.78620  0.03960  Biso   1.000  H
  H211     1.0000 0.56640  0.71380  0.96040  Biso   1.000  H
  H212     1.0000 0.93360  0.28620  0.46040  Biso   1.000  H
  H213     1.0000 0.56640  0.78620  0.46040  Biso   1.000  H
  H214     1.0000 0.93360  0.21380  0.96040  Biso   1.000  H
  H215     1.0000 0.43360  0.28620  0.03960  Biso   1.000  H
  H216     1.0000 0.06640  0.71380  0.53960  Biso   1.000  H
  C249     1.0000 0.25890  0.25310  0.30720  Biso   1.000  C
  C250     1.0000 0.24110  0.74690  0.80720  Biso   1.000  C
  C251     1.0000 0.74110  0.75310  0.19280  Biso   1.000  C
  C252     1.0000 0.75890  0.24690  0.69280  Biso   1.000  C
  C253     1.0000 0.74110  0.74690  0.69280  Biso   1.000  C
  C254     1.0000 0.75890  0.25310  0.19280  Biso   1.000  C
  C255     1.0000 0.25890  0.24690  0.80720  Biso   1.000  C
  C256     1.0000 0.24110  0.75310  0.30720  Biso   1.000  C
  H217     1.0000 0.21740  0.26200  0.29840  Biso   1.000  H
  H218     1.0000 0.28260  0.73800  0.79840  Biso   1.000  H
  H219     1.0000 0.78260  0.76200  0.20160  Biso   1.000  H
  H220     1.0000 0.71740  0.23800  0.70160  Biso   1.000  H
  H221     1.0000 0.78260  0.73800  0.70160  Biso   1.000  H
  H222     1.0000 0.71740  0.26200  0.20160  Biso   1.000  H
  H223     1.0000 0.21740  0.23800  0.79840  Biso   1.000  H
  H224     1.0000 0.28260  0.76200  0.29840  Biso   1.000  H
  C257     1.0000 0.39010  0.46410  0.47480  Biso   1.000  C
  C258     1.0000 0.10990  0.53590  0.97480  Biso   1.000  C
  C259     1.0000 0.60990  0.96410  0.02520  Biso   1.000  C
  C260     1.0000 0.89010  0.03590  0.52520  Biso   1.000  C
  C261     1.0000 0.60990  0.53590  0.52520  Biso   1.000  C
  C262     1.0000 0.89010  0.46410  0.02520  Biso   1.000  C
  C263     1.0000 0.39010  0.03590  0.97480  Biso   1.000  C
  C264     1.0000 0.10990  0.96410  0.47480  Biso   1.000  C
  H225     1.0000 0.37390  0.49220  0.49570  Biso   1.000  H
  H226     1.0000 0.12610  0.50780  0.99570  Biso   1.000  H
  H227     1.0000 0.62610  0.99220  0.00430  Biso   1.000  H
  H228     1.0000 0.87390  0.00780  0.50430  Biso   1.000  H
  H229     1.0000 0.62610  0.50780  0.50430  Biso   1.000  H
  H230     1.0000 0.87390  0.49220  0.00430  Biso   1.000  H
  H231     1.0000 0.37390  0.00780  0.99570  Biso   1.000  H
  H232     1.0000 0.12610  0.99220  0.49570  Biso   1.000  H
  C265     1.0000 0.54970  0.38110  0.53510  Biso   1.000  C
  C266     1.0000 0.95030  0.61890  0.03510  Biso   1.000  C
  C267     1.0000 0.45030  0.88110  0.96490  Biso   1.000  C
  C268     1.0000 0.04970  0.11890  0.46490  Biso   1.000  C
  C269     1.0000 0.45030  0.61890  0.46490  Biso   1.000  C
  C270     1.0000 0.04970  0.38110  0.96490  Biso   1.000  C
  C271     1.0000 0.54970  0.11890  0.03510  Biso   1.000  C
  C272     1.0000 0.95030  0.88110  0.53510  Biso   1.000  C
  H233     1.0000 0.58520  0.36330  0.54860  Biso   1.000  H
  H234     1.0000 0.91480  0.63670  0.04860  Biso   1.000  H
  H235     1.0000 0.41480  0.86330  0.95140  Biso   1.000  H
  H236     1.0000 0.08520  0.13670  0.45140  Biso   1.000  H
  H237     1.0000 0.41480  0.63670  0.45140  Biso   1.000  H
  H238     1.0000 0.08520  0.36330  0.95140  Biso   1.000  H
  H239     1.0000 0.58520  0.13670  0.04860  Biso   1.000  H
  H240     1.0000 0.91480  0.86330  0.54860  Biso   1.000  H
  C273     1.0000 0.62960  0.31980  0.47070  Biso   1.000  C
  C274     1.0000 0.87040  0.68020  0.97070  Biso   1.000  C
  C275     1.0000 0.37040  0.81980  0.02930  Biso   1.000  C
  C276     1.0000 0.12960  0.18020  0.52930  Biso   1.000  C
  C277     1.0000 0.37040  0.68020  0.52930  Biso   1.000  C
  C278     1.0000 0.12960  0.31980  0.02930  Biso   1.000  C
  C279     1.0000 0.62960  0.18020  0.97070  Biso   1.000  C
  C280     1.0000 0.87040  0.81980  0.47070  Biso   1.000  C
  H241     1.0000 0.65240  0.35300  0.48170  Biso   1.000  H
  H242     1.0000 0.84760  0.64700  0.98170  Biso   1.000  H
  H243     1.0000 0.34760  0.85300  0.01830  Biso   1.000  H
  H244     1.0000 0.15240  0.14700  0.51830  Biso   1.000  H
  H245     1.0000 0.34760  0.64700  0.51830  Biso   1.000  H
  H246     1.0000 0.15240  0.35300  0.01830  Biso   1.000  H
  H247     1.0000 0.65240  0.14700  0.98170  Biso   1.000  H
  H248     1.0000 0.84760  0.85300  0.48170  Biso   1.000  H
  H249     1.0000 0.65220  0.30200  0.44380  Biso   1.000  H
  H250     1.0000 0.84780  0.69800  0.94380  Biso   1.000  H
  H251     1.0000 0.34780  0.80200  0.05620  Biso   1.000  H
  H252     1.0000 0.15220  0.19800  0.55620  Biso   1.000  H
  H253     1.0000 0.34780  0.69800  0.55620  Biso   1.000  H
  H254     1.0000 0.15220  0.30200  0.05620  Biso   1.000  H
  H255     1.0000 0.65220  0.19800  0.94380  Biso   1.000  H
  H256     1.0000 0.84780  0.80200  0.44380  Biso   1.000  H
  H257     1.0000 0.62570  0.29320  0.49770  Biso   1.000  H
  H258     1.0000 0.87430  0.70680  0.99770  Biso   1.000  H
  H259     1.0000 0.37430  0.79320  0.00230  Biso   1.000  H
  H260     1.0000 0.12570  0.20680  0.50230  Biso   1.000  H
  H261     1.0000 0.37430  0.70680  0.50230  Biso   1.000  H
  H262     1.0000 0.12570  0.29320  0.00230  Biso   1.000  H
  H263     1.0000 0.62570  0.20680  0.99770  Biso   1.000  H
  H264     1.0000 0.87430  0.79320  0.49770  Biso   1.000  H
  C281     1.0000 0.31210  0.55680  0.25880  Biso   1.000  C
  C282     1.0000 0.18790  0.44320  0.75880  Biso   1.000  C
  C283     1.0000 0.68790  0.05680  0.24120  Biso   1.000  C
  C284     1.0000 0.81210  0.94320  0.74120  Biso   1.000  C
  C285     1.0000 0.68790  0.44320  0.74120  Biso   1.000  C
  C286     1.0000 0.81210  0.55680  0.24120  Biso   1.000  C
  C287     1.0000 0.31210  0.94320  0.75880  Biso   1.000  C
  C288     1.0000 0.18790  0.05680  0.25880  Biso   1.000  C
  C289     1.0000 0.53290  0.37100  0.48640  Biso   1.000  C
  C290     1.0000 0.96710  0.62900  0.98640  Biso   1.000  C
  C291     1.0000 0.46710  0.87100  0.01360  Biso   1.000  C
  C292     1.0000 0.03290  0.12900  0.51360  Biso   1.000  C
  C293     1.0000 0.46710  0.62900  0.51360  Biso   1.000  C
  C294     1.0000 0.03290  0.37100  0.01360  Biso   1.000  C
  C295     1.0000 0.53290  0.12900  0.98640  Biso   1.000  C
  C296     1.0000 0.96710  0.87100  0.48640  Biso   1.000  C
  C297     1.0000 0.20670  0.53130  0.39660  Biso   1.000  C
  C298     1.0000 0.29330  0.46870  0.89660  Biso   1.000  C
  C299     1.0000 0.79330  0.03130  0.10340  Biso   1.000  C
  C300     1.0000 0.70670  0.96870  0.60340  Biso   1.000  C
  C301     1.0000 0.79330  0.46870  0.60340  Biso   1.000  C
  C302     1.0000 0.70670  0.53130  0.10340  Biso   1.000  C
  C303     1.0000 0.20670  0.96870  0.89660  Biso   1.000  C
  C304     1.0000 0.29330  0.03130  0.39660  Biso   1.000  C
  H265     1.0000 0.22390  0.55580  0.37140  Biso   1.000  H
  H266     1.0000 0.27610  0.44420  0.87140  Biso   1.000  H
  H267     1.0000 0.77610  0.05580  0.12860  Biso   1.000  H
  H268     1.0000 0.72390  0.94420  0.62860  Biso   1.000  H
  H269     1.0000 0.77610  0.44420  0.62860  Biso   1.000  H
  H270     1.0000 0.72390  0.55580  0.12860  Biso   1.000  H
  H271     1.0000 0.22390  0.94420  0.87140  Biso   1.000  H
  H272     1.0000 0.27610  0.05580  0.37140  Biso   1.000  H
  H273     1.0000 0.20300  0.55220  0.42720  Biso   1.000  H
  H274     1.0000 0.29700  0.44780  0.92720  Biso   1.000  H
  H275     1.0000 0.79700  0.05220  0.07280  Biso   1.000  H
  H276     1.0000 0.70300  0.94780  0.57280  Biso   1.000  H
  H277     1.0000 0.79700  0.44780  0.57280  Biso   1.000  H
  H278     1.0000 0.70300  0.55220  0.07280  Biso   1.000  H
  H279     1.0000 0.20300  0.94780  0.92720  Biso   1.000  H
  H280     1.0000 0.29700  0.05220  0.42720  Biso   1.000  H
  H281     1.0000 0.16560  0.51800  0.38660  Biso   1.000  H
  H282     1.0000 0.33440  0.48200  0.88660  Biso   1.000  H
  H283     1.0000 0.83440  0.01800  0.11340  Biso   1.000  H
  H284     1.0000 0.66560  0.98200  0.61340  Biso   1.000  H
  H285     1.0000 0.83440  0.48200  0.61340  Biso   1.000  H
  H286     1.0000 0.66560  0.51800  0.11340  Biso   1.000  H
  H287     1.0000 0.16560  0.98200  0.88660  Biso   1.000  H
  H288     1.0000 0.33440  0.01800  0.38660  Biso   1.000  H
  C305     1.0000 0.41850  0.52070  0.20890  Biso   1.000  C
  C306     1.0000 0.08150  0.47930  0.70890  Biso   1.000  C
  C307     1.0000 0.58150  0.02070  0.29110  Biso   1.000  C
  C308     1.0000 0.91850  0.97930  0.79110  Biso   1.000  C
  C309     1.0000 0.58150  0.47930  0.79110  Biso   1.000  C
  C310     1.0000 0.91850  0.52070  0.29110  Biso   1.000  C
  C311     1.0000 0.41850  0.97930  0.70890  Biso   1.000  C
  C312     1.0000 0.08150  0.02070  0.20890  Biso   1.000  C
  C313     1.0000 0.57400  0.15430  0.47450  Biso   1.000  C
  C314     1.0000 0.92600  0.84570  0.97450  Biso   1.000  C
  C315     1.0000 0.42600  0.65430  0.02550  Biso   1.000  C
  C316     1.0000 0.07400  0.34570  0.52550  Biso   1.000  C
  C317     1.0000 0.42600  0.84570  0.52550  Biso   1.000  C
  C318     1.0000 0.07400  0.15430  0.02550  Biso   1.000  C
  C319     1.0000 0.57400  0.34570  0.97450  Biso   1.000  C
  C320     1.0000 0.92600  0.65430  0.47450  Biso   1.000  C
  C321     1.0000 0.72880  0.41130  0.28940  Biso   1.000  C
  C322     1.0000 0.77120  0.58870  0.78940  Biso   1.000  C
  C323     1.0000 0.27120  0.91130  0.21060  Biso   1.000  C
  C324     1.0000 0.22880  0.08870  0.71060  Biso   1.000  C
  C325     1.0000 0.27120  0.58870  0.71060  Biso   1.000  C
  C326     1.0000 0.22880  0.41130  0.21060  Biso   1.000  C
  C327     1.0000 0.72880  0.08870  0.78940  Biso   1.000  C
  C328     1.0000 0.77120  0.91130  0.28940  Biso   1.000  C
  H289     1.0000 0.75250  0.43910  0.27310  Biso   1.000  H
  H290     1.0000 0.74750  0.56090  0.77310  Biso   1.000  H
  H291     1.0000 0.24750  0.93910  0.22690  Biso   1.000  H
  H292     1.0000 0.25250  0.06090  0.72690  Biso   1.000  H
  H293     1.0000 0.24750  0.56090  0.72690  Biso   1.000  H
  H294     1.0000 0.25250  0.43910  0.22690  Biso   1.000  H
  H295     1.0000 0.75250  0.06090  0.77310  Biso   1.000  H
  H296     1.0000 0.74750  0.93910  0.27310  Biso   1.000  H
  C329     1.0000 0.50330  0.15590  0.54510  Biso   1.000  C
  C330     1.0000 0.99670  0.84410  0.04510  Biso   1.000  C
  C331     1.0000 0.49670  0.65590  0.95490  Biso   1.000  C
  C332     1.0000 0.00330  0.34410  0.45490  Biso   1.000  C
  C333     1.0000 0.49670  0.84410  0.45490  Biso   1.000  C
  C334     1.0000 0.00330  0.15590  0.95490  Biso   1.000  C
  C335     1.0000 0.50330  0.34410  0.04510  Biso   1.000  C
  C336     1.0000 0.99670  0.65590  0.54510  Biso   1.000  C
  H297     1.0000 0.49140  0.14190  0.57610  Biso   1.000  H
  H298     1.0000 0.00860  0.85810  0.07610  Biso   1.000  H
  H299     1.0000 0.50860  0.64190  0.92390  Biso   1.000  H
  H300     1.0000 0.99140  0.35810  0.42390  Biso   1.000  H
  H301     1.0000 0.50860  0.85810  0.42390  Biso   1.000  H
  H302     1.0000 0.99140  0.14190  0.92390  Biso   1.000  H
  H303     1.0000 0.49140  0.35810  0.07610  Biso   1.000  H
  H304     1.0000 0.00860  0.64190  0.57610  Biso   1.000  H
  C337     1.0000 0.49210  0.57730  0.27750  Biso   1.000  C
  C338     1.0000 0.00790  0.42270  0.77750  Biso   1.000  C
  C339     1.0000 0.50790  0.07730  0.22250  Biso   1.000  C
  C340     1.0000 0.99210  0.92270  0.72250  Biso   1.000  C
  C341     1.0000 0.50790  0.42270  0.72250  Biso   1.000  C
  C342     1.0000 0.99210  0.57730  0.22250  Biso   1.000  C
  C343     1.0000 0.49210  0.92270  0.77750  Biso   1.000  C
  C344     1.0000 0.00790  0.07730  0.27750  Biso   1.000  C
  C345     1.0000 0.51360  0.41780  0.56360  Biso   1.000  C
  C346     1.0000 0.98640  0.58220  0.06360  Biso   1.000  C
  C347     1.0000 0.48640  0.91780  0.93640  Biso   1.000  C
  C348     1.0000 0.01360  0.08220  0.43640  Biso   1.000  C
  C349     1.0000 0.48640  0.58220  0.43640  Biso   1.000  C
  C350     1.0000 0.01360  0.41780  0.93640  Biso   1.000  C
  C351     1.0000 0.51360  0.08220  0.06360  Biso   1.000  C
  C352     1.0000 0.98640  0.91780  0.56360  Biso   1.000  C
  H305     1.0000 0.52490  0.42540  0.59630  Biso   1.000  H
  H306     1.0000 0.97510  0.57460  0.09630  Biso   1.000  H
  H307     1.0000 0.47510  0.92540  0.90370  Biso   1.000  H
  H308     1.0000 0.02490  0.07460  0.40370  Biso   1.000  H
  H309     1.0000 0.47510  0.57460  0.40370  Biso   1.000  H
  H310     1.0000 0.02490  0.42540  0.90370  Biso   1.000  H
  H311     1.0000 0.52490  0.07460  0.09630  Biso   1.000  H
  H312     1.0000 0.97510  0.92540  0.59630  Biso   1.000  H
  C353     1.0000 0.55520  0.13330  0.52170  Biso   1.000  C
  C354     1.0000 0.94480  0.86670  0.02170  Biso   1.000  C
  C355     1.0000 0.44480  0.63330  0.97830  Biso   1.000  C
  C356     1.0000 0.05520  0.36670  0.47830  Biso   1.000  C
  C357     1.0000 0.44480  0.86670  0.47830  Biso   1.000  C
  C358     1.0000 0.05520  0.13330  0.97830  Biso   1.000  C
  C359     1.0000 0.55520  0.36670  0.02170  Biso   1.000  C
  C360     1.0000 0.94480  0.63330  0.52170  Biso   1.000  C
  H313     1.0000 0.57820  0.10410  0.53670  Biso   1.000  H
  H314     1.0000 0.92180  0.89590  0.03670  Biso   1.000  H
  H315     1.0000 0.42180  0.60410  0.96330  Biso   1.000  H
  H316     1.0000 0.07820  0.39590  0.46330  Biso   1.000  H
  H317     1.0000 0.42180  0.89590  0.46330  Biso   1.000  H
  H318     1.0000 0.07820  0.10410  0.96330  Biso   1.000  H
  H319     1.0000 0.57820  0.39590  0.03670  Biso   1.000  H
  H320     1.0000 0.92180  0.60410  0.53670  Biso   1.000  H
  N49      1.0000 0.42850  0.49050  0.17570  Biso   1.000  N
  N50      1.0000 0.07150  0.50950  0.67570  Biso   1.000  N
  N51      1.0000 0.57150  0.99050  0.32430  Biso   1.000  N
  N52      1.0000 0.92850  0.00950  0.82430  Biso   1.000  N
  N53      1.0000 0.57150  0.50950  0.82430  Biso   1.000  N
  N54      1.0000 0.92850  0.49050  0.32430  Biso   1.000  N
  N55      1.0000 0.42850  0.00950  0.67570  Biso   1.000  N
  N56      1.0000 0.07150  0.99050  0.17570  Biso   1.000  N
  N57      1.0000 0.54440  0.58350  0.28490  Biso   1.000  N
  N58      1.0000 0.95560  0.41650  0.78490  Biso   1.000  N
  N59      1.0000 0.45560  0.08350  0.21510  Biso   1.000  N
  N60      1.0000 0.04440  0.91650  0.71510  Biso   1.000  N
  N61      1.0000 0.45560  0.41650  0.71510  Biso   1.000  N
  N62      1.0000 0.04440  0.58350  0.21510  Biso   1.000  N
  N63      1.0000 0.54440  0.91650  0.78490  Biso   1.000  N
  N64      1.0000 0.95560  0.08350  0.28490  Biso   1.000  N
  O65      1.0000 0.61700  0.28918  0.35592  Biso   1.000  O
  O66      1.0000 0.88300  0.71082  0.85592  Biso   1.000  O
  O67      1.0000 0.38300  0.78918  0.14408  Biso   1.000  O
  O68      1.0000 0.11700  0.21082  0.64408  Biso   1.000  O
  O69      1.0000 0.38300  0.71082  0.64408  Biso   1.000  O
  O70      1.0000 0.11700  0.28918  0.14408  Biso   1.000  O
  O71      1.0000 0.61700  0.21082  0.85592  Biso   1.000  O
  O72      1.0000 0.88300  0.78918  0.35592  Biso   1.000  O
  N65      1.0000 0.29440  0.39520  0.35680  Biso   1.000  N
  N66      1.0000 0.20560  0.60480  0.85680  Biso   1.000  N
  N67      1.0000 0.70560  0.89520  0.14320  Biso   1.000  N
  N68      1.0000 0.79440  0.10480  0.64320  Biso   1.000  N
  N69      1.0000 0.70560  0.60480  0.64320  Biso   1.000  N
  N70      1.0000 0.79440  0.39520  0.14320  Biso   1.000  N
  N71      1.0000 0.29440  0.10480  0.85680  Biso   1.000  N
  N72      1.0000 0.20560  0.89520  0.35680  Biso   1.000  N
  N73      1.0000 0.39790  0.67090  0.19700  Biso   1.000  N
  N74      1.0000 0.10210  0.32910  0.69700  Biso   1.000  N
  N75      1.0000 0.60210  0.17090  0.30300  Biso   1.000  N
  N76      1.0000 0.89790  0.82910  0.80300  Biso   1.000  N
  N77      1.0000 0.60210  0.32910  0.80300  Biso   1.000  N
  N78      1.0000 0.89790  0.67090  0.30300  Biso   1.000  N
  N79      1.0000 0.39790  0.82910  0.69700  Biso   1.000  N
  N80      1.0000 0.10210  0.17090  0.19700  Biso   1.000  N
  C361     1.0000 0.25640  0.44820  0.35520  Biso   1.000  C
  C362     1.0000 0.24360  0.55180  0.85520  Biso   1.000  C
  C363     1.0000 0.74360  0.94820  0.14480  Biso   1.000  C
  C364     1.0000 0.75640  0.05180  0.64480  Biso   1.000  C
  C365     1.0000 0.74360  0.55180  0.64480  Biso   1.000  C
  C366     1.0000 0.75640  0.44820  0.14480  Biso   1.000  C
  C367     1.0000 0.25640  0.05180  0.85520  Biso   1.000  C
  C368     1.0000 0.24360  0.94820  0.35520  Biso   1.000  C
  H321     1.0000 0.21400  0.43880  0.34390  Biso   1.000  H
  H322     1.0000 0.28600  0.56120  0.84390  Biso   1.000  H
  H323     1.0000 0.78600  0.93880  0.15610  Biso   1.000  H
  H324     1.0000 0.71400  0.06120  0.65610  Biso   1.000  H
  H325     1.0000 0.78600  0.56120  0.65610  Biso   1.000  H
  H326     1.0000 0.71400  0.43880  0.15610  Biso   1.000  H
  H327     1.0000 0.21400  0.06120  0.84390  Biso   1.000  H
  H328     1.0000 0.28600  0.93880  0.34390  Biso   1.000  H
  H329     1.0000 0.27500  0.47390  0.33090  Biso   1.000  H
  H330     1.0000 0.22500  0.52610  0.83090  Biso   1.000  H
  H331     1.0000 0.72500  0.97390  0.16910  Biso   1.000  H
  H332     1.0000 0.77500  0.02610  0.66910  Biso   1.000  H
  H333     1.0000 0.72500  0.52610  0.66910  Biso   1.000  H
  H334     1.0000 0.77500  0.47390  0.16910  Biso   1.000  H
  H335     1.0000 0.27500  0.02610  0.83090  Biso   1.000  H
  H336     1.0000 0.22500  0.97390  0.33090  Biso   1.000  H
  C369     1.0000 0.46140  0.15580  0.34820  Biso   1.000  C
  C370     1.0000 0.03860  0.84420  0.84820  Biso   1.000  C
  C371     1.0000 0.53860  0.65580  0.15180  Biso   1.000  C
  C372     1.0000 0.96140  0.34420  0.65180  Biso   1.000  C
  C373     1.0000 0.53860  0.84420  0.65180  Biso   1.000  C
  C374     1.0000 0.96140  0.15580  0.15180  Biso   1.000  C
  C375     1.0000 0.46140  0.34420  0.84820  Biso   1.000  C
  C376     1.0000 0.03860  0.65580  0.34820  Biso   1.000  C
  H337     1.0000 0.42960  0.13390  0.36520  Biso   1.000  H
  H338     1.0000 0.07040  0.86610  0.86520  Biso   1.000  H
  H339     1.0000 0.57040  0.63390  0.13480  Biso   1.000  H
  H340     1.0000 0.92960  0.36610  0.63480  Biso   1.000  H
  H341     1.0000 0.57040  0.86610  0.63480  Biso   1.000  H
  H342     1.0000 0.92960  0.13390  0.13480  Biso   1.000  H
  H343     1.0000 0.42960  0.36610  0.86520  Biso   1.000  H
  H344     1.0000 0.07040  0.63390  0.36520  Biso   1.000  H
  H345     1.0000 0.50130  0.15180  0.36510  Biso   1.000  H
  H346     1.0000 0.99870  0.84820  0.86510  Biso   1.000  H
  H347     1.0000 0.49870  0.65180  0.13490  Biso   1.000  H
  H348     1.0000 0.00130  0.34820  0.63490  Biso   1.000  H
  H349     1.0000 0.49870  0.84820  0.63490  Biso   1.000  H
  H350     1.0000 0.00130  0.15180  0.13490  Biso   1.000  H
  H351     1.0000 0.50130  0.34820  0.86510  Biso   1.000  H
  H352     1.0000 0.99870  0.65180  0.36510  Biso   1.000  H
  H353     1.0000 0.46550  0.14230  0.31470  Biso   1.000  H
  H354     1.0000 0.03450  0.85770  0.81470  Biso   1.000  H
  H355     1.0000 0.53450  0.64230  0.18530  Biso   1.000  H
  H356     1.0000 0.96550  0.35770  0.68530  Biso   1.000  H
  H357     1.0000 0.53450  0.85770  0.68530  Biso   1.000  H
  H358     1.0000 0.96550  0.14230  0.18530  Biso   1.000  H
  H359     1.0000 0.46550  0.35770  0.81470  Biso   1.000  H
  H360     1.0000 0.03450  0.64230  0.31470  Biso   1.000  H
  C377     1.0000 0.55670  0.45220  0.35610  Biso   1.000  C
  C378     1.0000 0.94330  0.54780  0.85610  Biso   1.000  C
  C379     1.0000 0.44330  0.95220  0.14390  Biso   1.000  C
  C380     1.0000 0.05670  0.04780  0.64390  Biso   1.000  C
  C381     1.0000 0.44330  0.54780  0.64390  Biso   1.000  C
  C382     1.0000 0.05670  0.45220  0.14390  Biso   1.000  C
  C383     1.0000 0.55670  0.04780  0.85610  Biso   1.000  C
  C384     1.0000 0.94330  0.95220  0.35610  Biso   1.000  C
  H361     1.0000 0.59050  0.47280  0.37190  Biso   1.000  H
  H362     1.0000 0.90950  0.52720  0.87190  Biso   1.000  H
  H363     1.0000 0.40950  0.97280  0.12810  Biso   1.000  H
  H364     1.0000 0.09050  0.02720  0.62810  Biso   1.000  H
  H365     1.0000 0.40950  0.52720  0.62810  Biso   1.000  H
  H366     1.0000 0.09050  0.47280  0.12810  Biso   1.000  H
  H367     1.0000 0.59050  0.02720  0.87190  Biso   1.000  H
  H368     1.0000 0.90950  0.97280  0.37190  Biso   1.000  H
  H369     1.0000 0.51890  0.45530  0.37590  Biso   1.000  H
  H370     1.0000 0.98110  0.54470  0.87590  Biso   1.000  H
  H371     1.0000 0.48110  0.95530  0.12410  Biso   1.000  H
  H372     1.0000 0.01890  0.04470  0.62410  Biso   1.000  H
  H373     1.0000 0.48110  0.54470  0.62410  Biso   1.000  H
  H374     1.0000 0.01890  0.45530  0.12410  Biso   1.000  H
  H375     1.0000 0.51890  0.04470  0.87590  Biso   1.000  H
  H376     1.0000 0.98110  0.95530  0.37590  Biso   1.000  H
  H377     1.0000 0.54900  0.46800  0.32380  Biso   1.000  H
  H378     1.0000 0.95100  0.53200  0.82380  Biso   1.000  H
  H379     1.0000 0.45100  0.96800  0.17620  Biso   1.000  H
  H380     1.0000 0.04900  0.03200  0.67620  Biso   1.000  H
  H381     1.0000 0.45100  0.53200  0.67620  Biso   1.000  H
  H382     1.0000 0.04900  0.46800  0.17620  Biso   1.000  H
  H383     1.0000 0.54900  0.03200  0.82380  Biso   1.000  H
  H384     1.0000 0.95100  0.96800  0.32380  Biso   1.000  H
  O73      1.0000 0.58260  0.86970  0.25940  Biso   1.000  O
  O74      1.0000 0.91740  0.13030  0.75940  Biso   1.000  O
  O75      1.0000 0.41740  0.36970  0.24060  Biso   1.000  O
  O76      1.0000 0.08260  0.63030  0.74060  Biso   1.000  O
  O77      1.0000 0.41740  0.13030  0.74060  Biso   1.000  O
  O78      1.0000 0.08260  0.86970  0.24060  Biso   1.000  O
  O79      1.0000 0.58260  0.63030  0.75940  Biso   1.000  O
  O80      1.0000 0.91740  0.36970  0.25940  Biso   1.000  O
  O81      1.0000 0.12970  0.53230  0.28340  Biso   1.000  O
  O82      1.0000 0.37030  0.46770  0.78340  Biso   1.000  O
  O83      1.0000 0.87030  0.03230  0.21660  Biso   1.000  O
  O84      1.0000 0.62970  0.96770  0.71660  Biso   1.000  O
  O85      1.0000 0.87030  0.46770  0.71660  Biso   1.000  O
  O86      1.0000 0.62970  0.53230  0.21660  Biso   1.000  O
  O87      1.0000 0.12970  0.96770  0.78340  Biso   1.000  O
  O88      1.0000 0.37030  0.03230  0.28340  Biso   1.000  O
  O89      1.0000 0.43060  0.94200  0.32440  Biso   1.000  O
  O90      1.0000 0.06940  0.05800  0.82440  Biso   1.000  O
  O91      1.0000 0.56940  0.44200  0.17560  Biso   1.000  O
  O92      1.0000 0.93060  0.55800  0.67560  Biso   1.000  O
  O93      1.0000 0.56940  0.05800  0.67560  Biso   1.000  O
  O94      1.0000 0.93060  0.94200  0.17560  Biso   1.000  O
  O95      1.0000 0.43060  0.55800  0.82440  Biso   1.000  O
  O96      1.0000 0.06940  0.44200  0.32440  Biso   1.000  O
  C385     1.0000 0.76960  0.43130  0.43490  Biso   1.000  C
  C386     1.0000 0.73040  0.56870  0.93490  Biso   1.000  C
  C387     1.0000 0.23040  0.93130  0.06510  Biso   1.000  C
  C388     1.0000 0.26960  0.06870  0.56510  Biso   1.000  C
  C389     1.0000 0.23040  0.56870  0.56510  Biso   1.000  C
  C390     1.0000 0.26960  0.43130  0.06510  Biso   1.000  C
  C391     1.0000 0.76960  0.06870  0.93490  Biso   1.000  C
  C392     1.0000 0.73040  0.93130  0.43490  Biso   1.000  C
  N81      1.0000 0.72300  0.44580  0.45060  Biso   1.000  N
  N82      1.0000 0.77700  0.55420  0.95060  Biso   1.000  N
  N83      1.0000 0.27700  0.94580  0.04940  Biso   1.000  N
  N84      1.0000 0.22300  0.05420  0.54940  Biso   1.000  N
  N85      1.0000 0.27700  0.55420  0.54940  Biso   1.000  N
  N86      1.0000 0.22300  0.44580  0.04940  Biso   1.000  N
  N87      1.0000 0.72300  0.05420  0.95060  Biso   1.000  N
  N88      1.0000 0.77700  0.94580  0.45060  Biso   1.000  N
  C393     1.0000 0.82690  0.41420  0.40920  Biso   1.000  C
  C394     1.0000 0.67310  0.58580  0.90920  Biso   1.000  C
  C395     1.0000 0.17310  0.91420  0.09080  Biso   1.000  C
  C396     1.0000 0.32690  0.08580  0.59080  Biso   1.000  C
  C397     1.0000 0.17310  0.58580  0.59080  Biso   1.000  C
  C398     1.0000 0.32690  0.41420  0.09080  Biso   1.000  C
  C399     1.0000 0.82690  0.08580  0.90920  Biso   1.000  C
  C400     1.0000 0.67310  0.91420  0.40920  Biso   1.000  C
  H385     1.0000 0.85570  0.39700  0.43240  Biso   1.000  H
  H386     1.0000 0.64430  0.60300  0.93240  Biso   1.000  H
  H387     1.0000 0.14430  0.89700  0.06760  Biso   1.000  H
  H388     1.0000 0.35570  0.10300  0.56760  Biso   1.000  H
  H389     1.0000 0.14430  0.60300  0.56760  Biso   1.000  H
  H390     1.0000 0.35570  0.39700  0.06760  Biso   1.000  H
  H391     1.0000 0.85570  0.10300  0.93240  Biso   1.000  H
  H392     1.0000 0.64430  0.89700  0.43240  Biso   1.000  H
  H393     1.0000 0.84650  0.44710  0.39450  Biso   1.000  H
  H394     1.0000 0.65350  0.55290  0.89450  Biso   1.000  H
  H395     1.0000 0.15350  0.94710  0.10550  Biso   1.000  H
  H396     1.0000 0.34650  0.05290  0.60550  Biso   1.000  H
  H397     1.0000 0.15350  0.55290  0.60550  Biso   1.000  H
  H398     1.0000 0.34650  0.44710  0.10550  Biso   1.000  H
  H399     1.0000 0.84650  0.05290  0.89450  Biso   1.000  H
  H400     1.0000 0.65350  0.94710  0.39450  Biso   1.000  H
  H401     1.0000 0.81650  0.38700  0.38370  Biso   1.000  H
  H402     1.0000 0.68350  0.61300  0.88370  Biso   1.000  H
  H403     1.0000 0.18350  0.88700  0.11630  Biso   1.000  H
  H404     1.0000 0.31650  0.11300  0.61630  Biso   1.000  H
  H405     1.0000 0.18350  0.61300  0.61630  Biso   1.000  H
  H406     1.0000 0.31650  0.38700  0.11630  Biso   1.000  H
  H407     1.0000 0.81650  0.11300  0.88370  Biso   1.000  H
  H408     1.0000 0.68350  0.88700  0.38370  Biso   1.000  H
  N89      1.0000 0.28260  0.78200  0.45720  Biso   1.000  N
  N90      1.0000 0.21740  0.21800  0.95720  Biso   1.000  N
  N91      1.0000 0.71740  0.28200  0.04280  Biso   1.000  N
  N92      1.0000 0.78260  0.71800  0.54280  Biso   1.000  N
  N93      1.0000 0.71740  0.21800  0.54280  Biso   1.000  N
  N94      1.0000 0.78260  0.78200  0.04280  Biso   1.000  N
  N95      1.0000 0.28260  0.71800  0.95720  Biso   1.000  N
  N96      1.0000 0.21740  0.28200  0.45720  Biso   1.000  N
  C401     1.0000 0.25050  0.68120  0.42880  Biso   1.000  C
  C402     1.0000 0.24950  0.31880  0.92880  Biso   1.000  C
  C403     1.0000 0.74950  0.18120  0.07120  Biso   1.000  C
  C404     1.0000 0.75050  0.81880  0.57120  Biso   1.000  C
  C405     1.0000 0.74950  0.31880  0.57120  Biso   1.000  C
  C406     1.0000 0.75050  0.68120  0.07120  Biso   1.000  C
  C407     1.0000 0.25050  0.81880  0.92880  Biso   1.000  C
  C408     1.0000 0.24950  0.18120  0.42880  Biso   1.000  C
  H409     1.0000 0.21430  0.66590  0.44580  Biso   1.000  H
  H410     1.0000 0.28570  0.33410  0.94580  Biso   1.000  H
  H411     1.0000 0.78570  0.16590  0.05420  Biso   1.000  H
  H412     1.0000 0.71430  0.83410  0.55420  Biso   1.000  H
  H413     1.0000 0.78570  0.33410  0.55420  Biso   1.000  H
  H414     1.0000 0.71430  0.66590  0.05420  Biso   1.000  H
  H415     1.0000 0.21430  0.83410  0.94580  Biso   1.000  H
  H416     1.0000 0.28570  0.16590  0.44580  Biso   1.000  H
  H417     1.0000 0.28640  0.65670  0.43400  Biso   1.000  H
  H418     1.0000 0.21360  0.34330  0.93400  Biso   1.000  H
  H419     1.0000 0.71360  0.15670  0.06600  Biso   1.000  H
  H420     1.0000 0.78640  0.84330  0.56600  Biso   1.000  H
  H421     1.0000 0.71360  0.34330  0.56600  Biso   1.000  H
  H422     1.0000 0.78640  0.65670  0.06600  Biso   1.000  H
  H423     1.0000 0.28640  0.84330  0.93400  Biso   1.000  H
  H424     1.0000 0.21360  0.15670  0.43400  Biso   1.000  H
  H425     1.0000 0.24150  0.68360  0.39390  Biso   1.000  H
  H426     1.0000 0.25850  0.31640  0.89390  Biso   1.000  H
  H427     1.0000 0.75850  0.18360  0.10610  Biso   1.000  H
  H428     1.0000 0.74150  0.81640  0.60610  Biso   1.000  H
  H429     1.0000 0.75850  0.31640  0.60610  Biso   1.000  H
  H430     1.0000 0.74150  0.68360  0.10610  Biso   1.000  H
  H431     1.0000 0.24150  0.81640  0.89390  Biso   1.000  H
  H432     1.0000 0.25850  0.18360  0.39390  Biso   1.000  H
  C409     1.0000 0.26440  0.73790  0.44780  Biso   1.000  C
  C410     1.0000 0.23560  0.26210  0.94780  Biso   1.000  C
  C411     1.0000 0.73560  0.23790  0.05220  Biso   1.000  C
  C412     1.0000 0.76440  0.76210  0.55220  Biso   1.000  C
  C413     1.0000 0.73560  0.26210  0.55220  Biso   1.000  C
  C414     1.0000 0.76440  0.73790  0.05220  Biso   1.000  C
  C415     1.0000 0.26440  0.76210  0.94780  Biso   1.000  C
  C416     1.0000 0.23560  0.23790  0.44780  Biso   1.000  C
  O97      1.0000 0.38950  0.76140  0.37790  Biso   1.000  O
  O98      1.0000 0.11050  0.23860  0.87790  Biso   1.000  O
  O99      1.0000 0.61050  0.26140  0.12210  Biso   1.000  O
  O100     1.0000 0.88950  0.73860  0.62210  Biso   1.000  O
  O101     1.0000 0.61050  0.23860  0.62210  Biso   1.000  O
  O102     1.0000 0.88950  0.76140  0.12210  Biso   1.000  O
  O103     1.0000 0.38950  0.73860  0.87790  Biso   1.000  O
  O104     1.0000 0.11050  0.26140  0.37790  Biso   1.000  O
  N97      1.0000 0.40020  0.21620  0.63390  Biso   1.000  N
  N98      1.0000 0.09980  0.78380  0.13390  Biso   1.000  N
  N99      1.0000 0.59980  0.71620  0.86610  Biso   1.000  N
  N100     1.0000 0.90020  0.28380  0.36610  Biso   1.000  N
  N101     1.0000 0.59980  0.78380  0.36610  Biso   1.000  N
  N102     1.0000 0.90020  0.21620  0.86610  Biso   1.000  N
  N103     1.0000 0.40020  0.28380  0.13390  Biso   1.000  N
  N104     1.0000 0.09980  0.71620  0.63390  Biso   1.000  N
  C417     1.0000 0.42850  0.24900  0.65510  Biso   1.000  C
  C418     1.0000 0.07150  0.75100  0.15510  Biso   1.000  C
  C419     1.0000 0.57150  0.74900  0.84490  Biso   1.000  C
  C420     1.0000 0.92850  0.25100  0.34490  Biso   1.000  C
  C421     1.0000 0.57150  0.75100  0.34490  Biso   1.000  C
  C422     1.0000 0.92850  0.24900  0.84490  Biso   1.000  C
  C423     1.0000 0.42850  0.25100  0.15510  Biso   1.000  C
  C424     1.0000 0.07150  0.74900  0.65510  Biso   1.000  C
  C425     1.0000 0.46280  0.28530  0.68920  Biso   1.000  C
  C426     1.0000 0.03720  0.71470  0.18920  Biso   1.000  C
  C427     1.0000 0.53720  0.78530  0.81080  Biso   1.000  C
  C428     1.0000 0.96280  0.21470  0.31080  Biso   1.000  C
  C429     1.0000 0.53720  0.71470  0.31080  Biso   1.000  C
  C430     1.0000 0.96280  0.28530  0.81080  Biso   1.000  C
  C431     1.0000 0.46280  0.21470  0.18920  Biso   1.000  C
  C432     1.0000 0.03720  0.78530  0.68920  Biso   1.000  C
  H433     1.0000 0.46560  0.32320  0.67580  Biso   1.000  H
  H434     1.0000 0.03440  0.67680  0.17580  Biso   1.000  H
  H435     1.0000 0.53440  0.82320  0.82420  Biso   1.000  H
  H436     1.0000 0.96560  0.17680  0.32420  Biso   1.000  H
  H437     1.0000 0.53440  0.67680  0.32420  Biso   1.000  H
  H438     1.0000 0.96560  0.32320  0.82420  Biso   1.000  H
  H439     1.0000 0.46560  0.17680  0.17580  Biso   1.000  H
  H440     1.0000 0.03440  0.82320  0.67580  Biso   1.000  H
  H441     1.0000 0.50480  0.27030  0.69410  Biso   1.000  H
  H442     1.0000 0.99520  0.72970  0.19410  Biso   1.000  H
  H443     1.0000 0.49520  0.77030  0.80590  Biso   1.000  H
  H444     1.0000 0.00480  0.22970  0.30590  Biso   1.000  H
  H445     1.0000 0.49520  0.72970  0.30590  Biso   1.000  H
  H446     1.0000 0.00480  0.27030  0.80590  Biso   1.000  H
  H447     1.0000 0.50480  0.22970  0.19410  Biso   1.000  H
  H448     1.0000 0.99520  0.77030  0.69410  Biso   1.000  H
  H449     1.0000 0.44100  0.28650  0.72050  Biso   1.000  H
  H450     1.0000 0.05900  0.71350  0.22050  Biso   1.000  H
  H451     1.0000 0.55900  0.78650  0.77950  Biso   1.000  H
  H452     1.0000 0.94100  0.21350  0.27950  Biso   1.000  H
  H453     1.0000 0.55900  0.71350  0.27950  Biso   1.000  H
  H454     1.0000 0.94100  0.28650  0.77950  Biso   1.000  H
  H455     1.0000 0.44100  0.21350  0.22050  Biso   1.000  H
  H456     1.0000 0.05900  0.78650  0.72050  Biso   1.000  H
  O105     1.0000 0.40440  0.76950  0.26990  Biso   1.000  O
  O106     1.0000 0.09560  0.23050  0.76990  Biso   1.000  O
  O107     1.0000 0.59560  0.26950  0.23010  Biso   1.000  O
  O108     1.0000 0.90440  0.73050  0.73010  Biso   1.000  O
  O109     1.0000 0.59560  0.23050  0.73010  Biso   1.000  O
  O110     1.0000 0.90440  0.76950  0.23010  Biso   1.000  O
  O111     1.0000 0.40440  0.73050  0.76990  Biso   1.000  O
  O112     1.0000 0.09560  0.26950  0.26990  Biso   1.000  O
  O113     1.0000 0.40520  0.83320  0.28650  Biso   1.000  O
  O114     1.0000 0.09480  0.16680  0.78650  Biso   1.000  O
  O115     1.0000 0.59480  0.33320  0.21350  Biso   1.000  O
  O116     1.0000 0.90520  0.66680  0.71350  Biso   1.000  O
  O117     1.0000 0.59480  0.16680  0.71350  Biso   1.000  O
  O118     1.0000 0.90520  0.83320  0.21350  Biso   1.000  O
  O119     1.0000 0.40520  0.66680  0.78650  Biso   1.000  O
  O120     1.0000 0.09480  0.33320  0.28650  Biso   1.000  O
  O121     1.0000 0.51630  0.52230  0.07550  Biso   1.000  O
  O122     1.0000 0.98370  0.47770  0.57550  Biso   1.000  O
  O123     1.0000 0.48370  0.02230  0.42450  Biso   1.000  O
  O124     1.0000 0.01630  0.97770  0.92450  Biso   1.000  O
  O125     1.0000 0.48370  0.47770  0.92450  Biso   1.000  O
  O126     1.0000 0.01630  0.52230  0.42450  Biso   1.000  O
  O127     1.0000 0.51630  0.97770  0.57550  Biso   1.000  O
  O128     1.0000 0.98370  0.02230  0.07550  Biso   1.000  O
  O129     1.0000 0.57380  0.52650  0.01600  Biso   1.000  O
  O130     1.0000 0.92620  0.47350  0.51600  Biso   1.000  O
  O131     1.0000 0.42620  0.02650  0.48400  Biso   1.000  O
  O132     1.0000 0.07380  0.97350  0.98400  Biso   1.000  O
  O133     1.0000 0.42620  0.47350  0.98400  Biso   1.000  O
  O134     1.0000 0.07380  0.52650  0.48400  Biso   1.000  O
  O135     1.0000 0.57380  0.97350  0.51600  Biso   1.000  O
  O136     1.0000 0.92620  0.02650  0.01600  Biso   1.000  O
