data_image0
_cell_length_a       21.134
_cell_length_b       23.479
_cell_length_c       26.843
_cell_angle_alpha    90
_cell_angle_beta     90
_cell_angle_gamma    90

_symmetry_space_group_name_H-M    "P 1"
_symmetry_int_tables_number       1

loop_
  _symmetry_equiv_pos_as_xyz
  'x, y, z'

loop_
  _atom_site_label
  _atom_site_occupancy
  _atom_site_fract_x
  _atom_site_fract_y
  _atom_site_fract_z
  _atom_site_thermal_displace_type
  _atom_site_B_iso_or_equiv
  _atom_site_type_symbol
  Tb1      1.0000 0.51022  0.30416  0.37607  Biso   1.000  Tb
  Tb2      1.0000 0.98978  0.69584  0.87607  Biso   1.000  Tb
  Tb3      1.0000 0.48978  0.80416  0.12393  Biso   1.000  Tb
  Tb4      1.0000 0.01022  0.19584  0.62393  Biso   1.000  Tb
  Tb5      1.0000 0.48978  0.69584  0.62393  Biso   1.000  Tb
  Tb6      1.0000 0.01022  0.30416  0.12393  Biso   1.000  Tb
  Tb7      1.0000 0.51022  0.19584  0.87607  Biso   1.000  Tb
  Tb8      1.0000 0.98978  0.80416  0.37607  Biso   1.000  Tb
  Cu1      1.0000 0.63853  0.20967  0.37112  Biso   1.000  Cu
  Cu2      1.0000 0.86147  0.79033  0.87112  Biso   1.000  Cu
  Cu3      1.0000 0.36147  0.70967  0.12888  Biso   1.000  Cu
  Cu4      1.0000 0.13853  0.29033  0.62888  Biso   1.000  Cu
  Cu5      1.0000 0.36147  0.79033  0.62888  Biso   1.000  Cu
  Cu6      1.0000 0.13853  0.20967  0.12888  Biso   1.000  Cu
  Cu7      1.0000 0.63853  0.29033  0.87112  Biso   1.000  Cu
  Cu8      1.0000 0.86147  0.70967  0.37112  Biso   1.000  Cu
  Cu9      1.0000 0.38038  0.39751  0.38512  Biso   1.000  Cu
  Cu10     1.0000 0.11962  0.60249  0.88512  Biso   1.000  Cu
  Cu11     1.0000 0.61962  0.89751  0.11488  Biso   1.000  Cu
  Cu12     1.0000 0.88038  0.10249  0.61488  Biso   1.000  Cu
  Cu13     1.0000 0.61962  0.60249  0.61488  Biso   1.000  Cu
  Cu14     1.0000 0.88038  0.39751  0.11488  Biso   1.000  Cu
  Cu15     1.0000 0.38038  0.10249  0.88512  Biso   1.000  Cu
  Cu16     1.0000 0.11962  0.89751  0.38512  Biso   1.000  Cu
  Fe1      1.0000 0.40198  0.56759  0.26641  Biso   1.000  Fe
  Fe2      1.0000 0.09802  0.43241  0.76641  Biso   1.000  Fe
  Fe3      1.0000 0.59802  0.06759  0.23359  Biso   1.000  Fe
  Fe4      1.0000 0.90198  0.93241  0.73359  Biso   1.000  Fe
  Fe5      1.0000 0.59802  0.43241  0.73359  Biso   1.000  Fe
  Fe6      1.0000 0.90198  0.56759  0.23359  Biso   1.000  Fe
  Fe7      1.0000 0.40198  0.93241  0.76641  Biso   1.000  Fe
  Fe8      1.0000 0.09802  0.06759  0.26641  Biso   1.000  Fe
  O1       1.0000 0.40160  0.32142  0.35833  Biso   1.000  O
  O2       1.0000 0.09840  0.67858  0.85833  Biso   1.000  O
  O3       1.0000 0.59840  0.82142  0.14167  Biso   1.000  O
  O4       1.0000 0.90160  0.17858  0.64167  Biso   1.000  O
  O5       1.0000 0.59840  0.67858  0.64167  Biso   1.000  O
  O6       1.0000 0.90160  0.32142  0.14167  Biso   1.000  O
  O7       1.0000 0.40160  0.17858  0.85833  Biso   1.000  O
  O8       1.0000 0.09840  0.82142  0.35833  Biso   1.000  O
  O9       1.0000 0.55850  0.22271  0.40873  Biso   1.000  O
  O10      1.0000 0.94150  0.77729  0.90873  Biso   1.000  O
  O11      1.0000 0.44150  0.72271  0.09127  Biso   1.000  O
  O12      1.0000 0.05850  0.27729  0.59127  Biso   1.000  O
  O13      1.0000 0.44150  0.77729  0.59127  Biso   1.000  O
  O14      1.0000 0.05850  0.22271  0.09127  Biso   1.000  O
  O15      1.0000 0.55850  0.27729  0.90873  Biso   1.000  O
  O16      1.0000 0.94150  0.72271  0.40873  Biso   1.000  O
  O17      1.0000 0.46250  0.38117  0.41861  Biso   1.000  O
  O18      1.0000 0.03750  0.61883  0.91861  Biso   1.000  O
  O19      1.0000 0.53750  0.88117  0.08139  Biso   1.000  O
  O20      1.0000 0.96250  0.11883  0.58139  Biso   1.000  O
  O21      1.0000 0.53750  0.61883  0.58139  Biso   1.000  O
  O22      1.0000 0.96250  0.38117  0.08139  Biso   1.000  O
  O23      1.0000 0.46250  0.11883  0.91861  Biso   1.000  O
  O24      1.0000 0.03750  0.88117  0.41861  Biso   1.000  O
  N1       1.0000 0.36150  0.45910  0.43380  Biso   1.000  N
  N2       1.0000 0.13850  0.54090  0.93380  Biso   1.000  N
  N3       1.0000 0.63850  0.95910  0.06620  Biso   1.000  N
  N4       1.0000 0.86150  0.04090  0.56620  Biso   1.000  N
  N5       1.0000 0.63850  0.54090  0.56620  Biso   1.000  N
  N6       1.0000 0.86150  0.45910  0.06620  Biso   1.000  N
  N7       1.0000 0.36150  0.04090  0.93380  Biso   1.000  N
  N8       1.0000 0.13850  0.95910  0.43380  Biso   1.000  N
  O25      1.0000 0.44290  0.21640  0.34700  Biso   1.000  O
  O26      1.0000 0.05710  0.78360  0.84700  Biso   1.000  O
  O27      1.0000 0.55710  0.71640  0.15300  Biso   1.000  O
  O28      1.0000 0.94290  0.28360  0.65300  Biso   1.000  O
  O29      1.0000 0.55710  0.78360  0.65300  Biso   1.000  O
  O30      1.0000 0.94290  0.21640  0.15300  Biso   1.000  O
  O31      1.0000 0.44290  0.28360  0.84700  Biso   1.000  O
  O32      1.0000 0.05710  0.71640  0.34700  Biso   1.000  O
  O33      1.0000 0.56700  0.33710  0.45389  Biso   1.000  O
  O34      1.0000 0.93300  0.66290  0.95389  Biso   1.000  O
  O35      1.0000 0.43300  0.83710  0.04611  Biso   1.000  O
  O36      1.0000 0.06700  0.16290  0.54611  Biso   1.000  O
  O37      1.0000 0.43300  0.66290  0.54611  Biso   1.000  O
  O38      1.0000 0.06700  0.33710  0.04611  Biso   1.000  O
  O39      1.0000 0.56700  0.16290  0.95389  Biso   1.000  O
  O40      1.0000 0.93300  0.83710  0.45389  Biso   1.000  O
  O41      1.0000 0.45580  0.26180  0.45236  Biso   1.000  O
  O42      1.0000 0.04420  0.73820  0.95236  Biso   1.000  O
  O43      1.0000 0.54420  0.76180  0.04764  Biso   1.000  O
  O44      1.0000 0.95580  0.23820  0.54764  Biso   1.000  O
  O45      1.0000 0.54420  0.73820  0.54764  Biso   1.000  O
  O46      1.0000 0.95580  0.26180  0.04764  Biso   1.000  O
  O47      1.0000 0.45580  0.23820  0.95236  Biso   1.000  O
  O48      1.0000 0.04420  0.76180  0.45236  Biso   1.000  O
  N9       1.0000 0.41060  0.45670  0.32610  Biso   1.000  N
  N10      1.0000 0.08940  0.54330  0.82610  Biso   1.000  N
  N11      1.0000 0.58940  0.95670  0.17390  Biso   1.000  N
  N12      1.0000 0.91060  0.04330  0.67390  Biso   1.000  N
  N13      1.0000 0.58940  0.54330  0.67390  Biso   1.000  N
  N14      1.0000 0.91060  0.45670  0.17390  Biso   1.000  N
  N15      1.0000 0.41060  0.04330  0.82610  Biso   1.000  N
  N16      1.0000 0.08940  0.95670  0.32610  Biso   1.000  N
  N17      1.0000 0.72500  0.21530  0.34280  Biso   1.000  N
  N18      1.0000 0.77500  0.78470  0.84280  Biso   1.000  N
  N19      1.0000 0.27500  0.71530  0.15720  Biso   1.000  N
  N20      1.0000 0.22500  0.28470  0.65720  Biso   1.000  N
  N21      1.0000 0.27500  0.78470  0.65720  Biso   1.000  N
  N22      1.0000 0.22500  0.21530  0.15720  Biso   1.000  N
  N23      1.0000 0.72500  0.28470  0.84280  Biso   1.000  N
  N24      1.0000 0.77500  0.71530  0.34280  Biso   1.000  N
  O49      1.0000 0.57520  0.39291  0.35030  Biso   1.000  O
  O50      1.0000 0.92480  0.60709  0.85030  Biso   1.000  O
  O51      1.0000 0.42480  0.89291  0.14970  Biso   1.000  O
  O52      1.0000 0.07520  0.10709  0.64970  Biso   1.000  O
  O53      1.0000 0.42480  0.60709  0.64970  Biso   1.000  O
  O54      1.0000 0.07520  0.39291  0.14970  Biso   1.000  O
  O55      1.0000 0.57520  0.10709  0.85030  Biso   1.000  O
  O56      1.0000 0.92480  0.89291  0.35030  Biso   1.000  O
  C1       1.0000 0.76720  0.12310  0.38140  Biso   1.000  C
  C2       1.0000 0.73280  0.87690  0.88140  Biso   1.000  C
  C3       1.0000 0.23280  0.62310  0.11860  Biso   1.000  C
  C4       1.0000 0.26720  0.37690  0.61860  Biso   1.000  C
  C5       1.0000 0.23280  0.87690  0.61860  Biso   1.000  C
  C6       1.0000 0.26720  0.12310  0.11860  Biso   1.000  C
  C7       1.0000 0.76720  0.37690  0.88140  Biso   1.000  C
  C8       1.0000 0.73280  0.62310  0.38140  Biso   1.000  C
  C9       1.0000 0.38200  0.22680  0.33280  Biso   1.000  C
  C10      1.0000 0.11800  0.77320  0.83280  Biso   1.000  C
  C11      1.0000 0.61800  0.72680  0.16720  Biso   1.000  C
  C12      1.0000 0.88200  0.27320  0.66720  Biso   1.000  C
  C13      1.0000 0.61800  0.77320  0.66720  Biso   1.000  C
  C14      1.0000 0.88200  0.22680  0.16720  Biso   1.000  C
  C15      1.0000 0.38200  0.27320  0.83280  Biso   1.000  C
  C16      1.0000 0.11800  0.72680  0.33280  Biso   1.000  C
  C17      1.0000 0.76580  0.16340  0.33610  Biso   1.000  C
  C18      1.0000 0.73420  0.83660  0.83610  Biso   1.000  C
  C19      1.0000 0.23420  0.66340  0.16390  Biso   1.000  C
  C20      1.0000 0.26580  0.33660  0.66390  Biso   1.000  C
  C21      1.0000 0.23420  0.83660  0.66390  Biso   1.000  C
  C22      1.0000 0.26580  0.16340  0.16390  Biso   1.000  C
  C23      1.0000 0.76580  0.33660  0.83610  Biso   1.000  C
  C24      1.0000 0.73420  0.66340  0.33610  Biso   1.000  C
  H1       1.0000 0.80870  0.17560  0.32900  Biso   1.000  H
  H2       1.0000 0.69130  0.82440  0.82900  Biso   1.000  H
  H3       1.0000 0.19130  0.67560  0.17100  Biso   1.000  H
  H4       1.0000 0.30870  0.32440  0.67100  Biso   1.000  H
  H5       1.0000 0.19130  0.82440  0.67100  Biso   1.000  H
  H6       1.0000 0.30870  0.17560  0.17100  Biso   1.000  H
  H7       1.0000 0.80870  0.32440  0.82900  Biso   1.000  H
  H8       1.0000 0.69130  0.67560  0.32900  Biso   1.000  H
  H9       1.0000 0.75070  0.14230  0.30740  Biso   1.000  H
  H10      1.0000 0.74930  0.85770  0.80740  Biso   1.000  H
  H11      1.0000 0.24930  0.64230  0.19260  Biso   1.000  H
  H12      1.0000 0.25070  0.35770  0.69260  Biso   1.000  H
  H13      1.0000 0.24930  0.85770  0.69260  Biso   1.000  H
  H14      1.0000 0.25070  0.14230  0.19260  Biso   1.000  H
  H15      1.0000 0.75070  0.35770  0.80740  Biso   1.000  H
  H16      1.0000 0.74930  0.64230  0.30740  Biso   1.000  H
  O57      1.0000 0.50880  0.30930  0.28830  Biso   1.000  O
  O58      1.0000 0.99120  0.69070  0.78830  Biso   1.000  O
  O59      1.0000 0.49120  0.80930  0.21170  Biso   1.000  O
  O60      1.0000 0.00880  0.19070  0.71170  Biso   1.000  O
  O61      1.0000 0.49120  0.69070  0.71170  Biso   1.000  O
  O62      1.0000 0.00880  0.30930  0.21170  Biso   1.000  O
  O63      1.0000 0.50880  0.19070  0.78830  Biso   1.000  O
  O64      1.0000 0.99120  0.80930  0.28830  Biso   1.000  O
  C25      1.0000 0.40630  0.49880  0.30540  Biso   1.000  C
  C26      1.0000 0.09370  0.50120  0.80540  Biso   1.000  C
  C27      1.0000 0.59370  0.99880  0.19460  Biso   1.000  C
  C28      1.0000 0.90630  0.00120  0.69460  Biso   1.000  C
  C29      1.0000 0.59370  0.50120  0.69460  Biso   1.000  C
  C30      1.0000 0.90630  0.49880  0.19460  Biso   1.000  C
  C31      1.0000 0.40630  0.00120  0.80540  Biso   1.000  C
  C32      1.0000 0.09370  0.99880  0.30540  Biso   1.000  C
  C33      1.0000 0.36170  0.28300  0.33960  Biso   1.000  C
  C34      1.0000 0.13830  0.71700  0.83960  Biso   1.000  C
  C35      1.0000 0.63830  0.78300  0.16040  Biso   1.000  C
  C36      1.0000 0.86170  0.21700  0.66040  Biso   1.000  C
  C37      1.0000 0.63830  0.71700  0.66040  Biso   1.000  C
  C38      1.0000 0.86170  0.28300  0.16040  Biso   1.000  C
  C39      1.0000 0.36170  0.21700  0.83960  Biso   1.000  C
  C40      1.0000 0.13830  0.78300  0.33960  Biso   1.000  C
  N25      1.0000 0.65490  0.13860  0.40850  Biso   1.000  N
  N26      1.0000 0.84510  0.86140  0.90850  Biso   1.000  N
  N27      1.0000 0.34510  0.63860  0.09150  Biso   1.000  N
  N28      1.0000 0.15490  0.36140  0.59150  Biso   1.000  N
  N29      1.0000 0.34510  0.86140  0.59150  Biso   1.000  N
  N30      1.0000 0.15490  0.13860  0.09150  Biso   1.000  N
  N31      1.0000 0.65490  0.36140  0.90850  Biso   1.000  N
  N32      1.0000 0.84510  0.63860  0.40850  Biso   1.000  N
  C41      1.0000 0.54170  0.19820  0.45190  Biso   1.000  C
  C42      1.0000 0.95830  0.80180  0.95190  Biso   1.000  C
  C43      1.0000 0.45830  0.69820  0.04810  Biso   1.000  C
  C44      1.0000 0.04170  0.30180  0.54810  Biso   1.000  C
  C45      1.0000 0.45830  0.80180  0.54810  Biso   1.000  C
  C46      1.0000 0.04170  0.19820  0.04810  Biso   1.000  C
  C47      1.0000 0.54170  0.30180  0.95190  Biso   1.000  C
  C48      1.0000 0.95830  0.69820  0.45190  Biso   1.000  C
  C49      1.0000 0.70310  0.09790  0.39130  Biso   1.000  C
  C50      1.0000 0.79690  0.90210  0.89130  Biso   1.000  C
  C51      1.0000 0.29690  0.59790  0.10870  Biso   1.000  C
  C52      1.0000 0.20310  0.40210  0.60870  Biso   1.000  C
  C53      1.0000 0.29690  0.90210  0.60870  Biso   1.000  C
  C54      1.0000 0.20310  0.09790  0.10870  Biso   1.000  C
  C55      1.0000 0.70310  0.40210  0.89130  Biso   1.000  C
  C56      1.0000 0.79690  0.59790  0.39130  Biso   1.000  C
  H17      1.0000 0.68800  0.08000  0.36100  Biso   1.000  H
  H18      1.0000 0.81200  0.92000  0.86100  Biso   1.000  H
  H19      1.0000 0.31200  0.58000  0.13900  Biso   1.000  H
  H20      1.0000 0.18800  0.42000  0.63900  Biso   1.000  H
  H21      1.0000 0.31200  0.92000  0.63900  Biso   1.000  H
  H22      1.0000 0.18800  0.08000  0.13900  Biso   1.000  H
  H23      1.0000 0.68800  0.42000  0.86100  Biso   1.000  H
  H24      1.0000 0.81200  0.58000  0.36100  Biso   1.000  H
  H25      1.0000 0.70750  0.06830  0.41630  Biso   1.000  H
  H26      1.0000 0.79250  0.93170  0.91630  Biso   1.000  H
  H27      1.0000 0.29250  0.56830  0.08370  Biso   1.000  H
  H28      1.0000 0.20750  0.43170  0.58370  Biso   1.000  H
  H29      1.0000 0.29250  0.93170  0.58370  Biso   1.000  H
  H30      1.0000 0.20750  0.06830  0.08370  Biso   1.000  H
  H31      1.0000 0.70750  0.43170  0.91630  Biso   1.000  H
  H32      1.0000 0.79250  0.56830  0.41630  Biso   1.000  H
  N33      1.0000 0.25780  0.55080  0.25540  Biso   1.000  N
  N34      1.0000 0.24220  0.44920  0.75540  Biso   1.000  N
  N35      1.0000 0.74220  0.05080  0.24460  Biso   1.000  N
  N36      1.0000 0.75780  0.94920  0.74460  Biso   1.000  N
  N37      1.0000 0.74220  0.44920  0.74460  Biso   1.000  N
  N38      1.0000 0.75780  0.55080  0.24460  Biso   1.000  N
  N39      1.0000 0.25780  0.94920  0.75540  Biso   1.000  N
  N40      1.0000 0.24220  0.05080  0.25540  Biso   1.000  N
  C57      1.0000 0.47850  0.39570  0.46480  Biso   1.000  C
  C58      1.0000 0.02150  0.60430  0.96480  Biso   1.000  C
  C59      1.0000 0.52150  0.89570  0.03520  Biso   1.000  C
  C60      1.0000 0.97850  0.10430  0.53520  Biso   1.000  C
  C61      1.0000 0.52150  0.60430  0.53520  Biso   1.000  C
  C62      1.0000 0.97850  0.39570  0.03520  Biso   1.000  C
  C63      1.0000 0.47850  0.10430  0.96480  Biso   1.000  C
  C64      1.0000 0.02150  0.89570  0.46480  Biso   1.000  C
  C65      1.0000 0.38370  0.61490  0.32390  Biso   1.000  C
  C66      1.0000 0.11630  0.38510  0.82390  Biso   1.000  C
  C67      1.0000 0.61630  0.11490  0.17610  Biso   1.000  C
  C68      1.0000 0.88370  0.88510  0.67610  Biso   1.000  C
  C69      1.0000 0.61630  0.38510  0.67610  Biso   1.000  C
  C70      1.0000 0.88370  0.61490  0.17610  Biso   1.000  C
  C71      1.0000 0.38370  0.88510  0.82390  Biso   1.000  C
  C72      1.0000 0.11630  0.11490  0.32390  Biso   1.000  C
  C73      1.0000 0.31360  0.50290  0.42080  Biso   1.000  C
  C74      1.0000 0.18640  0.49710  0.92080  Biso   1.000  C
  C75      1.0000 0.68640  0.00290  0.07920  Biso   1.000  C
  C76      1.0000 0.81360  0.99710  0.57920  Biso   1.000  C
  C77      1.0000 0.68640  0.49710  0.57920  Biso   1.000  C
  C78      1.0000 0.81360  0.50290  0.07920  Biso   1.000  C
  C79      1.0000 0.31360  0.99710  0.92080  Biso   1.000  C
  C80      1.0000 0.18640  0.00290  0.42080  Biso   1.000  C
  H33      1.0000 0.30700  0.52710  0.44960  Biso   1.000  H
  H34      1.0000 0.19300  0.47290  0.94960  Biso   1.000  H
  H35      1.0000 0.69300  0.02710  0.05040  Biso   1.000  H
  H36      1.0000 0.80700  0.97290  0.55040  Biso   1.000  H
  H37      1.0000 0.69300  0.47290  0.55040  Biso   1.000  H
  H38      1.0000 0.80700  0.52710  0.05040  Biso   1.000  H
  H39      1.0000 0.30700  0.97290  0.94960  Biso   1.000  H
  H40      1.0000 0.19300  0.02710  0.44960  Biso   1.000  H
  H41      1.0000 0.33070  0.52660  0.39440  Biso   1.000  H
  H42      1.0000 0.16930  0.47340  0.89440  Biso   1.000  H
  H43      1.0000 0.66930  0.02660  0.10560  Biso   1.000  H
  H44      1.0000 0.83070  0.97340  0.60560  Biso   1.000  H
  H45      1.0000 0.66930  0.47340  0.60560  Biso   1.000  H
  H46      1.0000 0.83070  0.52660  0.10560  Biso   1.000  H
  H47      1.0000 0.33070  0.97340  0.89440  Biso   1.000  H
  H48      1.0000 0.16930  0.02660  0.39440  Biso   1.000  H
  C81      1.0000 0.28040  0.20010  0.29820  Biso   1.000  C
  C82      1.0000 0.21960  0.79990  0.79820  Biso   1.000  C
  C83      1.0000 0.71960  0.70010  0.20180  Biso   1.000  C
  C84      1.0000 0.78040  0.29990  0.70180  Biso   1.000  C
  C85      1.0000 0.71960  0.79990  0.70180  Biso   1.000  C
  C86      1.0000 0.78040  0.20010  0.20180  Biso   1.000  C
  C87      1.0000 0.28040  0.29990  0.79820  Biso   1.000  C
  C88      1.0000 0.21960  0.70010  0.29820  Biso   1.000  C
  H49      1.0000 0.25460  0.17310  0.28310  Biso   1.000  H
  H50      1.0000 0.24540  0.82690  0.78310  Biso   1.000  H
  H51      1.0000 0.74540  0.67310  0.21690  Biso   1.000  H
  H52      1.0000 0.75460  0.32690  0.71690  Biso   1.000  H
  H53      1.0000 0.74540  0.82690  0.71690  Biso   1.000  H
  H54      1.0000 0.75460  0.17310  0.21690  Biso   1.000  H
  H55      1.0000 0.25460  0.32690  0.78310  Biso   1.000  H
  H56      1.0000 0.24540  0.67310  0.28310  Biso   1.000  H
  C89      1.0000 0.26940  0.35210  0.33470  Biso   1.000  C
  C90      1.0000 0.23060  0.64790  0.83470  Biso   1.000  C
  C91      1.0000 0.73060  0.85210  0.16530  Biso   1.000  C
  C92      1.0000 0.76940  0.14790  0.66530  Biso   1.000  C
  C93      1.0000 0.73060  0.64790  0.66530  Biso   1.000  C
  C94      1.0000 0.76940  0.35210  0.16530  Biso   1.000  C
  C95      1.0000 0.26940  0.14790  0.83470  Biso   1.000  C
  C96      1.0000 0.23060  0.85210  0.33470  Biso   1.000  C
  H57      1.0000 0.22920  0.35710  0.32130  Biso   1.000  H
  H58      1.0000 0.27080  0.64290  0.82130  Biso   1.000  H
  H59      1.0000 0.77080  0.85710  0.17870  Biso   1.000  H
  H60      1.0000 0.72920  0.14290  0.67870  Biso   1.000  H
  H61      1.0000 0.77080  0.64290  0.67870  Biso   1.000  H
  H62      1.0000 0.72920  0.35710  0.17870  Biso   1.000  H
  H63      1.0000 0.22920  0.14290  0.82130  Biso   1.000  H
  H64      1.0000 0.27080  0.85710  0.32130  Biso   1.000  H
  C97      1.0000 0.81360  0.07560  0.36790  Biso   1.000  C
  C98      1.0000 0.68640  0.92440  0.86790  Biso   1.000  C
  C99      1.0000 0.18640  0.57560  0.13210  Biso   1.000  C
  C100     1.0000 0.31360  0.42440  0.63210  Biso   1.000  C
  C101     1.0000 0.18640  0.92440  0.63210  Biso   1.000  C
  C102     1.0000 0.31360  0.07560  0.13210  Biso   1.000  C
  C103     1.0000 0.81360  0.42440  0.86790  Biso   1.000  C
  C104     1.0000 0.68640  0.57560  0.36790  Biso   1.000  C
  H65      1.0000 0.79860  0.05590  0.33880  Biso   1.000  H
  H66      1.0000 0.70140  0.94410  0.83880  Biso   1.000  H
  H67      1.0000 0.20140  0.55590  0.16120  Biso   1.000  H
  H68      1.0000 0.29860  0.44410  0.66120  Biso   1.000  H
  H69      1.0000 0.20140  0.94410  0.66120  Biso   1.000  H
  H70      1.0000 0.29860  0.05590  0.16120  Biso   1.000  H
  H71      1.0000 0.79860  0.44410  0.83880  Biso   1.000  H
  H72      1.0000 0.70140  0.55590  0.33880  Biso   1.000  H
  H73      1.0000 0.81690  0.04930  0.39510  Biso   1.000  H
  H74      1.0000 0.68310  0.95070  0.89510  Biso   1.000  H
  H75      1.0000 0.18310  0.54930  0.10490  Biso   1.000  H
  H76      1.0000 0.31690  0.45070  0.60490  Biso   1.000  H
  H77      1.0000 0.18310  0.95070  0.60490  Biso   1.000  H
  H78      1.0000 0.31690  0.04930  0.10490  Biso   1.000  H
  H79      1.0000 0.81690  0.45070  0.89510  Biso   1.000  H
  H80      1.0000 0.68310  0.54930  0.39510  Biso   1.000  H
  H81      1.0000 0.85440  0.09180  0.36110  Biso   1.000  H
  H82      1.0000 0.64560  0.90820  0.86110  Biso   1.000  H
  H83      1.0000 0.14560  0.59180  0.13890  Biso   1.000  H
  H84      1.0000 0.35440  0.40820  0.63890  Biso   1.000  H
  H85      1.0000 0.14560  0.90820  0.63890  Biso   1.000  H
  H86      1.0000 0.35440  0.09180  0.13890  Biso   1.000  H
  H87      1.0000 0.85440  0.40820  0.86110  Biso   1.000  H
  H88      1.0000 0.64560  0.59180  0.36110  Biso   1.000  H
  C105     1.0000 0.48870  0.21950  0.47710  Biso   1.000  C
  C106     1.0000 0.01130  0.78050  0.97710  Biso   1.000  C
  C107     1.0000 0.51130  0.71950  0.02290  Biso   1.000  C
  C108     1.0000 0.98870  0.28050  0.52290  Biso   1.000  C
  C109     1.0000 0.51130  0.78050  0.52290  Biso   1.000  C
  C110     1.0000 0.98870  0.21950  0.02290  Biso   1.000  C
  C111     1.0000 0.48870  0.28050  0.97710  Biso   1.000  C
  C112     1.0000 0.01130  0.71950  0.47710  Biso   1.000  C
  C113     1.0000 0.25130  0.48090  0.40440  Biso   1.000  C
  C114     1.0000 0.24870  0.51910  0.90440  Biso   1.000  C
  C115     1.0000 0.74870  0.98090  0.09560  Biso   1.000  C
  C116     1.0000 0.75130  0.01910  0.59560  Biso   1.000  C
  C117     1.0000 0.74870  0.51910  0.59560  Biso   1.000  C
  C118     1.0000 0.75130  0.48090  0.09560  Biso   1.000  C
  C119     1.0000 0.25130  0.01910  0.90440  Biso   1.000  C
  C120     1.0000 0.24870  0.98090  0.40440  Biso   1.000  C
  C121     1.0000 0.44150  0.43310  0.49440  Biso   1.000  C
  C122     1.0000 0.05850  0.56690  0.99440  Biso   1.000  C
  C123     1.0000 0.55850  0.93310  0.00560  Biso   1.000  C
  C124     1.0000 0.94150  0.06690  0.50560  Biso   1.000  C
  C125     1.0000 0.55850  0.56690  0.50560  Biso   1.000  C
  C126     1.0000 0.94150  0.43310  0.00560  Biso   1.000  C
  C127     1.0000 0.44150  0.06690  0.99440  Biso   1.000  C
  C128     1.0000 0.05850  0.93310  0.49440  Biso   1.000  C
  C129     1.0000 0.79220  0.15520  0.42750  Biso   1.000  C
  C130     1.0000 0.70780  0.84480  0.92750  Biso   1.000  C
  C131     1.0000 0.20780  0.65520  0.07250  Biso   1.000  C
  C132     1.0000 0.29220  0.34480  0.57250  Biso   1.000  C
  C133     1.0000 0.20780  0.84480  0.57250  Biso   1.000  C
  C134     1.0000 0.29220  0.15520  0.07250  Biso   1.000  C
  C135     1.0000 0.79220  0.34480  0.92750  Biso   1.000  C
  C136     1.0000 0.70780  0.65520  0.42750  Biso   1.000  C
  H89      1.0000 0.76340  0.18520  0.43600  Biso   1.000  H
  H90      1.0000 0.73660  0.81480  0.93600  Biso   1.000  H
  H91      1.0000 0.23660  0.68520  0.06400  Biso   1.000  H
  H92      1.0000 0.26340  0.31480  0.56400  Biso   1.000  H
  H93      1.0000 0.23660  0.81480  0.56400  Biso   1.000  H
  H94      1.0000 0.26340  0.18520  0.06400  Biso   1.000  H
  H95      1.0000 0.76340  0.31480  0.93600  Biso   1.000  H
  H96      1.0000 0.73660  0.68520  0.43600  Biso   1.000  H
  H97      1.0000 0.83300  0.17100  0.42020  Biso   1.000  H
  H98      1.0000 0.66700  0.82900  0.92020  Biso   1.000  H
  H99      1.0000 0.16700  0.67100  0.07980  Biso   1.000  H
  H100     1.0000 0.33300  0.32900  0.57980  Biso   1.000  H
  H101     1.0000 0.16700  0.82900  0.57980  Biso   1.000  H
  H102     1.0000 0.33300  0.17100  0.07980  Biso   1.000  H
  H103     1.0000 0.83300  0.32900  0.92020  Biso   1.000  H
  H104     1.0000 0.66700  0.67100  0.42020  Biso   1.000  H
  H105     1.0000 0.79580  0.12920  0.45500  Biso   1.000  H
  H106     1.0000 0.70420  0.87080  0.95500  Biso   1.000  H
  H107     1.0000 0.20420  0.62920  0.04500  Biso   1.000  H
  H108     1.0000 0.29580  0.37080  0.54500  Biso   1.000  H
  H109     1.0000 0.20420  0.87080  0.54500  Biso   1.000  H
  H110     1.0000 0.29580  0.12920  0.04500  Biso   1.000  H
  H111     1.0000 0.79580  0.37080  0.95500  Biso   1.000  H
  H112     1.0000 0.70420  0.62920  0.45500  Biso   1.000  H
  C137     1.0000 0.34230  0.18580  0.31240  Biso   1.000  C
  C138     1.0000 0.15770  0.81420  0.81240  Biso   1.000  C
  C139     1.0000 0.65770  0.68580  0.18760  Biso   1.000  C
  C140     1.0000 0.84230  0.31420  0.68760  Biso   1.000  C
  C141     1.0000 0.65770  0.81420  0.68760  Biso   1.000  C
  C142     1.0000 0.84230  0.18580  0.18760  Biso   1.000  C
  C143     1.0000 0.34230  0.31420  0.81240  Biso   1.000  C
  C144     1.0000 0.15770  0.68580  0.31240  Biso   1.000  C
  H113     1.0000 0.35680  0.14870  0.30810  Biso   1.000  H
  H114     1.0000 0.14320  0.85130  0.80810  Biso   1.000  H
  H115     1.0000 0.64320  0.64870  0.19190  Biso   1.000  H
  H116     1.0000 0.85680  0.35130  0.69190  Biso   1.000  H
  H117     1.0000 0.64320  0.85130  0.69190  Biso   1.000  H
  H118     1.0000 0.85680  0.14870  0.19190  Biso   1.000  H
  H119     1.0000 0.35680  0.35130  0.80810  Biso   1.000  H
  H120     1.0000 0.14320  0.64870  0.30810  Biso   1.000  H
  C145     1.0000 0.22110  0.44180  0.44370  Biso   1.000  C
  C146     1.0000 0.27890  0.55820  0.94370  Biso   1.000  C
  C147     1.0000 0.77890  0.94180  0.05630  Biso   1.000  C
  C148     1.0000 0.72110  0.05820  0.55630  Biso   1.000  C
  C149     1.0000 0.77890  0.55820  0.55630  Biso   1.000  C
  C150     1.0000 0.72110  0.44180  0.05630  Biso   1.000  C
  C151     1.0000 0.22110  0.05820  0.94370  Biso   1.000  C
  C152     1.0000 0.27890  0.94180  0.44370  Biso   1.000  C
  H121     1.0000 0.24770  0.40920  0.44880  Biso   1.000  H
  H122     1.0000 0.25230  0.59080  0.94880  Biso   1.000  H
  H123     1.0000 0.75230  0.90920  0.05120  Biso   1.000  H
  H124     1.0000 0.74770  0.09080  0.55120  Biso   1.000  H
  H125     1.0000 0.75230  0.59080  0.55120  Biso   1.000  H
  H126     1.0000 0.74770  0.40920  0.05120  Biso   1.000  H
  H127     1.0000 0.24770  0.09080  0.94880  Biso   1.000  H
  H128     1.0000 0.25230  0.90920  0.44880  Biso   1.000  H
  H129     1.0000 0.18030  0.42970  0.43230  Biso   1.000  H
  H130     1.0000 0.31970  0.57030  0.93230  Biso   1.000  H
  H131     1.0000 0.81970  0.92970  0.06770  Biso   1.000  H
  H132     1.0000 0.68030  0.07030  0.56770  Biso   1.000  H
  H133     1.0000 0.81970  0.57030  0.56770  Biso   1.000  H
  H134     1.0000 0.68030  0.42970  0.06770  Biso   1.000  H
  H135     1.0000 0.18030  0.07030  0.93230  Biso   1.000  H
  H136     1.0000 0.31970  0.92970  0.43230  Biso   1.000  H
  H137     1.0000 0.21660  0.46230  0.47440  Biso   1.000  H
  H138     1.0000 0.28340  0.53770  0.97440  Biso   1.000  H
  H139     1.0000 0.78340  0.96230  0.02560  Biso   1.000  H
  H140     1.0000 0.71660  0.03770  0.52560  Biso   1.000  H
  H141     1.0000 0.78340  0.53770  0.52560  Biso   1.000  H
  H142     1.0000 0.71660  0.46230  0.02560  Biso   1.000  H
  H143     1.0000 0.21660  0.03770  0.97440  Biso   1.000  H
  H144     1.0000 0.28340  0.96230  0.47440  Biso   1.000  H
  C153     1.0000 0.71780  0.31530  0.31840  Biso   1.000  C
  C154     1.0000 0.78220  0.68470  0.81840  Biso   1.000  C
  C155     1.0000 0.28220  0.81530  0.18160  Biso   1.000  C
  C156     1.0000 0.21780  0.18470  0.68160  Biso   1.000  C
  C157     1.0000 0.28220  0.68470  0.68160  Biso   1.000  C
  C158     1.0000 0.21780  0.31530  0.18160  Biso   1.000  C
  C159     1.0000 0.71780  0.18470  0.81840  Biso   1.000  C
  C160     1.0000 0.78220  0.81530  0.31840  Biso   1.000  C
  C161     1.0000 0.75440  0.35880  0.29490  Biso   1.000  C
  C162     1.0000 0.74560  0.64120  0.79490  Biso   1.000  C
  C163     1.0000 0.24560  0.85880  0.20510  Biso   1.000  C
  C164     1.0000 0.25440  0.14120  0.70510  Biso   1.000  C
  C165     1.0000 0.24560  0.64120  0.70510  Biso   1.000  C
  C166     1.0000 0.25440  0.35880  0.20510  Biso   1.000  C
  C167     1.0000 0.75440  0.14120  0.79490  Biso   1.000  C
  C168     1.0000 0.74560  0.85880  0.29490  Biso   1.000  C
  H145     1.0000 0.79500  0.35060  0.28370  Biso   1.000  H
  H146     1.0000 0.70500  0.64940  0.78370  Biso   1.000  H
  H147     1.0000 0.20500  0.85060  0.21630  Biso   1.000  H
  H148     1.0000 0.29500  0.14940  0.71630  Biso   1.000  H
  H149     1.0000 0.20500  0.64940  0.71630  Biso   1.000  H
  H150     1.0000 0.29500  0.35060  0.21630  Biso   1.000  H
  H151     1.0000 0.79500  0.14940  0.78370  Biso   1.000  H
  H152     1.0000 0.70500  0.85060  0.28370  Biso   1.000  H
  C169     1.0000 0.67020  0.42490  0.30610  Biso   1.000  C
  C170     1.0000 0.82980  0.57510  0.80610  Biso   1.000  C
  C171     1.0000 0.32980  0.92490  0.19390  Biso   1.000  C
  C172     1.0000 0.17020  0.07510  0.69390  Biso   1.000  C
  C173     1.0000 0.32980  0.57510  0.69390  Biso   1.000  C
  C174     1.0000 0.17020  0.42490  0.19390  Biso   1.000  C
  C175     1.0000 0.67020  0.07510  0.80610  Biso   1.000  C
  C176     1.0000 0.82980  0.92490  0.30610  Biso   1.000  C
  H153     1.0000 0.65400  0.46120  0.30120  Biso   1.000  H
  H154     1.0000 0.84600  0.53880  0.80120  Biso   1.000  H
  H155     1.0000 0.34600  0.96120  0.19880  Biso   1.000  H
  H156     1.0000 0.15400  0.03880  0.69880  Biso   1.000  H
  H157     1.0000 0.34600  0.53880  0.69880  Biso   1.000  H
  H158     1.0000 0.15400  0.46120  0.19880  Biso   1.000  H
  H159     1.0000 0.65400  0.03880  0.80120  Biso   1.000  H
  H160     1.0000 0.84600  0.96120  0.30120  Biso   1.000  H
  C177     1.0000 0.45970  0.44410  0.54390  Biso   1.000  C
  C178     1.0000 0.04030  0.55590  0.04390  Biso   1.000  C
  C179     1.0000 0.54030  0.94410  0.95610  Biso   1.000  C
  C180     1.0000 0.95970  0.05590  0.45610  Biso   1.000  C
  C181     1.0000 0.54030  0.55590  0.45610  Biso   1.000  C
  C182     1.0000 0.95970  0.44410  0.95610  Biso   1.000  C
  C183     1.0000 0.45970  0.05590  0.04390  Biso   1.000  C
  C184     1.0000 0.04030  0.94410  0.54390  Biso   1.000  C
  H161     1.0000 0.43580  0.46890  0.56330  Biso   1.000  H
  H162     1.0000 0.06420  0.53110  0.06330  Biso   1.000  H
  H163     1.0000 0.56420  0.96890  0.93670  Biso   1.000  H
  H164     1.0000 0.93580  0.03110  0.43670  Biso   1.000  H
  H165     1.0000 0.56420  0.53110  0.43670  Biso   1.000  H
  H166     1.0000 0.93580  0.46890  0.93670  Biso   1.000  H
  H167     1.0000 0.43580  0.03110  0.06330  Biso   1.000  H
  H168     1.0000 0.06420  0.96890  0.56330  Biso   1.000  H
  C185     1.0000 0.65600  0.32740  0.33450  Biso   1.000  C
  C186     1.0000 0.84400  0.67260  0.83450  Biso   1.000  C
  C187     1.0000 0.34400  0.82740  0.16550  Biso   1.000  C
  C188     1.0000 0.15600  0.17260  0.66550  Biso   1.000  C
  C189     1.0000 0.34400  0.67260  0.66550  Biso   1.000  C
  C190     1.0000 0.15600  0.32740  0.16550  Biso   1.000  C
  C191     1.0000 0.65600  0.17260  0.83450  Biso   1.000  C
  C192     1.0000 0.84400  0.82740  0.33450  Biso   1.000  C
  N41      1.0000 0.37240  0.64360  0.35700  Biso   1.000  N
  N42      1.0000 0.12760  0.35640  0.85700  Biso   1.000  N
  N43      1.0000 0.62760  0.14360  0.14300  Biso   1.000  N
  N44      1.0000 0.87240  0.85640  0.64300  Biso   1.000  N
  N45      1.0000 0.62760  0.35640  0.64300  Biso   1.000  N
  N46      1.0000 0.87240  0.64360  0.14300  Biso   1.000  N
  N47      1.0000 0.37240  0.85640  0.85700  Biso   1.000  N
  N48      1.0000 0.12760  0.14360  0.35700  Biso   1.000  N
  C193     1.0000 0.63430  0.38460  0.33050  Biso   1.000  C
  C194     1.0000 0.86570  0.61540  0.83050  Biso   1.000  C
  C195     1.0000 0.36570  0.88460  0.16950  Biso   1.000  C
  C196     1.0000 0.13430  0.11540  0.66950  Biso   1.000  C
  C197     1.0000 0.36570  0.61540  0.66950  Biso   1.000  C
  C198     1.0000 0.13430  0.38460  0.16950  Biso   1.000  C
  C199     1.0000 0.63430  0.11540  0.83050  Biso   1.000  C
  C200     1.0000 0.86570  0.88460  0.33050  Biso   1.000  C
  C201     1.0000 0.39850  0.63390  0.22460  Biso   1.000  C
  C202     1.0000 0.10150  0.36610  0.72460  Biso   1.000  C
  C203     1.0000 0.60150  0.13390  0.27540  Biso   1.000  C
  C204     1.0000 0.89850  0.86610  0.77540  Biso   1.000  C
  C205     1.0000 0.60150  0.36610  0.77540  Biso   1.000  C
  C206     1.0000 0.89850  0.63390  0.27540  Biso   1.000  C
  C207     1.0000 0.39850  0.86610  0.72460  Biso   1.000  C
  C208     1.0000 0.10150  0.13390  0.22460  Biso   1.000  C
  C209     1.0000 0.62730  0.12560  0.44890  Biso   1.000  C
  C210     1.0000 0.87270  0.87440  0.94890  Biso   1.000  C
  C211     1.0000 0.37270  0.62560  0.05110  Biso   1.000  C
  C212     1.0000 0.12730  0.37440  0.55110  Biso   1.000  C
  C213     1.0000 0.37270  0.87440  0.55110  Biso   1.000  C
  C214     1.0000 0.12730  0.12560  0.05110  Biso   1.000  C
  C215     1.0000 0.62730  0.37440  0.94890  Biso   1.000  C
  C216     1.0000 0.87270  0.62560  0.44890  Biso   1.000  C
  H169     1.0000 0.64290  0.09360  0.46510  Biso   1.000  H
  H170     1.0000 0.85710  0.90640  0.96510  Biso   1.000  H
  H171     1.0000 0.35710  0.59360  0.03490  Biso   1.000  H
  H172     1.0000 0.14290  0.40640  0.53490  Biso   1.000  H
  H173     1.0000 0.35710  0.90640  0.53490  Biso   1.000  H
  H174     1.0000 0.14290  0.09360  0.03490  Biso   1.000  H
  H175     1.0000 0.64290  0.40640  0.96510  Biso   1.000  H
  H176     1.0000 0.85710  0.59360  0.46510  Biso   1.000  H
  C217     1.0000 0.29760  0.29550  0.32800  Biso   1.000  C
  C218     1.0000 0.20240  0.70450  0.82800  Biso   1.000  C
  C219     1.0000 0.70240  0.79550  0.17200  Biso   1.000  C
  C220     1.0000 0.79760  0.20450  0.67200  Biso   1.000  C
  C221     1.0000 0.70240  0.70450  0.67200  Biso   1.000  C
  C222     1.0000 0.79760  0.29550  0.17200  Biso   1.000  C
  C223     1.0000 0.29760  0.20450  0.82800  Biso   1.000  C
  C224     1.0000 0.20240  0.79550  0.32800  Biso   1.000  C
  C225     1.0000 0.39460  0.27740  0.47220  Biso   1.000  C
  C226     1.0000 0.10540  0.72260  0.97220  Biso   1.000  C
  C227     1.0000 0.60540  0.77740  0.02780  Biso   1.000  C
  C228     1.0000 0.89460  0.22260  0.52780  Biso   1.000  C
  C229     1.0000 0.60540  0.72260  0.52780  Biso   1.000  C
  C230     1.0000 0.89460  0.27740  0.02780  Biso   1.000  C
  C231     1.0000 0.39460  0.22260  0.97220  Biso   1.000  C
  C232     1.0000 0.10540  0.77740  0.47220  Biso   1.000  C
  H177     1.0000 0.36920  0.24380  0.47630  Biso   1.000  H
  H178     1.0000 0.13080  0.75620  0.97630  Biso   1.000  H
  H179     1.0000 0.63080  0.74380  0.02370  Biso   1.000  H
  H180     1.0000 0.86920  0.25620  0.52370  Biso   1.000  H
  H181     1.0000 0.63080  0.75620  0.52370  Biso   1.000  H
  H182     1.0000 0.86920  0.24380  0.02370  Biso   1.000  H
  H183     1.0000 0.36920  0.25620  0.97630  Biso   1.000  H
  H184     1.0000 0.13080  0.74380  0.47630  Biso   1.000  H
  H185     1.0000 0.37390  0.30310  0.44970  Biso   1.000  H
  H186     1.0000 0.12610  0.69690  0.94970  Biso   1.000  H
  H187     1.0000 0.62610  0.80310  0.05030  Biso   1.000  H
  H188     1.0000 0.87390  0.19690  0.55030  Biso   1.000  H
  H189     1.0000 0.62610  0.69690  0.55030  Biso   1.000  H
  H190     1.0000 0.87390  0.30310  0.05030  Biso   1.000  H
  H191     1.0000 0.37390  0.19690  0.94970  Biso   1.000  H
  H192     1.0000 0.12610  0.80310  0.44970  Biso   1.000  H
  H193     1.0000 0.40000  0.29570  0.50390  Biso   1.000  H
  H194     1.0000 0.10000  0.70430  0.00390  Biso   1.000  H
  H195     1.0000 0.60000  0.79570  0.99610  Biso   1.000  H
  H196     1.0000 0.90000  0.20430  0.49610  Biso   1.000  H
  H197     1.0000 0.60000  0.70430  0.49610  Biso   1.000  H
  H198     1.0000 0.90000  0.29570  0.99610  Biso   1.000  H
  H199     1.0000 0.40000  0.20430  0.00390  Biso   1.000  H
  H200     1.0000 0.10000  0.79570  0.50390  Biso   1.000  H
  C233     1.0000 0.74700  0.26000  0.32240  Biso   1.000  C
  C234     1.0000 0.75300  0.74000  0.82240  Biso   1.000  C
  C235     1.0000 0.25300  0.76000  0.17760  Biso   1.000  C
  C236     1.0000 0.24700  0.24000  0.67760  Biso   1.000  C
  C237     1.0000 0.25300  0.74000  0.67760  Biso   1.000  C
  C238     1.0000 0.24700  0.26000  0.17760  Biso   1.000  C
  C239     1.0000 0.74700  0.24000  0.82240  Biso   1.000  C
  C240     1.0000 0.75300  0.76000  0.32240  Biso   1.000  C
  H201     1.0000 0.78710  0.25650  0.30840  Biso   1.000  H
  H202     1.0000 0.71290  0.74350  0.80840  Biso   1.000  H
  H203     1.0000 0.21290  0.75650  0.19160  Biso   1.000  H
  H204     1.0000 0.28710  0.24350  0.69160  Biso   1.000  H
  H205     1.0000 0.21290  0.74350  0.69160  Biso   1.000  H
  H206     1.0000 0.28710  0.25650  0.19160  Biso   1.000  H
  H207     1.0000 0.78710  0.24350  0.80840  Biso   1.000  H
  H208     1.0000 0.71290  0.75650  0.30840  Biso   1.000  H
  C241     1.0000 0.47040  0.19840  0.52190  Biso   1.000  C
  C242     1.0000 0.02960  0.80160  0.02190  Biso   1.000  C
  C243     1.0000 0.52960  0.69840  0.97810  Biso   1.000  C
  C244     1.0000 0.97040  0.30160  0.47810  Biso   1.000  C
  C245     1.0000 0.52960  0.80160  0.47810  Biso   1.000  C
  C246     1.0000 0.97040  0.19840  0.97810  Biso   1.000  C
  C247     1.0000 0.47040  0.30160  0.02190  Biso   1.000  C
  C248     1.0000 0.02960  0.69840  0.52190  Biso   1.000  C
  H209     1.0000 0.43420  0.21290  0.53710  Biso   1.000  H
  H210     1.0000 0.06580  0.78710  0.03710  Biso   1.000  H
  H211     1.0000 0.56580  0.71290  0.96290  Biso   1.000  H
  H212     1.0000 0.93420  0.28710  0.46290  Biso   1.000  H
  H213     1.0000 0.56580  0.78710  0.46290  Biso   1.000  H
  H214     1.0000 0.93420  0.21290  0.96290  Biso   1.000  H
  H215     1.0000 0.43420  0.28710  0.03710  Biso   1.000  H
  H216     1.0000 0.06580  0.71290  0.53710  Biso   1.000  H
  C249     1.0000 0.25810  0.25380  0.30670  Biso   1.000  C
  C250     1.0000 0.24190  0.74620  0.80670  Biso   1.000  C
  C251     1.0000 0.74190  0.75380  0.19330  Biso   1.000  C
  C252     1.0000 0.75810  0.24620  0.69330  Biso   1.000  C
  C253     1.0000 0.74190  0.74620  0.69330  Biso   1.000  C
  C254     1.0000 0.75810  0.25380  0.19330  Biso   1.000  C
  C255     1.0000 0.25810  0.24620  0.80670  Biso   1.000  C
  C256     1.0000 0.24190  0.75380  0.30670  Biso   1.000  C
  H217     1.0000 0.21660  0.26290  0.29840  Biso   1.000  H
  H218     1.0000 0.28340  0.73710  0.79840  Biso   1.000  H
  H219     1.0000 0.78340  0.76290  0.20160  Biso   1.000  H
  H220     1.0000 0.71660  0.23710  0.70160  Biso   1.000  H
  H221     1.0000 0.78340  0.73710  0.70160  Biso   1.000  H
  H222     1.0000 0.71660  0.26290  0.20160  Biso   1.000  H
  H223     1.0000 0.21660  0.23710  0.79840  Biso   1.000  H
  H224     1.0000 0.28340  0.76290  0.29840  Biso   1.000  H
  C257     1.0000 0.38950  0.46510  0.47500  Biso   1.000  C
  C258     1.0000 0.11050  0.53490  0.97500  Biso   1.000  C
  C259     1.0000 0.61050  0.96510  0.02500  Biso   1.000  C
  C260     1.0000 0.88950  0.03490  0.52500  Biso   1.000  C
  C261     1.0000 0.61050  0.53490  0.52500  Biso   1.000  C
  C262     1.0000 0.88950  0.46510  0.02500  Biso   1.000  C
  C263     1.0000 0.38950  0.03490  0.97500  Biso   1.000  C
  C264     1.0000 0.11050  0.96510  0.47500  Biso   1.000  C
  H225     1.0000 0.37440  0.49420  0.49530  Biso   1.000  H
  H226     1.0000 0.12560  0.50580  0.99530  Biso   1.000  H
  H227     1.0000 0.62560  0.99420  0.00470  Biso   1.000  H
  H228     1.0000 0.87440  0.00580  0.50470  Biso   1.000  H
  H229     1.0000 0.62560  0.50580  0.50470  Biso   1.000  H
  H230     1.0000 0.87440  0.49420  0.00470  Biso   1.000  H
  H231     1.0000 0.37440  0.00580  0.99530  Biso   1.000  H
  H232     1.0000 0.12560  0.99420  0.49530  Biso   1.000  H
  C265     1.0000 0.54860  0.38230  0.53500  Biso   1.000  C
  C266     1.0000 0.95140  0.61770  0.03500  Biso   1.000  C
  C267     1.0000 0.45140  0.88230  0.96500  Biso   1.000  C
  C268     1.0000 0.04860  0.11770  0.46500  Biso   1.000  C
  C269     1.0000 0.45140  0.61770  0.46500  Biso   1.000  C
  C270     1.0000 0.04860  0.38230  0.96500  Biso   1.000  C
  C271     1.0000 0.54860  0.11770  0.03500  Biso   1.000  C
  C272     1.0000 0.95140  0.88230  0.53500  Biso   1.000  C
  H233     1.0000 0.58420  0.36520  0.54890  Biso   1.000  H
  H234     1.0000 0.91580  0.63480  0.04890  Biso   1.000  H
  H235     1.0000 0.41580  0.86520  0.95110  Biso   1.000  H
  H236     1.0000 0.08420  0.13480  0.45110  Biso   1.000  H
  H237     1.0000 0.41580  0.63480  0.45110  Biso   1.000  H
  H238     1.0000 0.08420  0.36520  0.95110  Biso   1.000  H
  H239     1.0000 0.58420  0.13480  0.04890  Biso   1.000  H
  H240     1.0000 0.91580  0.86520  0.54890  Biso   1.000  H
  C273     1.0000 0.62960  0.31900  0.47030  Biso   1.000  C
  C274     1.0000 0.87040  0.68100  0.97030  Biso   1.000  C
  C275     1.0000 0.37040  0.81900  0.02970  Biso   1.000  C
  C276     1.0000 0.12960  0.18100  0.52970  Biso   1.000  C
  C277     1.0000 0.37040  0.68100  0.52970  Biso   1.000  C
  C278     1.0000 0.12960  0.31900  0.02970  Biso   1.000  C
  C279     1.0000 0.62960  0.18100  0.97030  Biso   1.000  C
  C280     1.0000 0.87040  0.81900  0.47030  Biso   1.000  C
  H241     1.0000 0.64010  0.33800  0.50090  Biso   1.000  H
  H242     1.0000 0.85990  0.66200  0.00090  Biso   1.000  H
  H243     1.0000 0.35990  0.83800  0.99910  Biso   1.000  H
  H244     1.0000 0.14010  0.16200  0.49910  Biso   1.000  H
  H245     1.0000 0.35990  0.66200  0.49910  Biso   1.000  H
  H246     1.0000 0.14010  0.33800  0.99910  Biso   1.000  H
  H247     1.0000 0.64010  0.16200  0.00090  Biso   1.000  H
  H248     1.0000 0.85990  0.83800  0.50090  Biso   1.000  H
  H249     1.0000 0.66020  0.32840  0.44530  Biso   1.000  H
  H250     1.0000 0.83980  0.67160  0.94530  Biso   1.000  H
  H251     1.0000 0.33980  0.82840  0.05470  Biso   1.000  H
  H252     1.0000 0.16020  0.17160  0.55470  Biso   1.000  H
  H253     1.0000 0.33980  0.67160  0.55470  Biso   1.000  H
  H254     1.0000 0.16020  0.32840  0.05470  Biso   1.000  H
  H255     1.0000 0.66020  0.17160  0.94530  Biso   1.000  H
  H256     1.0000 0.83980  0.82840  0.44530  Biso   1.000  H
  H257     1.0000 0.62960  0.27850  0.47570  Biso   1.000  H
  H258     1.0000 0.87040  0.72150  0.97570  Biso   1.000  H
  H259     1.0000 0.37040  0.77850  0.02430  Biso   1.000  H
  H260     1.0000 0.12960  0.22150  0.52430  Biso   1.000  H
  H261     1.0000 0.37040  0.72150  0.52430  Biso   1.000  H
  H262     1.0000 0.12960  0.27850  0.02430  Biso   1.000  H
  H263     1.0000 0.62960  0.22150  0.97570  Biso   1.000  H
  H264     1.0000 0.87040  0.77850  0.47570  Biso   1.000  H
  C281     1.0000 0.31200  0.55670  0.25910  Biso   1.000  C
  C282     1.0000 0.18800  0.44330  0.75910  Biso   1.000  C
  C283     1.0000 0.68800  0.05670  0.24090  Biso   1.000  C
  C284     1.0000 0.81200  0.94330  0.74090  Biso   1.000  C
  C285     1.0000 0.68800  0.44330  0.74090  Biso   1.000  C
  C286     1.0000 0.81200  0.55670  0.24090  Biso   1.000  C
  C287     1.0000 0.31200  0.94330  0.75910  Biso   1.000  C
  C288     1.0000 0.18800  0.05670  0.25910  Biso   1.000  C
  C289     1.0000 0.53190  0.37160  0.48600  Biso   1.000  C
  C290     1.0000 0.96810  0.62840  0.98600  Biso   1.000  C
  C291     1.0000 0.46810  0.87160  0.01400  Biso   1.000  C
  C292     1.0000 0.03190  0.12840  0.51400  Biso   1.000  C
  C293     1.0000 0.46810  0.62840  0.51400  Biso   1.000  C
  C294     1.0000 0.03190  0.37160  0.01400  Biso   1.000  C
  C295     1.0000 0.53190  0.12840  0.98600  Biso   1.000  C
  C296     1.0000 0.96810  0.87160  0.48600  Biso   1.000  C
  C297     1.0000 0.20630  0.53160  0.39780  Biso   1.000  C
  C298     1.0000 0.29370  0.46840  0.89780  Biso   1.000  C
  C299     1.0000 0.79370  0.03160  0.10220  Biso   1.000  C
  C300     1.0000 0.70630  0.96840  0.60220  Biso   1.000  C
  C301     1.0000 0.79370  0.46840  0.60220  Biso   1.000  C
  C302     1.0000 0.70630  0.53160  0.10220  Biso   1.000  C
  C303     1.0000 0.20630  0.96840  0.89780  Biso   1.000  C
  C304     1.0000 0.29370  0.03160  0.39780  Biso   1.000  C
  H265     1.0000 0.22310  0.55700  0.37310  Biso   1.000  H
  H266     1.0000 0.27690  0.44300  0.87310  Biso   1.000  H
  H267     1.0000 0.77690  0.05700  0.12690  Biso   1.000  H
  H268     1.0000 0.72310  0.94300  0.62690  Biso   1.000  H
  H269     1.0000 0.77690  0.44300  0.62690  Biso   1.000  H
  H270     1.0000 0.72310  0.55700  0.12690  Biso   1.000  H
  H271     1.0000 0.22310  0.94300  0.87310  Biso   1.000  H
  H272     1.0000 0.27690  0.05700  0.37310  Biso   1.000  H
  H273     1.0000 0.20210  0.55140  0.42890  Biso   1.000  H
  H274     1.0000 0.29790  0.44860  0.92890  Biso   1.000  H
  H275     1.0000 0.79790  0.05140  0.07110  Biso   1.000  H
  H276     1.0000 0.70210  0.94860  0.57110  Biso   1.000  H
  H277     1.0000 0.79790  0.44860  0.57110  Biso   1.000  H
  H278     1.0000 0.70210  0.55140  0.07110  Biso   1.000  H
  H279     1.0000 0.20210  0.94860  0.92890  Biso   1.000  H
  H280     1.0000 0.29790  0.05140  0.42890  Biso   1.000  H
  H281     1.0000 0.16560  0.51800  0.38730  Biso   1.000  H
  H282     1.0000 0.33440  0.48200  0.88730  Biso   1.000  H
  H283     1.0000 0.83440  0.01800  0.11270  Biso   1.000  H
  H284     1.0000 0.66560  0.98200  0.61270  Biso   1.000  H
  H285     1.0000 0.83440  0.48200  0.61270  Biso   1.000  H
  H286     1.0000 0.66560  0.51800  0.11270  Biso   1.000  H
  H287     1.0000 0.16560  0.98200  0.88730  Biso   1.000  H
  H288     1.0000 0.33440  0.01800  0.38730  Biso   1.000  H
  C305     1.0000 0.41730  0.52210  0.20890  Biso   1.000  C
  C306     1.0000 0.08270  0.47790  0.70890  Biso   1.000  C
  C307     1.0000 0.58270  0.02210  0.29110  Biso   1.000  C
  C308     1.0000 0.91730  0.97790  0.79110  Biso   1.000  C
  C309     1.0000 0.58270  0.47790  0.79110  Biso   1.000  C
  C310     1.0000 0.91730  0.52210  0.29110  Biso   1.000  C
  C311     1.0000 0.41730  0.97790  0.70890  Biso   1.000  C
  C312     1.0000 0.08270  0.02210  0.20890  Biso   1.000  C
  C313     1.0000 0.57440  0.15430  0.47320  Biso   1.000  C
  C314     1.0000 0.92560  0.84570  0.97320  Biso   1.000  C
  C315     1.0000 0.42560  0.65430  0.02680  Biso   1.000  C
  C316     1.0000 0.07440  0.34570  0.52680  Biso   1.000  C
  C317     1.0000 0.42560  0.84570  0.52680  Biso   1.000  C
  C318     1.0000 0.07440  0.15430  0.02680  Biso   1.000  C
  C319     1.0000 0.57440  0.34570  0.97320  Biso   1.000  C
  C320     1.0000 0.92560  0.65430  0.47320  Biso   1.000  C
  C321     1.0000 0.73070  0.41170  0.28890  Biso   1.000  C
  C322     1.0000 0.76930  0.58830  0.78890  Biso   1.000  C
  C323     1.0000 0.26930  0.91170  0.21110  Biso   1.000  C
  C324     1.0000 0.23070  0.08830  0.71110  Biso   1.000  C
  C325     1.0000 0.26930  0.58830  0.71110  Biso   1.000  C
  C326     1.0000 0.23070  0.41170  0.21110  Biso   1.000  C
  C327     1.0000 0.73070  0.08830  0.78890  Biso   1.000  C
  C328     1.0000 0.76930  0.91170  0.28890  Biso   1.000  C
  H289     1.0000 0.75480  0.43950  0.27310  Biso   1.000  H
  H290     1.0000 0.74520  0.56050  0.77310  Biso   1.000  H
  H291     1.0000 0.24520  0.93950  0.22690  Biso   1.000  H
  H292     1.0000 0.25480  0.06050  0.72690  Biso   1.000  H
  H293     1.0000 0.24520  0.56050  0.72690  Biso   1.000  H
  H294     1.0000 0.25480  0.43950  0.22690  Biso   1.000  H
  H295     1.0000 0.75480  0.06050  0.77310  Biso   1.000  H
  H296     1.0000 0.74520  0.93950  0.27310  Biso   1.000  H
  C329     1.0000 0.50360  0.15700  0.54490  Biso   1.000  C
  C330     1.0000 0.99640  0.84300  0.04490  Biso   1.000  C
  C331     1.0000 0.49640  0.65700  0.95510  Biso   1.000  C
  C332     1.0000 0.00360  0.34300  0.45510  Biso   1.000  C
  C333     1.0000 0.49640  0.84300  0.45510  Biso   1.000  C
  C334     1.0000 0.00360  0.15700  0.95510  Biso   1.000  C
  C335     1.0000 0.50360  0.34300  0.04490  Biso   1.000  C
  C336     1.0000 0.99640  0.65700  0.54490  Biso   1.000  C
  H297     1.0000 0.49220  0.14430  0.57650  Biso   1.000  H
  H298     1.0000 0.00780  0.85570  0.07650  Biso   1.000  H
  H299     1.0000 0.50780  0.64430  0.92350  Biso   1.000  H
  H300     1.0000 0.99220  0.35570  0.42350  Biso   1.000  H
  H301     1.0000 0.50780  0.85570  0.42350  Biso   1.000  H
  H302     1.0000 0.99220  0.14430  0.92350  Biso   1.000  H
  H303     1.0000 0.49220  0.35570  0.07650  Biso   1.000  H
  H304     1.0000 0.00780  0.64430  0.57650  Biso   1.000  H
  C337     1.0000 0.49170  0.57860  0.27790  Biso   1.000  C
  C338     1.0000 0.00830  0.42140  0.77790  Biso   1.000  C
  C339     1.0000 0.50830  0.07860  0.22210  Biso   1.000  C
  C340     1.0000 0.99170  0.92140  0.72210  Biso   1.000  C
  C341     1.0000 0.50830  0.42140  0.72210  Biso   1.000  C
  C342     1.0000 0.99170  0.57860  0.22210  Biso   1.000  C
  C343     1.0000 0.49170  0.92140  0.77790  Biso   1.000  C
  C344     1.0000 0.00830  0.07860  0.27790  Biso   1.000  C
  C345     1.0000 0.51090  0.41930  0.56310  Biso   1.000  C
  C346     1.0000 0.98910  0.58070  0.06310  Biso   1.000  C
  C347     1.0000 0.48910  0.91930  0.93690  Biso   1.000  C
  C348     1.0000 0.01090  0.08070  0.43690  Biso   1.000  C
  C349     1.0000 0.48910  0.58070  0.43690  Biso   1.000  C
  C350     1.0000 0.01090  0.41930  0.93690  Biso   1.000  C
  C351     1.0000 0.51090  0.08070  0.06310  Biso   1.000  C
  C352     1.0000 0.98910  0.91930  0.56310  Biso   1.000  C
  H305     1.0000 0.52190  0.42680  0.59610  Biso   1.000  H
  H306     1.0000 0.97810  0.57320  0.09610  Biso   1.000  H
  H307     1.0000 0.47810  0.92680  0.90390  Biso   1.000  H
  H308     1.0000 0.02190  0.07320  0.40390  Biso   1.000  H
  H309     1.0000 0.47810  0.57320  0.40390  Biso   1.000  H
  H310     1.0000 0.02190  0.42680  0.90390  Biso   1.000  H
  H311     1.0000 0.52190  0.07320  0.09610  Biso   1.000  H
  H312     1.0000 0.97810  0.92680  0.59610  Biso   1.000  H
  C353     1.0000 0.55590  0.13360  0.51980  Biso   1.000  C
  C354     1.0000 0.94410  0.86640  0.01980  Biso   1.000  C
  C355     1.0000 0.44410  0.63360  0.98020  Biso   1.000  C
  C356     1.0000 0.05590  0.36640  0.48020  Biso   1.000  C
  C357     1.0000 0.44410  0.86640  0.48020  Biso   1.000  C
  C358     1.0000 0.05590  0.13360  0.98020  Biso   1.000  C
  C359     1.0000 0.55590  0.36640  0.01980  Biso   1.000  C
  C360     1.0000 0.94410  0.63360  0.51980  Biso   1.000  C
  H313     1.0000 0.57850  0.10400  0.53430  Biso   1.000  H
  H314     1.0000 0.92150  0.89600  0.03430  Biso   1.000  H
  H315     1.0000 0.42150  0.60400  0.96570  Biso   1.000  H
  H316     1.0000 0.07850  0.39600  0.46570  Biso   1.000  H
  H317     1.0000 0.42150  0.89600  0.46570  Biso   1.000  H
  H318     1.0000 0.07850  0.10400  0.96570  Biso   1.000  H
  H319     1.0000 0.57850  0.39600  0.03430  Biso   1.000  H
  H320     1.0000 0.92150  0.60400  0.53430  Biso   1.000  H
  N49      1.0000 0.42780  0.49190  0.17580  Biso   1.000  N
  N50      1.0000 0.07220  0.50810  0.67580  Biso   1.000  N
  N51      1.0000 0.57220  0.99190  0.32420  Biso   1.000  N
  N52      1.0000 0.92780  0.00810  0.82420  Biso   1.000  N
  N53      1.0000 0.57220  0.50810  0.82420  Biso   1.000  N
  N54      1.0000 0.92780  0.49190  0.32420  Biso   1.000  N
  N55      1.0000 0.42780  0.00810  0.67580  Biso   1.000  N
  N56      1.0000 0.07220  0.99190  0.17580  Biso   1.000  N
  N57      1.0000 0.54500  0.58420  0.28540  Biso   1.000  N
  N58      1.0000 0.95500  0.41580  0.78540  Biso   1.000  N
  N59      1.0000 0.45500  0.08420  0.21460  Biso   1.000  N
  N60      1.0000 0.04500  0.91580  0.71460  Biso   1.000  N
  N61      1.0000 0.45500  0.41580  0.71460  Biso   1.000  N
  N62      1.0000 0.04500  0.58420  0.21460  Biso   1.000  N
  N63      1.0000 0.54500  0.91580  0.78540  Biso   1.000  N
  N64      1.0000 0.95500  0.08420  0.28540  Biso   1.000  N
  O65      1.0000 0.61800  0.28928  0.35590  Biso   1.000  O
  O66      1.0000 0.88200  0.71072  0.85590  Biso   1.000  O
  O67      1.0000 0.38200  0.78928  0.14410  Biso   1.000  O
  O68      1.0000 0.11800  0.21072  0.64410  Biso   1.000  O
  O69      1.0000 0.38200  0.71072  0.64410  Biso   1.000  O
  O70      1.0000 0.11800  0.28928  0.14410  Biso   1.000  O
  O71      1.0000 0.61800  0.21072  0.85590  Biso   1.000  O
  O72      1.0000 0.88200  0.78928  0.35590  Biso   1.000  O
  N65      1.0000 0.29330  0.39530  0.35680  Biso   1.000  N
  N66      1.0000 0.20670  0.60470  0.85680  Biso   1.000  N
  N67      1.0000 0.70670  0.89530  0.14320  Biso   1.000  N
  N68      1.0000 0.79330  0.10470  0.64320  Biso   1.000  N
  N69      1.0000 0.70670  0.60470  0.64320  Biso   1.000  N
  N70      1.0000 0.79330  0.39530  0.14320  Biso   1.000  N
  N71      1.0000 0.29330  0.10470  0.85680  Biso   1.000  N
  N72      1.0000 0.20670  0.89530  0.35680  Biso   1.000  N
  N73      1.0000 0.39740  0.67210  0.19680  Biso   1.000  N
  N74      1.0000 0.10260  0.32790  0.69680  Biso   1.000  N
  N75      1.0000 0.60260  0.17210  0.30320  Biso   1.000  N
  N76      1.0000 0.89740  0.82790  0.80320  Biso   1.000  N
  N77      1.0000 0.60260  0.32790  0.80320  Biso   1.000  N
  N78      1.0000 0.89740  0.67210  0.30320  Biso   1.000  N
  N79      1.0000 0.39740  0.82790  0.69680  Biso   1.000  N
  N80      1.0000 0.10260  0.17210  0.19680  Biso   1.000  N
  C361     1.0000 0.25610  0.44960  0.35580  Biso   1.000  C
  C362     1.0000 0.24390  0.55040  0.85580  Biso   1.000  C
  C363     1.0000 0.74390  0.94960  0.14420  Biso   1.000  C
  C364     1.0000 0.75610  0.05040  0.64420  Biso   1.000  C
  C365     1.0000 0.74390  0.55040  0.64420  Biso   1.000  C
  C366     1.0000 0.75610  0.44960  0.14420  Biso   1.000  C
  C367     1.0000 0.25610  0.05040  0.85580  Biso   1.000  C
  C368     1.0000 0.24390  0.94960  0.35580  Biso   1.000  C
  H321     1.0000 0.21360  0.44100  0.34440  Biso   1.000  H
  H322     1.0000 0.28640  0.55900  0.84440  Biso   1.000  H
  H323     1.0000 0.78640  0.94100  0.15560  Biso   1.000  H
  H324     1.0000 0.71360  0.05900  0.65560  Biso   1.000  H
  H325     1.0000 0.78640  0.55900  0.65560  Biso   1.000  H
  H326     1.0000 0.71360  0.44100  0.15560  Biso   1.000  H
  H327     1.0000 0.21360  0.05900  0.84440  Biso   1.000  H
  H328     1.0000 0.28640  0.94100  0.34440  Biso   1.000  H
  H329     1.0000 0.27520  0.47490  0.33150  Biso   1.000  H
  H330     1.0000 0.22480  0.52510  0.83150  Biso   1.000  H
  H331     1.0000 0.72480  0.97490  0.16850  Biso   1.000  H
  H332     1.0000 0.77520  0.02510  0.66850  Biso   1.000  H
  H333     1.0000 0.72480  0.52510  0.66850  Biso   1.000  H
  H334     1.0000 0.77520  0.47490  0.16850  Biso   1.000  H
  H335     1.0000 0.27520  0.02510  0.83150  Biso   1.000  H
  H336     1.0000 0.22480  0.97490  0.33150  Biso   1.000  H
  C369     1.0000 0.46300  0.15710  0.34710  Biso   1.000  C
  C370     1.0000 0.03700  0.84290  0.84710  Biso   1.000  C
  C371     1.0000 0.53700  0.65710  0.15290  Biso   1.000  C
  C372     1.0000 0.96300  0.34290  0.65290  Biso   1.000  C
  C373     1.0000 0.53700  0.84290  0.65290  Biso   1.000  C
  C374     1.0000 0.96300  0.15710  0.15290  Biso   1.000  C
  C375     1.0000 0.46300  0.34290  0.84710  Biso   1.000  C
  C376     1.0000 0.03700  0.65710  0.34710  Biso   1.000  C
  H337     1.0000 0.43730  0.13580  0.37000  Biso   1.000  H
  H338     1.0000 0.06270  0.86420  0.87000  Biso   1.000  H
  H339     1.0000 0.56270  0.63580  0.13000  Biso   1.000  H
  H340     1.0000 0.93730  0.36420  0.63000  Biso   1.000  H
  H341     1.0000 0.56270  0.86420  0.63000  Biso   1.000  H
  H342     1.0000 0.93730  0.13580  0.13000  Biso   1.000  H
  H343     1.0000 0.43730  0.36420  0.87000  Biso   1.000  H
  H344     1.0000 0.06270  0.63580  0.37000  Biso   1.000  H
  H345     1.0000 0.50650  0.15480  0.35720  Biso   1.000  H
  H346     1.0000 0.99350  0.84520  0.85720  Biso   1.000  H
  H347     1.0000 0.49350  0.65480  0.14280  Biso   1.000  H
  H348     1.0000 0.00650  0.34520  0.64280  Biso   1.000  H
  H349     1.0000 0.49350  0.84520  0.64280  Biso   1.000  H
  H350     1.0000 0.00650  0.15480  0.14280  Biso   1.000  H
  H351     1.0000 0.50650  0.34520  0.85720  Biso   1.000  H
  H352     1.0000 0.99350  0.65480  0.35720  Biso   1.000  H
  H353     1.0000 0.45850  0.14150  0.31420  Biso   1.000  H
  H354     1.0000 0.04150  0.85850  0.81420  Biso   1.000  H
  H355     1.0000 0.54150  0.64150  0.18580  Biso   1.000  H
  H356     1.0000 0.95850  0.35850  0.68580  Biso   1.000  H
  H357     1.0000 0.54150  0.85850  0.68580  Biso   1.000  H
  H358     1.0000 0.95850  0.14150  0.18580  Biso   1.000  H
  H359     1.0000 0.45850  0.35850  0.81420  Biso   1.000  H
  H360     1.0000 0.04150  0.64150  0.31420  Biso   1.000  H
  C377     1.0000 0.55700  0.45200  0.35450  Biso   1.000  C
  C378     1.0000 0.94300  0.54800  0.85450  Biso   1.000  C
  C379     1.0000 0.44300  0.95200  0.14550  Biso   1.000  C
  C380     1.0000 0.05700  0.04800  0.64550  Biso   1.000  C
  C381     1.0000 0.44300  0.54800  0.64550  Biso   1.000  C
  C382     1.0000 0.05700  0.45200  0.14550  Biso   1.000  C
  C383     1.0000 0.55700  0.04800  0.85450  Biso   1.000  C
  C384     1.0000 0.94300  0.95200  0.35450  Biso   1.000  C
  H361     1.0000 0.58640  0.47160  0.37560  Biso   1.000  H
  H362     1.0000 0.91360  0.52840  0.87560  Biso   1.000  H
  H363     1.0000 0.41360  0.97160  0.12440  Biso   1.000  H
  H364     1.0000 0.08640  0.02840  0.62440  Biso   1.000  H
  H365     1.0000 0.41360  0.52840  0.62440  Biso   1.000  H
  H366     1.0000 0.08640  0.47160  0.12440  Biso   1.000  H
  H367     1.0000 0.58640  0.02840  0.87560  Biso   1.000  H
  H368     1.0000 0.91360  0.97160  0.37560  Biso   1.000  H
  H369     1.0000 0.51530  0.45440  0.36860  Biso   1.000  H
  H370     1.0000 0.98470  0.54560  0.86860  Biso   1.000  H
  H371     1.0000 0.48470  0.95440  0.13140  Biso   1.000  H
  H372     1.0000 0.01530  0.04560  0.63140  Biso   1.000  H
  H373     1.0000 0.48470  0.54560  0.63140  Biso   1.000  H
  H374     1.0000 0.01530  0.45440  0.13140  Biso   1.000  H
  H375     1.0000 0.51530  0.04560  0.86860  Biso   1.000  H
  H376     1.0000 0.98470  0.95440  0.36860  Biso   1.000  H
  H377     1.0000 0.55700  0.46920  0.32200  Biso   1.000  H
  H378     1.0000 0.94300  0.53080  0.82200  Biso   1.000  H
  H379     1.0000 0.44300  0.96920  0.17800  Biso   1.000  H
  H380     1.0000 0.05700  0.03080  0.67800  Biso   1.000  H
  H381     1.0000 0.44300  0.53080  0.67800  Biso   1.000  H
  H382     1.0000 0.05700  0.46920  0.17800  Biso   1.000  H
  H383     1.0000 0.55700  0.03080  0.82200  Biso   1.000  H
  H384     1.0000 0.94300  0.96920  0.32200  Biso   1.000  H
  O73      1.0000 0.58200  0.87130  0.26050  Biso   1.000  O
  O74      1.0000 0.91800  0.12870  0.76050  Biso   1.000  O
  O75      1.0000 0.41800  0.37130  0.23950  Biso   1.000  O
  O76      1.0000 0.08200  0.62870  0.73950  Biso   1.000  O
  O77      1.0000 0.41800  0.12870  0.73950  Biso   1.000  O
  O78      1.0000 0.08200  0.87130  0.23950  Biso   1.000  O
  O79      1.0000 0.58200  0.62870  0.76050  Biso   1.000  O
  O80      1.0000 0.91800  0.37130  0.26050  Biso   1.000  O
  O81      1.0000 0.12860  0.53350  0.28240  Biso   1.000  O
  O82      1.0000 0.37140  0.46650  0.78240  Biso   1.000  O
  O83      1.0000 0.87140  0.03350  0.21760  Biso   1.000  O
  O84      1.0000 0.62860  0.96650  0.71760  Biso   1.000  O
  O85      1.0000 0.87140  0.46650  0.71760  Biso   1.000  O
  O86      1.0000 0.62860  0.53350  0.21760  Biso   1.000  O
  O87      1.0000 0.12860  0.96650  0.78240  Biso   1.000  O
  O88      1.0000 0.37140  0.03350  0.28240  Biso   1.000  O
  O89      1.0000 0.43250  0.94350  0.32770  Biso   1.000  O
  O90      1.0000 0.06750  0.05650  0.82770  Biso   1.000  O
  O91      1.0000 0.56750  0.44350  0.17230  Biso   1.000  O
  O92      1.0000 0.93250  0.55650  0.67230  Biso   1.000  O
  O93      1.0000 0.56750  0.05650  0.67230  Biso   1.000  O
  O94      1.0000 0.93250  0.94350  0.17230  Biso   1.000  O
  O95      1.0000 0.43250  0.55650  0.82770  Biso   1.000  O
  O96      1.0000 0.06750  0.44350  0.32770  Biso   1.000  O
  C385     1.0000 0.77100  0.43180  0.43490  Biso   1.000  C
  C386     1.0000 0.72900  0.56820  0.93490  Biso   1.000  C
  C387     1.0000 0.22900  0.93180  0.06510  Biso   1.000  C
  C388     1.0000 0.27100  0.06820  0.56510  Biso   1.000  C
  C389     1.0000 0.22900  0.56820  0.56510  Biso   1.000  C
  C390     1.0000 0.27100  0.43180  0.06510  Biso   1.000  C
  C391     1.0000 0.77100  0.06820  0.93490  Biso   1.000  C
  C392     1.0000 0.72900  0.93180  0.43490  Biso   1.000  C
  N81      1.0000 0.72590  0.44640  0.45040  Biso   1.000  N
  N82      1.0000 0.77410  0.55360  0.95040  Biso   1.000  N
  N83      1.0000 0.27410  0.94640  0.04960  Biso   1.000  N
  N84      1.0000 0.22590  0.05360  0.54960  Biso   1.000  N
  N85      1.0000 0.27410  0.55360  0.54960  Biso   1.000  N
  N86      1.0000 0.22590  0.44640  0.04960  Biso   1.000  N
  N87      1.0000 0.72590  0.05360  0.95040  Biso   1.000  N
  N88      1.0000 0.77410  0.94640  0.45040  Biso   1.000  N
  C393     1.0000 0.82500  0.41730  0.40830  Biso   1.000  C
  C394     1.0000 0.67500  0.58270  0.90830  Biso   1.000  C
  C395     1.0000 0.17500  0.91730  0.09170  Biso   1.000  C
  C396     1.0000 0.32500  0.08270  0.59170  Biso   1.000  C
  C397     1.0000 0.17500  0.58270  0.59170  Biso   1.000  C
  C398     1.0000 0.32500  0.41730  0.09170  Biso   1.000  C
  C399     1.0000 0.82500  0.08270  0.90830  Biso   1.000  C
  C400     1.0000 0.67500  0.91730  0.40830  Biso   1.000  C
  H385     1.0000 0.85410  0.39790  0.42990  Biso   1.000  H
  H386     1.0000 0.64590  0.60210  0.92990  Biso   1.000  H
  H387     1.0000 0.14590  0.89790  0.07010  Biso   1.000  H
  H388     1.0000 0.35410  0.10210  0.57010  Biso   1.000  H
  H389     1.0000 0.14590  0.60210  0.57010  Biso   1.000  H
  H390     1.0000 0.35410  0.39790  0.07010  Biso   1.000  H
  H391     1.0000 0.85410  0.10210  0.92990  Biso   1.000  H
  H392     1.0000 0.64590  0.89790  0.42990  Biso   1.000  H
  H393     1.0000 0.84450  0.45120  0.39560  Biso   1.000  H
  H394     1.0000 0.65550  0.54880  0.89560  Biso   1.000  H
  H395     1.0000 0.15550  0.95120  0.10440  Biso   1.000  H
  H396     1.0000 0.34450  0.04880  0.60440  Biso   1.000  H
  H397     1.0000 0.15550  0.54880  0.60440  Biso   1.000  H
  H398     1.0000 0.34450  0.45120  0.10440  Biso   1.000  H
  H399     1.0000 0.84450  0.04880  0.89560  Biso   1.000  H
  H400     1.0000 0.65550  0.95120  0.39560  Biso   1.000  H
  H401     1.0000 0.81360  0.39280  0.38110  Biso   1.000  H
  H402     1.0000 0.68640  0.60720  0.88110  Biso   1.000  H
  H403     1.0000 0.18640  0.89280  0.11890  Biso   1.000  H
  H404     1.0000 0.31360  0.10720  0.61890  Biso   1.000  H
  H405     1.0000 0.18640  0.60720  0.61890  Biso   1.000  H
  H406     1.0000 0.31360  0.39280  0.11890  Biso   1.000  H
  H407     1.0000 0.81360  0.10720  0.88110  Biso   1.000  H
  H408     1.0000 0.68640  0.89280  0.38110  Biso   1.000  H
  N89      1.0000 0.27630  0.77490  0.45620  Biso   1.000  N
  N90      1.0000 0.22370  0.22510  0.95620  Biso   1.000  N
  N91      1.0000 0.72370  0.27490  0.04380  Biso   1.000  N
  N92      1.0000 0.77630  0.72510  0.54380  Biso   1.000  N
  N93      1.0000 0.72370  0.22510  0.54380  Biso   1.000  N
  N94      1.0000 0.77630  0.77490  0.04380  Biso   1.000  N
  N95      1.0000 0.27630  0.72510  0.95620  Biso   1.000  N
  N96      1.0000 0.22370  0.27490  0.45620  Biso   1.000  N
  C401     1.0000 0.25070  0.68640  0.43120  Biso   1.000  C
  C402     1.0000 0.24930  0.31360  0.93120  Biso   1.000  C
  C403     1.0000 0.74930  0.18640  0.06880  Biso   1.000  C
  C404     1.0000 0.75070  0.81360  0.56880  Biso   1.000  C
  C405     1.0000 0.74930  0.31360  0.56880  Biso   1.000  C
  C406     1.0000 0.75070  0.68640  0.06880  Biso   1.000  C
  C407     1.0000 0.25070  0.81360  0.93120  Biso   1.000  C
  C408     1.0000 0.24930  0.18640  0.43120  Biso   1.000  C
  H409     1.0000 0.21640  0.67020  0.45000  Biso   1.000  H
  H410     1.0000 0.28360  0.32980  0.95000  Biso   1.000  H
  H411     1.0000 0.78360  0.17020  0.05000  Biso   1.000  H
  H412     1.0000 0.71640  0.82980  0.55000  Biso   1.000  H
  H413     1.0000 0.78360  0.32980  0.55000  Biso   1.000  H
  H414     1.0000 0.71640  0.67020  0.05000  Biso   1.000  H
  H415     1.0000 0.21640  0.82980  0.95000  Biso   1.000  H
  H416     1.0000 0.28360  0.17020  0.45000  Biso   1.000  H
  H417     1.0000 0.28750  0.66270  0.43470  Biso   1.000  H
  H418     1.0000 0.21250  0.33730  0.93470  Biso   1.000  H
  H419     1.0000 0.71250  0.16270  0.06530  Biso   1.000  H
  H420     1.0000 0.78750  0.83730  0.56530  Biso   1.000  H
  H421     1.0000 0.71250  0.33730  0.56530  Biso   1.000  H
  H422     1.0000 0.78750  0.66270  0.06530  Biso   1.000  H
  H423     1.0000 0.28750  0.83730  0.93470  Biso   1.000  H
  H424     1.0000 0.21250  0.16270  0.43470  Biso   1.000  H
  H425     1.0000 0.23900  0.68870  0.39670  Biso   1.000  H
  H426     1.0000 0.26100  0.31130  0.89670  Biso   1.000  H
  H427     1.0000 0.76100  0.18870  0.10330  Biso   1.000  H
  H428     1.0000 0.73900  0.81130  0.60330  Biso   1.000  H
  H429     1.0000 0.76100  0.31130  0.60330  Biso   1.000  H
  H430     1.0000 0.73900  0.68870  0.10330  Biso   1.000  H
  H431     1.0000 0.23900  0.81130  0.89670  Biso   1.000  H
  H432     1.0000 0.26100  0.18870  0.39670  Biso   1.000  H
  C409     1.0000 0.26310  0.73680  0.44780  Biso   1.000  C
  C410     1.0000 0.23690  0.26320  0.94780  Biso   1.000  C
  C411     1.0000 0.73690  0.23680  0.05220  Biso   1.000  C
  C412     1.0000 0.76310  0.76320  0.55220  Biso   1.000  C
  C413     1.0000 0.73690  0.26320  0.55220  Biso   1.000  C
  C414     1.0000 0.76310  0.73680  0.05220  Biso   1.000  C
  C415     1.0000 0.26310  0.76320  0.94780  Biso   1.000  C
  C416     1.0000 0.23690  0.23680  0.44780  Biso   1.000  C
  C417     1.0000 0.51280  0.97410  0.57840  Biso   1.000  C
  C418     1.0000 0.98720  0.02590  0.07840  Biso   1.000  C
  C419     1.0000 0.48720  0.47410  0.92160  Biso   1.000  C
  C420     1.0000 0.01280  0.52590  0.42160  Biso   1.000  C
  C421     1.0000 0.48720  0.02590  0.42160  Biso   1.000  C
  C422     1.0000 0.01280  0.97410  0.92160  Biso   1.000  C
  C423     1.0000 0.51280  0.52590  0.07840  Biso   1.000  C
  C424     1.0000 0.98720  0.47410  0.57840  Biso   1.000  C
  H433     1.0000 0.51680  0.94170  0.60000  Biso   1.000  H
  H434     1.0000 0.98320  0.05830  0.10000  Biso   1.000  H
  H435     1.0000 0.48320  0.44170  0.90000  Biso   1.000  H
  H436     1.0000 0.01680  0.55830  0.40000  Biso   1.000  H
  H437     1.0000 0.48320  0.05830  0.40000  Biso   1.000  H
  H438     1.0000 0.01680  0.94170  0.90000  Biso   1.000  H
  H439     1.0000 0.51680  0.55830  0.10000  Biso   1.000  H
  H440     1.0000 0.98320  0.44170  0.60000  Biso   1.000  H
  H441     1.0000 0.47060  0.97570  0.56530  Biso   1.000  H
  H442     1.0000 0.02940  0.02430  0.06530  Biso   1.000  H
  H443     1.0000 0.52940  0.47570  0.93470  Biso   1.000  H
  H444     1.0000 0.97060  0.52430  0.43470  Biso   1.000  H
  H445     1.0000 0.52940  0.02430  0.43470  Biso   1.000  H
  H446     1.0000 0.97060  0.97570  0.93470  Biso   1.000  H
  H447     1.0000 0.47060  0.52430  0.06530  Biso   1.000  H
  H448     1.0000 0.02940  0.47570  0.56530  Biso   1.000  H
  H449     1.0000 0.52140  0.00830  0.59680  Biso   1.000  H
  H450     1.0000 0.97860  0.99170  0.09680  Biso   1.000  H
  H451     1.0000 0.47860  0.50830  0.90320  Biso   1.000  H
  H452     1.0000 0.02140  0.49170  0.40320  Biso   1.000  H
  H453     1.0000 0.47860  0.99170  0.40320  Biso   1.000  H
  H454     1.0000 0.02140  0.00830  0.90320  Biso   1.000  H
  H455     1.0000 0.52140  0.49170  0.09680  Biso   1.000  H
  H456     1.0000 0.97860  0.50830  0.59680  Biso   1.000  H
  N97      1.0000 0.58350  0.97820  0.50210  Biso   1.000  N
  N98      1.0000 0.91650  0.02180  0.00210  Biso   1.000  N
  N99      1.0000 0.41650  0.47820  0.99790  Biso   1.000  N
  N100     1.0000 0.08350  0.52180  0.49790  Biso   1.000  N
  N101     1.0000 0.41650  0.02180  0.49790  Biso   1.000  N
  N102     1.0000 0.08350  0.97820  0.99790  Biso   1.000  N
  N103     1.0000 0.58350  0.52180  0.00210  Biso   1.000  N
  N104     1.0000 0.91650  0.47820  0.50210  Biso   1.000  N
  C425     1.0000 0.55600  0.96920  0.53910  Biso   1.000  C
  C426     1.0000 0.94400  0.03080  0.03910  Biso   1.000  C
  C427     1.0000 0.44400  0.46920  0.96090  Biso   1.000  C
  C428     1.0000 0.05600  0.53080  0.46090  Biso   1.000  C
  C429     1.0000 0.44400  0.03080  0.46090  Biso   1.000  C
  C430     1.0000 0.05600  0.96920  0.96090  Biso   1.000  C
  C431     1.0000 0.55600  0.53080  0.03910  Biso   1.000  C
  C432     1.0000 0.94400  0.46920  0.53910  Biso   1.000  C
  O97      1.0000 0.59530  0.33520  0.21080  Biso   1.000  O
  O98      1.0000 0.90470  0.66480  0.71080  Biso   1.000  O
  O99      1.0000 0.40470  0.83520  0.28920  Biso   1.000  O
  O100     1.0000 0.09530  0.16480  0.78920  Biso   1.000  O
  O101     1.0000 0.40470  0.66480  0.78920  Biso   1.000  O
  O102     1.0000 0.09530  0.33520  0.28920  Biso   1.000  O
  O103     1.0000 0.59530  0.16480  0.71080  Biso   1.000  O
  O104     1.0000 0.90470  0.83520  0.21080  Biso   1.000  O
  O105     1.0000 0.59390  0.26780  0.22890  Biso   1.000  O
  O106     1.0000 0.90610  0.73220  0.72890  Biso   1.000  O
  O107     1.0000 0.40610  0.76780  0.27110  Biso   1.000  O
  O108     1.0000 0.09390  0.23220  0.77110  Biso   1.000  O
  O109     1.0000 0.40610  0.73220  0.77110  Biso   1.000  O
  O110     1.0000 0.09390  0.26780  0.27110  Biso   1.000  O
  O111     1.0000 0.59390  0.23220  0.72890  Biso   1.000  O
  O112     1.0000 0.90610  0.76780  0.22890  Biso   1.000  O
  O113     1.0000 0.61160  0.23790  0.62200  Biso   1.000  O
  O114     1.0000 0.88840  0.76210  0.12200  Biso   1.000  O
  O115     1.0000 0.38840  0.73790  0.87800  Biso   1.000  O
  O116     1.0000 0.11160  0.26210  0.37800  Biso   1.000  O
  O117     1.0000 0.38840  0.76210  0.37800  Biso   1.000  O
  O118     1.0000 0.11160  0.23790  0.87800  Biso   1.000  O
  O119     1.0000 0.61160  0.26210  0.12200  Biso   1.000  O
  O120     1.0000 0.88840  0.73790  0.62200  Biso   1.000  O
  C433     1.0000 0.40260  0.22210  0.63810  Biso   1.000  C
  C434     1.0000 0.09740  0.77790  0.13810  Biso   1.000  C
  C435     1.0000 0.59740  0.72210  0.86190  Biso   1.000  C
  C436     1.0000 0.90260  0.27790  0.36190  Biso   1.000  C
  C437     1.0000 0.59740  0.77790  0.36190  Biso   1.000  C
  C438     1.0000 0.90260  0.22210  0.86190  Biso   1.000  C
  C439     1.0000 0.40260  0.27790  0.13810  Biso   1.000  C
  C440     1.0000 0.09740  0.72210  0.63810  Biso   1.000  C
  H457     1.0000 0.36290  0.21570  0.65460  Biso   1.000  H
  H458     1.0000 0.13710  0.78430  0.15460  Biso   1.000  H
  H459     1.0000 0.63710  0.71570  0.84540  Biso   1.000  H
  H460     1.0000 0.86290  0.28430  0.34540  Biso   1.000  H
  H461     1.0000 0.63710  0.78430  0.34540  Biso   1.000  H
  H462     1.0000 0.86290  0.21570  0.84540  Biso   1.000  H
  H463     1.0000 0.36290  0.28430  0.15460  Biso   1.000  H
  H464     1.0000 0.13710  0.71570  0.65460  Biso   1.000  H
  H465     1.0000 0.42440  0.18650  0.63420  Biso   1.000  H
  H466     1.0000 0.07560  0.81350  0.13420  Biso   1.000  H
  H467     1.0000 0.57560  0.68650  0.86580  Biso   1.000  H
  H468     1.0000 0.92440  0.31350  0.36580  Biso   1.000  H
  H469     1.0000 0.57560  0.81350  0.36580  Biso   1.000  H
  H470     1.0000 0.92440  0.18650  0.86580  Biso   1.000  H
  H471     1.0000 0.42440  0.31350  0.13420  Biso   1.000  H
  H472     1.0000 0.07560  0.68650  0.63420  Biso   1.000  H
  H473     1.0000 0.39510  0.23860  0.60590  Biso   1.000  H
  H474     1.0000 0.10490  0.76140  0.10590  Biso   1.000  H
  H475     1.0000 0.60490  0.73860  0.89410  Biso   1.000  H
  H476     1.0000 0.89510  0.26140  0.39410  Biso   1.000  H
  H477     1.0000 0.60490  0.76140  0.39410  Biso   1.000  H
  H478     1.0000 0.89510  0.23860  0.89410  Biso   1.000  H
  H479     1.0000 0.39510  0.26140  0.10590  Biso   1.000  H
  H480     1.0000 0.10490  0.73860  0.60590  Biso   1.000  H
  C441     1.0000 0.43180  0.25130  0.66050  Biso   1.000  C
  C442     1.0000 0.06820  0.74870  0.16050  Biso   1.000  C
  C443     1.0000 0.56820  0.75130  0.83950  Biso   1.000  C
  C444     1.0000 0.93180  0.24870  0.33950  Biso   1.000  C
  C445     1.0000 0.56820  0.74870  0.33950  Biso   1.000  C
  C446     1.0000 0.93180  0.25130  0.83950  Biso   1.000  C
  C447     1.0000 0.43180  0.24870  0.16050  Biso   1.000  C
  C448     1.0000 0.06820  0.75130  0.66050  Biso   1.000  C
  N105     1.0000 0.46440  0.28440  0.68190  Biso   1.000  N
  N106     1.0000 0.03560  0.71560  0.18190  Biso   1.000  N
  N107     1.0000 0.53560  0.78440  0.81810  Biso   1.000  N
  N108     1.0000 0.96440  0.21560  0.31810  Biso   1.000  N
  N109     1.0000 0.53560  0.71560  0.31810  Biso   1.000  N
  N110     1.0000 0.96440  0.28440  0.81810  Biso   1.000  N
  N111     1.0000 0.46440  0.21560  0.18190  Biso   1.000  N
  N112     1.0000 0.03560  0.78440  0.68190  Biso   1.000  N
