data_image0
_cell_length_a       21.0615
_cell_length_b       23.2526
_cell_length_c       26.6468
_cell_angle_alpha    90
_cell_angle_beta     90
_cell_angle_gamma    90

_symmetry_space_group_name_H-M    "P 1"
_symmetry_int_tables_number       1

loop_
  _symmetry_equiv_pos_as_xyz
  'x, y, z'

loop_
  _atom_site_label
  _atom_site_occupancy
  _atom_site_fract_x
  _atom_site_fract_y
  _atom_site_fract_z
  _atom_site_thermal_displace_type
  _atom_site_B_iso_or_equiv
  _atom_site_type_symbol
  Y1       1.0000 0.48925  0.80529  0.12304  Biso   1.000  Y
  Y2       1.0000 0.01075  0.19471  0.62304  Biso   1.000  Y
  Y3       1.0000 0.98925  0.69471  0.87696  Biso   1.000  Y
  Y4       1.0000 0.51075  0.30529  0.37696  Biso   1.000  Y
  Y5       1.0000 0.51075  0.19471  0.87696  Biso   1.000  Y
  Y6       1.0000 0.98925  0.80529  0.37696  Biso   1.000  Y
  Y7       1.0000 0.01075  0.30529  0.12304  Biso   1.000  Y
  Y8       1.0000 0.48925  0.69471  0.62304  Biso   1.000  Y
  Cu1      1.0000 0.36172  0.71040  0.12758  Biso   1.000  Cu
  Cu2      1.0000 0.13828  0.28960  0.62758  Biso   1.000  Cu
  Cu3      1.0000 0.86172  0.78960  0.87242  Biso   1.000  Cu
  Cu4      1.0000 0.63828  0.21040  0.37242  Biso   1.000  Cu
  Cu5      1.0000 0.63828  0.28960  0.87242  Biso   1.000  Cu
  Cu6      1.0000 0.86172  0.71040  0.37242  Biso   1.000  Cu
  Cu7      1.0000 0.13828  0.21040  0.12758  Biso   1.000  Cu
  Cu8      1.0000 0.36172  0.78960  0.62758  Biso   1.000  Cu
  Cu9      1.0000 0.61989  0.89726  0.11492  Biso   1.000  Cu
  Cu10     1.0000 0.88011  0.10274  0.61492  Biso   1.000  Cu
  Cu11     1.0000 0.11989  0.60274  0.88508  Biso   1.000  Cu
  Cu12     1.0000 0.38011  0.39726  0.38508  Biso   1.000  Cu
  Cu13     1.0000 0.38011  0.10274  0.88508  Biso   1.000  Cu
  Cu14     1.0000 0.11989  0.89726  0.38508  Biso   1.000  Cu
  Cu15     1.0000 0.88011  0.39726  0.11492  Biso   1.000  Cu
  Cu16     1.0000 0.61989  0.60274  0.61492  Biso   1.000  Cu
  Fe1      1.0000 0.60102  0.06969  0.23247  Biso   1.000  Fe
  Fe2      1.0000 0.89898  0.93031  0.73247  Biso   1.000  Fe
  Fe3      1.0000 0.10102  0.43031  0.76753  Biso   1.000  Fe
  Fe4      1.0000 0.39898  0.56969  0.26753  Biso   1.000  Fe
  Fe5      1.0000 0.39898  0.93031  0.76753  Biso   1.000  Fe
  Fe6      1.0000 0.10102  0.06969  0.26753  Biso   1.000  Fe
  Fe7      1.0000 0.89898  0.56969  0.23247  Biso   1.000  Fe
  Fe8      1.0000 0.60102  0.43031  0.73247  Biso   1.000  Fe
  O1       1.0000 0.59716  0.82042  0.14125  Biso   1.000  O
  O2       1.0000 0.90284  0.17958  0.64125  Biso   1.000  O
  O3       1.0000 0.09716  0.67958  0.85875  Biso   1.000  O
  O4       1.0000 0.40284  0.32042  0.35875  Biso   1.000  O
  O5       1.0000 0.40284  0.17958  0.85875  Biso   1.000  O
  O6       1.0000 0.09716  0.82042  0.35875  Biso   1.000  O
  O7       1.0000 0.90284  0.32042  0.14125  Biso   1.000  O
  O8       1.0000 0.59716  0.67958  0.64125  Biso   1.000  O
  O9       1.0000 0.44296  0.72352  0.09042  Biso   1.000  O
  O10      1.0000 0.05704  0.27648  0.59042  Biso   1.000  O
  O11      1.0000 0.94296  0.77648  0.90958  Biso   1.000  O
  O12      1.0000 0.55704  0.22352  0.40958  Biso   1.000  O
  O13      1.0000 0.55704  0.27648  0.90958  Biso   1.000  O
  O14      1.0000 0.94296  0.72352  0.40958  Biso   1.000  O
  O15      1.0000 0.05704  0.22352  0.09042  Biso   1.000  O
  O16      1.0000 0.44296  0.77648  0.59042  Biso   1.000  O
  O17      1.0000 0.53643  0.88233  0.08181  Biso   1.000  O
  O18      1.0000 0.96357  0.11767  0.58181  Biso   1.000  O
  O19      1.0000 0.03643  0.61767  0.91819  Biso   1.000  O
  O20      1.0000 0.46357  0.38233  0.41819  Biso   1.000  O
  O21      1.0000 0.46357  0.11767  0.91819  Biso   1.000  O
  O22      1.0000 0.03643  0.88233  0.41819  Biso   1.000  O
  O23      1.0000 0.96357  0.38233  0.08181  Biso   1.000  O
  O24      1.0000 0.53643  0.61767  0.58181  Biso   1.000  O
  N1       1.0000 0.63867  0.96101  0.06750  Biso   1.000  N
  N2       1.0000 0.86133  0.03899  0.56750  Biso   1.000  N
  N3       1.0000 0.13867  0.53899  0.93250  Biso   1.000  N
  N4       1.0000 0.36133  0.46101  0.43250  Biso   1.000  N
  N5       1.0000 0.36133  0.03899  0.93250  Biso   1.000  N
  N6       1.0000 0.13867  0.96101  0.43250  Biso   1.000  N
  N7       1.0000 0.86133  0.46101  0.06750  Biso   1.000  N
  N8       1.0000 0.63867  0.53899  0.56750  Biso   1.000  N
  O25      1.0000 0.55395  0.71557  0.15362  Biso   1.000  O
  O26      1.0000 0.94605  0.28443  0.65362  Biso   1.000  O
  O27      1.0000 0.05395  0.78443  0.84638  Biso   1.000  O
  O28      1.0000 0.44605  0.21557  0.34638  Biso   1.000  O
  O29      1.0000 0.44605  0.28443  0.84638  Biso   1.000  O
  O30      1.0000 0.05395  0.71557  0.34638  Biso   1.000  O
  O31      1.0000 0.94605  0.21557  0.15362  Biso   1.000  O
  O32      1.0000 0.55395  0.78443  0.65362  Biso   1.000  O
  O33      1.0000 0.43360  0.83694  0.04481  Biso   1.000  O
  O34      1.0000 0.06640  0.16306  0.54481  Biso   1.000  O
  O35      1.0000 0.93360  0.66306  0.95519  Biso   1.000  O
  O36      1.0000 0.56640  0.33694  0.45519  Biso   1.000  O
  O37      1.0000 0.56640  0.16306  0.95519  Biso   1.000  O
  O38      1.0000 0.93360  0.83694  0.45519  Biso   1.000  O
  O39      1.0000 0.06640  0.33694  0.04481  Biso   1.000  O
  O40      1.0000 0.43360  0.66306  0.54481  Biso   1.000  O
  O41      1.0000 0.54615  0.76341  0.04783  Biso   1.000  O
  O42      1.0000 0.95385  0.23659  0.54783  Biso   1.000  O
  O43      1.0000 0.04615  0.73659  0.95217  Biso   1.000  O
  O44      1.0000 0.45385  0.26341  0.45217  Biso   1.000  O
  O45      1.0000 0.45385  0.23659  0.95217  Biso   1.000  O
  O46      1.0000 0.04615  0.76341  0.45217  Biso   1.000  O
  O47      1.0000 0.95385  0.26341  0.04783  Biso   1.000  O
  O48      1.0000 0.54615  0.73659  0.54783  Biso   1.000  O
  N9       1.0000 0.59221  0.95513  0.17553  Biso   1.000  N
  N10      1.0000 0.90779  0.04487  0.67553  Biso   1.000  N
  N11      1.0000 0.09221  0.54487  0.82447  Biso   1.000  N
  N12      1.0000 0.40779  0.45513  0.32447  Biso   1.000  N
  N13      1.0000 0.40779  0.04487  0.82447  Biso   1.000  N
  N14      1.0000 0.09221  0.95513  0.32447  Biso   1.000  N
  N15      1.0000 0.90779  0.45513  0.17553  Biso   1.000  N
  N16      1.0000 0.59221  0.54487  0.67553  Biso   1.000  N
  C1       1.0000 0.23390  0.62215  0.11779  Biso   1.000  C
  C2       1.0000 0.26610  0.37785  0.61779  Biso   1.000  C
  C3       1.0000 0.73390  0.87785  0.88221  Biso   1.000  C
  C4       1.0000 0.76610  0.12215  0.38221  Biso   1.000  C
  C5       1.0000 0.76610  0.37785  0.88221  Biso   1.000  C
  C6       1.0000 0.73390  0.62215  0.38221  Biso   1.000  C
  C7       1.0000 0.26610  0.12215  0.11779  Biso   1.000  C
  C8       1.0000 0.23390  0.87785  0.61779  Biso   1.000  C
  N17      1.0000 0.27444  0.71509  0.15611  Biso   1.000  N
  N18      1.0000 0.22556  0.28491  0.65611  Biso   1.000  N
  N19      1.0000 0.77444  0.78491  0.84389  Biso   1.000  N
  N20      1.0000 0.72556  0.21509  0.34389  Biso   1.000  N
  N21      1.0000 0.72556  0.28491  0.84389  Biso   1.000  N
  N22      1.0000 0.77444  0.71509  0.34389  Biso   1.000  N
  N23      1.0000 0.22556  0.21509  0.15611  Biso   1.000  N
  N24      1.0000 0.27444  0.78491  0.65611  Biso   1.000  N
  O49      1.0000 0.42432  0.89534  0.14802  Biso   1.000  O
  O50      1.0000 0.07568  0.10466  0.64802  Biso   1.000  O
  O51      1.0000 0.92432  0.60466  0.85198  Biso   1.000  O
  O52      1.0000 0.57568  0.39534  0.35198  Biso   1.000  O
  O53      1.0000 0.57568  0.10466  0.85198  Biso   1.000  O
  O54      1.0000 0.92432  0.89534  0.35198  Biso   1.000  O
  O55      1.0000 0.07568  0.39534  0.14802  Biso   1.000  O
  O56      1.0000 0.42432  0.60466  0.64802  Biso   1.000  O
  C9       1.0000 0.61590  0.72547  0.16840  Biso   1.000  C
  C10      1.0000 0.88410  0.27453  0.66840  Biso   1.000  C
  C11      1.0000 0.11590  0.77453  0.83160  Biso   1.000  C
  C12      1.0000 0.38410  0.22547  0.33160  Biso   1.000  C
  C13      1.0000 0.38410  0.27453  0.83160  Biso   1.000  C
  C14      1.0000 0.11590  0.72547  0.33160  Biso   1.000  C
  C15      1.0000 0.88410  0.22547  0.16840  Biso   1.000  C
  C16      1.0000 0.61590  0.77453  0.66840  Biso   1.000  C
  C17      1.0000 0.23590  0.66266  0.16294  Biso   1.000  C
  C18      1.0000 0.26410  0.33734  0.66294  Biso   1.000  C
  C19      1.0000 0.73590  0.83734  0.83706  Biso   1.000  C
  C20      1.0000 0.76410  0.16266  0.33706  Biso   1.000  C
  C21      1.0000 0.76410  0.33734  0.83706  Biso   1.000  C
  C22      1.0000 0.73590  0.66266  0.33706  Biso   1.000  C
  C23      1.0000 0.26410  0.16266  0.16294  Biso   1.000  C
  C24      1.0000 0.23590  0.83734  0.66294  Biso   1.000  C
  H1       1.0000 0.19190  0.67430  0.17120  Biso   1.000  H
  H2       1.0000 0.30810  0.32570  0.67120  Biso   1.000  H
  H3       1.0000 0.69190  0.82570  0.82880  Biso   1.000  H
  H4       1.0000 0.80810  0.17430  0.32880  Biso   1.000  H
  H5       1.0000 0.80810  0.32570  0.82880  Biso   1.000  H
  H6       1.0000 0.69190  0.67430  0.32880  Biso   1.000  H
  H7       1.0000 0.30810  0.17430  0.17120  Biso   1.000  H
  H8       1.0000 0.19190  0.82570  0.67120  Biso   1.000  H
  H9       1.0000 0.25290  0.64120  0.19210  Biso   1.000  H
  H10      1.0000 0.24710  0.35880  0.69210  Biso   1.000  H
  H11      1.0000 0.75290  0.85880  0.80790  Biso   1.000  H
  H12      1.0000 0.74710  0.14120  0.30790  Biso   1.000  H
  H13      1.0000 0.74710  0.35880  0.80790  Biso   1.000  H
  H14      1.0000 0.75290  0.64120  0.30790  Biso   1.000  H
  H15      1.0000 0.24710  0.14120  0.19210  Biso   1.000  H
  H16      1.0000 0.25290  0.85880  0.69210  Biso   1.000  H
  C25      1.0000 0.59655  0.99888  0.19550  Biso   1.000  C
  C26      1.0000 0.90345  0.00112  0.69550  Biso   1.000  C
  C27      1.0000 0.09655  0.50112  0.80450  Biso   1.000  C
  C28      1.0000 0.40345  0.49888  0.30450  Biso   1.000  C
  C29      1.0000 0.40345  0.00112  0.80450  Biso   1.000  C
  C30      1.0000 0.09655  0.99888  0.30450  Biso   1.000  C
  C31      1.0000 0.90345  0.49888  0.19550  Biso   1.000  C
  C32      1.0000 0.59655  0.50112  0.69550  Biso   1.000  C
  C33      1.0000 0.63810  0.78167  0.16016  Biso   1.000  C
  C34      1.0000 0.86190  0.21833  0.66016  Biso   1.000  C
  C35      1.0000 0.13810  0.71833  0.83984  Biso   1.000  C
  C36      1.0000 0.36190  0.28167  0.33984  Biso   1.000  C
  C37      1.0000 0.36190  0.21833  0.83984  Biso   1.000  C
  C38      1.0000 0.13810  0.78167  0.33984  Biso   1.000  C
  C39      1.0000 0.86190  0.28167  0.16016  Biso   1.000  C
  C40      1.0000 0.63810  0.71833  0.66016  Biso   1.000  C
  N25      1.0000 0.34706  0.63790  0.08991  Biso   1.000  N
  N26      1.0000 0.15294  0.36210  0.58991  Biso   1.000  N
  N27      1.0000 0.84706  0.86210  0.91009  Biso   1.000  N
  N28      1.0000 0.65294  0.13790  0.41009  Biso   1.000  N
  N29      1.0000 0.65294  0.36210  0.91009  Biso   1.000  N
  N30      1.0000 0.84706  0.63790  0.41009  Biso   1.000  N
  N31      1.0000 0.15294  0.13790  0.08991  Biso   1.000  N
  N32      1.0000 0.34706  0.86210  0.58991  Biso   1.000  N
  C41      1.0000 0.46000  0.69926  0.04660  Biso   1.000  C
  C42      1.0000 0.04000  0.30074  0.54660  Biso   1.000  C
  C43      1.0000 0.96000  0.80074  0.95340  Biso   1.000  C
  C44      1.0000 0.54000  0.19926  0.45340  Biso   1.000  C
  C45      1.0000 0.54000  0.30074  0.95340  Biso   1.000  C
  C46      1.0000 0.96000  0.69926  0.45340  Biso   1.000  C
  C47      1.0000 0.04000  0.19926  0.04660  Biso   1.000  C
  C48      1.0000 0.46000  0.80074  0.54660  Biso   1.000  C
  C49      1.0000 0.29940  0.59640  0.10884  Biso   1.000  C
  C50      1.0000 0.20060  0.40360  0.60884  Biso   1.000  C
  C51      1.0000 0.79940  0.90360  0.89116  Biso   1.000  C
  C52      1.0000 0.70060  0.09640  0.39116  Biso   1.000  C
  C53      1.0000 0.70060  0.40360  0.89116  Biso   1.000  C
  C54      1.0000 0.79940  0.59640  0.39116  Biso   1.000  C
  C55      1.0000 0.20060  0.09640  0.10884  Biso   1.000  C
  C56      1.0000 0.29940  0.90360  0.60884  Biso   1.000  C
  H17      1.0000 0.31510  0.57980  0.14070  Biso   1.000  H
  H18      1.0000 0.18490  0.42020  0.64070  Biso   1.000  H
  H19      1.0000 0.81510  0.92020  0.85930  Biso   1.000  H
  H20      1.0000 0.68490  0.07980  0.35930  Biso   1.000  H
  H21      1.0000 0.68490  0.42020  0.85930  Biso   1.000  H
  H22      1.0000 0.81510  0.57980  0.35930  Biso   1.000  H
  H23      1.0000 0.18490  0.07980  0.14070  Biso   1.000  H
  H24      1.0000 0.31510  0.92020  0.64070  Biso   1.000  H
  H25      1.0000 0.29540  0.56460  0.08440  Biso   1.000  H
  H26      1.0000 0.20460  0.43540  0.58440  Biso   1.000  H
  H27      1.0000 0.79540  0.93540  0.91560  Biso   1.000  H
  H28      1.0000 0.70460  0.06460  0.41560  Biso   1.000  H
  H29      1.0000 0.70460  0.43540  0.91560  Biso   1.000  H
  H30      1.0000 0.79540  0.56460  0.41560  Biso   1.000  H
  H31      1.0000 0.20460  0.06460  0.08440  Biso   1.000  H
  H32      1.0000 0.29540  0.93540  0.58440  Biso   1.000  H
  N33      1.0000 0.74630  0.05283  0.24284  Biso   1.000  N
  N34      1.0000 0.75370  0.94717  0.74284  Biso   1.000  N
  N35      1.0000 0.24630  0.44717  0.75716  Biso   1.000  N
  N36      1.0000 0.25370  0.55283  0.25716  Biso   1.000  N
  N37      1.0000 0.25370  0.94717  0.75716  Biso   1.000  N
  N38      1.0000 0.24630  0.05283  0.25716  Biso   1.000  N
  N39      1.0000 0.75370  0.55283  0.24284  Biso   1.000  N
  N40      1.0000 0.74630  0.44717  0.74284  Biso   1.000  N
  C57      1.0000 0.52184  0.89696  0.03446  Biso   1.000  C
  C58      1.0000 0.97816  0.10304  0.53446  Biso   1.000  C
  C59      1.0000 0.02184  0.60304  0.96554  Biso   1.000  C
  C60      1.0000 0.47816  0.39696  0.46554  Biso   1.000  C
  C61      1.0000 0.47816  0.10304  0.96554  Biso   1.000  C
  C62      1.0000 0.02184  0.89696  0.46554  Biso   1.000  C
  C63      1.0000 0.97816  0.39696  0.03446  Biso   1.000  C
  C64      1.0000 0.52184  0.60304  0.53446  Biso   1.000  C
  C65      1.0000 0.61940  0.11679  0.17386  Biso   1.000  C
  C66      1.0000 0.88060  0.88321  0.67386  Biso   1.000  C
  C67      1.0000 0.11940  0.38321  0.82614  Biso   1.000  C
  C68      1.0000 0.38060  0.61679  0.32614  Biso   1.000  C
  C69      1.0000 0.38060  0.88321  0.82614  Biso   1.000  C
  C70      1.0000 0.11940  0.11679  0.32614  Biso   1.000  C
  C71      1.0000 0.88060  0.61679  0.17386  Biso   1.000  C
  C72      1.0000 0.61940  0.38321  0.67386  Biso   1.000  C
  C73      1.0000 0.68620  0.00467  0.08103  Biso   1.000  C
  C74      1.0000 0.81380  0.99533  0.58103  Biso   1.000  C
  C75      1.0000 0.18620  0.49533  0.91897  Biso   1.000  C
  C76      1.0000 0.31380  0.50467  0.41897  Biso   1.000  C
  C77      1.0000 0.31380  0.99533  0.91897  Biso   1.000  C
  C78      1.0000 0.18620  0.00467  0.41897  Biso   1.000  C
  C79      1.0000 0.81380  0.50467  0.08103  Biso   1.000  C
  C80      1.0000 0.68620  0.49533  0.58103  Biso   1.000  C
  H33      1.0000 0.66940  0.02790  0.10920  Biso   1.000  H
  H34      1.0000 0.83060  0.97210  0.60920  Biso   1.000  H
  H35      1.0000 0.16940  0.47210  0.89080  Biso   1.000  H
  H36      1.0000 0.33060  0.52790  0.39080  Biso   1.000  H
  H37      1.0000 0.33060  0.97210  0.89080  Biso   1.000  H
  H38      1.0000 0.16940  0.02790  0.39080  Biso   1.000  H
  H39      1.0000 0.83060  0.52790  0.10920  Biso   1.000  H
  H40      1.0000 0.66940  0.47210  0.60920  Biso   1.000  H
  H41      1.0000 0.69230  0.03070  0.05200  Biso   1.000  H
  H42      1.0000 0.80770  0.96930  0.55200  Biso   1.000  H
  H43      1.0000 0.19230  0.46930  0.94800  Biso   1.000  H
  H44      1.0000 0.30770  0.53070  0.44800  Biso   1.000  H
  H45      1.0000 0.30770  0.96930  0.94800  Biso   1.000  H
  H46      1.0000 0.19230  0.03070  0.44800  Biso   1.000  H
  H47      1.0000 0.80770  0.53070  0.05200  Biso   1.000  H
  H48      1.0000 0.69230  0.46930  0.55200  Biso   1.000  H
  C81      1.0000 0.71800  0.69637  0.20058  Biso   1.000  C
  C82      1.0000 0.78200  0.30363  0.70058  Biso   1.000  C
  C83      1.0000 0.21800  0.80363  0.79942  Biso   1.000  C
  C84      1.0000 0.28200  0.19637  0.29942  Biso   1.000  C
  C85      1.0000 0.28200  0.30363  0.79942  Biso   1.000  C
  C86      1.0000 0.21800  0.69637  0.29942  Biso   1.000  C
  C87      1.0000 0.78200  0.19637  0.20058  Biso   1.000  C
  C88      1.0000 0.71800  0.80363  0.70058  Biso   1.000  C
  H49      1.0000 0.74480  0.66760  0.21440  Biso   1.000  H
  H50      1.0000 0.75520  0.33240  0.71440  Biso   1.000  H
  H51      1.0000 0.24480  0.83240  0.78560  Biso   1.000  H
  H52      1.0000 0.25520  0.16760  0.28560  Biso   1.000  H
  H53      1.0000 0.25520  0.33240  0.78560  Biso   1.000  H
  H54      1.0000 0.24480  0.66760  0.28560  Biso   1.000  H
  H55      1.0000 0.75520  0.16760  0.21440  Biso   1.000  H
  H56      1.0000 0.74480  0.83240  0.71440  Biso   1.000  H
  C89      1.0000 0.73060  0.84957  0.16414  Biso   1.000  C
  C90      1.0000 0.76940  0.15043  0.66414  Biso   1.000  C
  C91      1.0000 0.23060  0.65043  0.83586  Biso   1.000  C
  C92      1.0000 0.26940  0.34957  0.33586  Biso   1.000  C
  C93      1.0000 0.26940  0.15043  0.83586  Biso   1.000  C
  C94      1.0000 0.23060  0.84957  0.33586  Biso   1.000  C
  C95      1.0000 0.76940  0.34957  0.16414  Biso   1.000  C
  C96      1.0000 0.73060  0.65043  0.66414  Biso   1.000  C
  H57      1.0000 0.77250  0.85370  0.17680  Biso   1.000  H
  H58      1.0000 0.72750  0.14630  0.67680  Biso   1.000  H
  H59      1.0000 0.27250  0.64630  0.82320  Biso   1.000  H
  H60      1.0000 0.22750  0.35370  0.32320  Biso   1.000  H
  H61      1.0000 0.22750  0.14630  0.82320  Biso   1.000  H
  H62      1.0000 0.27250  0.85370  0.32320  Biso   1.000  H
  H63      1.0000 0.72750  0.35370  0.17680  Biso   1.000  H
  H64      1.0000 0.77250  0.64630  0.67680  Biso   1.000  H
  C97      1.0000 0.18920  0.57310  0.13121  Biso   1.000  C
  C98      1.0000 0.31080  0.42690  0.63121  Biso   1.000  C
  C99      1.0000 0.68920  0.92690  0.86879  Biso   1.000  C
  C100     1.0000 0.81080  0.07310  0.36879  Biso   1.000  C
  C101     1.0000 0.81080  0.42690  0.86879  Biso   1.000  C
  C102     1.0000 0.68920  0.57310  0.36879  Biso   1.000  C
  C103     1.0000 0.31080  0.07310  0.13121  Biso   1.000  C
  C104     1.0000 0.18920  0.92690  0.63121  Biso   1.000  C
  H65      1.0000 0.20590  0.55230  0.16030  Biso   1.000  H
  H66      1.0000 0.29410  0.44770  0.66030  Biso   1.000  H
  H67      1.0000 0.70590  0.94770  0.83970  Biso   1.000  H
  H68      1.0000 0.79410  0.05230  0.33970  Biso   1.000  H
  H69      1.0000 0.79410  0.44770  0.83970  Biso   1.000  H
  H70      1.0000 0.70590  0.55230  0.33970  Biso   1.000  H
  H71      1.0000 0.29410  0.05230  0.16030  Biso   1.000  H
  H72      1.0000 0.20590  0.94770  0.66030  Biso   1.000  H
  H73      1.0000 0.18570  0.54670  0.10270  Biso   1.000  H
  H74      1.0000 0.31430  0.45330  0.60270  Biso   1.000  H
  H75      1.0000 0.68570  0.95330  0.89730  Biso   1.000  H
  H76      1.0000 0.81430  0.04670  0.39730  Biso   1.000  H
  H77      1.0000 0.81430  0.45330  0.89730  Biso   1.000  H
  H78      1.0000 0.68570  0.54670  0.39730  Biso   1.000  H
  H79      1.0000 0.31430  0.04670  0.10270  Biso   1.000  H
  H80      1.0000 0.18570  0.95330  0.60270  Biso   1.000  H
  H81      1.0000 0.14720  0.58860  0.13930  Biso   1.000  H
  H82      1.0000 0.35280  0.41140  0.63930  Biso   1.000  H
  H83      1.0000 0.64720  0.91140  0.86070  Biso   1.000  H
  H84      1.0000 0.85280  0.08860  0.36070  Biso   1.000  H
  H85      1.0000 0.85280  0.41140  0.86070  Biso   1.000  H
  H86      1.0000 0.64720  0.58860  0.36070  Biso   1.000  H
  H87      1.0000 0.35280  0.08860  0.13930  Biso   1.000  H
  H88      1.0000 0.14720  0.91140  0.63930  Biso   1.000  H
  C105     1.0000 0.51380  0.72086  0.02166  Biso   1.000  C
  C106     1.0000 0.98620  0.27914  0.52166  Biso   1.000  C
  C107     1.0000 0.01380  0.77914  0.97834  Biso   1.000  C
  C108     1.0000 0.48620  0.22086  0.47834  Biso   1.000  C
  C109     1.0000 0.48620  0.27914  0.97834  Biso   1.000  C
  C110     1.0000 0.01380  0.72086  0.47834  Biso   1.000  C
  C111     1.0000 0.98620  0.22086  0.02166  Biso   1.000  C
  C112     1.0000 0.51380  0.77914  0.52166  Biso   1.000  C
  C113     1.0000 0.75030  0.98034  0.09619  Biso   1.000  C
  C114     1.0000 0.74970  0.01966  0.59619  Biso   1.000  C
  C115     1.0000 0.25030  0.51966  0.90381  Biso   1.000  C
  C116     1.0000 0.24970  0.48034  0.40381  Biso   1.000  C
  C117     1.0000 0.24970  0.01966  0.90381  Biso   1.000  C
  C118     1.0000 0.25030  0.98034  0.40381  Biso   1.000  C
  C119     1.0000 0.74970  0.48034  0.09619  Biso   1.000  C
  C120     1.0000 0.75030  0.51966  0.59619  Biso   1.000  C
  C121     1.0000 0.55770  0.93529  0.00555  Biso   1.000  C
  C122     1.0000 0.94230  0.06471  0.50555  Biso   1.000  C
  C123     1.0000 0.05770  0.56471  0.99445  Biso   1.000  C
  C124     1.0000 0.44230  0.43529  0.49445  Biso   1.000  C
  C125     1.0000 0.44230  0.06471  0.99445  Biso   1.000  C
  C126     1.0000 0.05770  0.93529  0.49445  Biso   1.000  C
  C127     1.0000 0.94230  0.43529  0.00555  Biso   1.000  C
  C128     1.0000 0.55770  0.56471  0.50555  Biso   1.000  C
  C129     1.0000 0.20930  0.65360  0.07057  Biso   1.000  C
  C130     1.0000 0.29070  0.34640  0.57057  Biso   1.000  C
  C131     1.0000 0.70930  0.84640  0.92943  Biso   1.000  C
  C132     1.0000 0.79070  0.15360  0.42943  Biso   1.000  C
  C133     1.0000 0.79070  0.34640  0.92943  Biso   1.000  C
  C134     1.0000 0.70930  0.65360  0.42943  Biso   1.000  C
  C135     1.0000 0.29070  0.15360  0.07057  Biso   1.000  C
  C136     1.0000 0.20930  0.84640  0.57057  Biso   1.000  C
  H89      1.0000 0.20900  0.62690  0.04210  Biso   1.000  H
  H90      1.0000 0.29100  0.37310  0.54210  Biso   1.000  H
  H91      1.0000 0.70900  0.87310  0.95790  Biso   1.000  H
  H92      1.0000 0.79100  0.12690  0.45790  Biso   1.000  H
  H93      1.0000 0.79100  0.37310  0.95790  Biso   1.000  H
  H94      1.0000 0.70900  0.62690  0.45790  Biso   1.000  H
  H95      1.0000 0.29100  0.12690  0.04210  Biso   1.000  H
  H96      1.0000 0.20900  0.87310  0.54210  Biso   1.000  H
  H97      1.0000 0.23720  0.68620  0.06300  Biso   1.000  H
  H98      1.0000 0.26280  0.31380  0.56300  Biso   1.000  H
  H99      1.0000 0.73720  0.81380  0.93700  Biso   1.000  H
  H100     1.0000 0.76280  0.18620  0.43700  Biso   1.000  H
  H101     1.0000 0.76280  0.31380  0.93700  Biso   1.000  H
  H102     1.0000 0.73720  0.68620  0.43700  Biso   1.000  H
  H103     1.0000 0.26280  0.18620  0.06300  Biso   1.000  H
  H104     1.0000 0.23720  0.81380  0.56300  Biso   1.000  H
  H105     1.0000 0.16610  0.66760  0.07670  Biso   1.000  H
  H106     1.0000 0.33390  0.33240  0.57670  Biso   1.000  H
  H107     1.0000 0.66610  0.83240  0.92330  Biso   1.000  H
  H108     1.0000 0.83390  0.16760  0.42330  Biso   1.000  H
  H109     1.0000 0.83390  0.33240  0.92330  Biso   1.000  H
  H110     1.0000 0.66610  0.66760  0.42330  Biso   1.000  H
  H111     1.0000 0.33390  0.16760  0.07670  Biso   1.000  H
  H112     1.0000 0.16610  0.83240  0.57670  Biso   1.000  H
  C137     1.0000 0.65500  0.68367  0.18880  Biso   1.000  C
  C138     1.0000 0.84500  0.31633  0.68880  Biso   1.000  C
  C139     1.0000 0.15500  0.81633  0.81120  Biso   1.000  C
  C140     1.0000 0.34500  0.18367  0.31120  Biso   1.000  C
  C141     1.0000 0.34500  0.31633  0.81120  Biso   1.000  C
  C142     1.0000 0.15500  0.68367  0.31120  Biso   1.000  C
  C143     1.0000 0.84500  0.18367  0.18880  Biso   1.000  C
  C144     1.0000 0.65500  0.81633  0.68880  Biso   1.000  C
  H113     1.0000 0.63890  0.64610  0.19480  Biso   1.000  H
  H114     1.0000 0.86110  0.35390  0.69480  Biso   1.000  H
  H115     1.0000 0.13890  0.85390  0.80520  Biso   1.000  H
  H116     1.0000 0.36110  0.14610  0.30520  Biso   1.000  H
  H117     1.0000 0.36110  0.35390  0.80520  Biso   1.000  H
  H118     1.0000 0.13890  0.64610  0.30520  Biso   1.000  H
  H119     1.0000 0.86110  0.14610  0.19480  Biso   1.000  H
  H120     1.0000 0.63890  0.85390  0.69480  Biso   1.000  H
  C145     1.0000 0.77750  0.94178  0.05449  Biso   1.000  C
  C146     1.0000 0.72250  0.05822  0.55449  Biso   1.000  C
  C147     1.0000 0.27750  0.55822  0.94551  Biso   1.000  C
  C148     1.0000 0.22250  0.44178  0.44551  Biso   1.000  C
  C149     1.0000 0.22250  0.05822  0.94551  Biso   1.000  C
  C150     1.0000 0.27750  0.94178  0.44551  Biso   1.000  C
  C151     1.0000 0.72250  0.44178  0.05449  Biso   1.000  C
  C152     1.0000 0.77750  0.55822  0.55449  Biso   1.000  C
  H121     1.0000 0.74970  0.90840  0.04970  Biso   1.000  H
  H122     1.0000 0.75030  0.09160  0.54970  Biso   1.000  H
  H123     1.0000 0.24970  0.59160  0.95030  Biso   1.000  H
  H124     1.0000 0.25030  0.40840  0.45030  Biso   1.000  H
  H125     1.0000 0.25030  0.09160  0.95030  Biso   1.000  H
  H126     1.0000 0.24970  0.90840  0.45030  Biso   1.000  H
  H127     1.0000 0.75030  0.40840  0.04970  Biso   1.000  H
  H128     1.0000 0.74970  0.59160  0.54970  Biso   1.000  H
  H129     1.0000 0.82000  0.92870  0.06400  Biso   1.000  H
  H130     1.0000 0.68000  0.07130  0.56400  Biso   1.000  H
  H131     1.0000 0.32000  0.57130  0.93600  Biso   1.000  H
  H132     1.0000 0.18000  0.42870  0.43600  Biso   1.000  H
  H133     1.0000 0.18000  0.07130  0.93600  Biso   1.000  H
  H134     1.0000 0.32000  0.92870  0.43600  Biso   1.000  H
  H135     1.0000 0.68000  0.42870  0.06400  Biso   1.000  H
  H136     1.0000 0.82000  0.57130  0.56400  Biso   1.000  H
  H137     1.0000 0.78000  0.96370  0.02310  Biso   1.000  H
  H138     1.0000 0.72000  0.03630  0.52310  Biso   1.000  H
  H139     1.0000 0.28000  0.53630  0.97690  Biso   1.000  H
  H140     1.0000 0.22000  0.46370  0.47690  Biso   1.000  H
  H141     1.0000 0.22000  0.03630  0.97690  Biso   1.000  H
  H142     1.0000 0.28000  0.96370  0.47690  Biso   1.000  H
  H143     1.0000 0.72000  0.46370  0.02310  Biso   1.000  H
  H144     1.0000 0.78000  0.53630  0.52310  Biso   1.000  H
  C153     1.0000 0.28150  0.81668  0.18115  Biso   1.000  C
  C154     1.0000 0.21850  0.18332  0.68115  Biso   1.000  C
  C155     1.0000 0.78150  0.68332  0.81885  Biso   1.000  C
  C156     1.0000 0.71850  0.31668  0.31885  Biso   1.000  C
  C157     1.0000 0.71850  0.18332  0.81885  Biso   1.000  C
  C158     1.0000 0.78150  0.81668  0.31885  Biso   1.000  C
  C159     1.0000 0.21850  0.31668  0.18115  Biso   1.000  C
  C160     1.0000 0.28150  0.68332  0.68115  Biso   1.000  C
  C161     1.0000 0.24510  0.85973  0.20431  Biso   1.000  C
  C162     1.0000 0.25490  0.14027  0.70431  Biso   1.000  C
  C163     1.0000 0.74510  0.64027  0.79569  Biso   1.000  C
  C164     1.0000 0.75490  0.35973  0.29569  Biso   1.000  C
  C165     1.0000 0.75490  0.14027  0.79569  Biso   1.000  C
  C166     1.0000 0.74510  0.85973  0.29569  Biso   1.000  C
  C167     1.0000 0.25490  0.35973  0.20431  Biso   1.000  C
  C168     1.0000 0.24510  0.64027  0.70431  Biso   1.000  C
  H145     1.0000 0.20350  0.85100  0.21600  Biso   1.000  H
  H146     1.0000 0.29650  0.14900  0.71600  Biso   1.000  H
  H147     1.0000 0.70350  0.64900  0.78400  Biso   1.000  H
  H148     1.0000 0.79650  0.35100  0.28400  Biso   1.000  H
  H149     1.0000 0.79650  0.14900  0.78400  Biso   1.000  H
  H150     1.0000 0.70350  0.85100  0.28400  Biso   1.000  H
  H151     1.0000 0.29650  0.35100  0.21600  Biso   1.000  H
  H152     1.0000 0.20350  0.64900  0.71600  Biso   1.000  H
  C169     1.0000 0.32920  0.92788  0.19246  Biso   1.000  C
  C170     1.0000 0.17080  0.07212  0.69246  Biso   1.000  C
  C171     1.0000 0.82920  0.57212  0.80754  Biso   1.000  C
  C172     1.0000 0.67080  0.42788  0.30754  Biso   1.000  C
  C173     1.0000 0.67080  0.07212  0.80754  Biso   1.000  C
  C174     1.0000 0.82920  0.92788  0.30754  Biso   1.000  C
  C175     1.0000 0.17080  0.42788  0.19246  Biso   1.000  C
  C176     1.0000 0.32920  0.57212  0.69246  Biso   1.000  C
  H153     1.0000 0.34560  0.96570  0.19650  Biso   1.000  H
  H154     1.0000 0.15440  0.03430  0.69650  Biso   1.000  H
  H155     1.0000 0.84560  0.53430  0.80350  Biso   1.000  H
  H156     1.0000 0.65440  0.46570  0.30350  Biso   1.000  H
  H157     1.0000 0.65440  0.03430  0.80350  Biso   1.000  H
  H158     1.0000 0.84560  0.96570  0.30350  Biso   1.000  H
  H159     1.0000 0.15440  0.46570  0.19650  Biso   1.000  H
  H160     1.0000 0.34560  0.53430  0.69650  Biso   1.000  H
  C177     1.0000 0.54010  0.94600  0.95521  Biso   1.000  C
  C178     1.0000 0.95990  0.05400  0.45521  Biso   1.000  C
  C179     1.0000 0.04010  0.55400  0.04479  Biso   1.000  C
  C180     1.0000 0.45990  0.44600  0.54479  Biso   1.000  C
  C181     1.0000 0.45990  0.05400  0.04479  Biso   1.000  C
  C182     1.0000 0.04010  0.94600  0.54479  Biso   1.000  C
  C183     1.0000 0.95990  0.44600  0.95521  Biso   1.000  C
  C184     1.0000 0.54010  0.55400  0.45521  Biso   1.000  C
  H161     1.0000 0.56430  0.97220  0.93570  Biso   1.000  H
  H162     1.0000 0.93570  0.02780  0.43570  Biso   1.000  H
  H163     1.0000 0.06430  0.52780  0.06430  Biso   1.000  H
  H164     1.0000 0.43570  0.47220  0.56430  Biso   1.000  H
  H165     1.0000 0.43570  0.02780  0.06430  Biso   1.000  H
  H166     1.0000 0.06430  0.97220  0.56430  Biso   1.000  H
  H167     1.0000 0.93570  0.47220  0.93570  Biso   1.000  H
  H168     1.0000 0.56430  0.52780  0.43570  Biso   1.000  H
  C185     1.0000 0.34306  0.82933  0.16405  Biso   1.000  C
  C186     1.0000 0.15694  0.17067  0.66405  Biso   1.000  C
  C187     1.0000 0.84306  0.67067  0.83595  Biso   1.000  C
  C188     1.0000 0.65694  0.32933  0.33595  Biso   1.000  C
  C189     1.0000 0.65694  0.17067  0.83595  Biso   1.000  C
  C190     1.0000 0.84306  0.82933  0.33595  Biso   1.000  C
  C191     1.0000 0.15694  0.32933  0.16405  Biso   1.000  C
  C192     1.0000 0.34306  0.67067  0.66405  Biso   1.000  C
  N41      1.0000 0.63033  0.14636  0.14021  Biso   1.000  N
  N42      1.0000 0.86967  0.85364  0.64021  Biso   1.000  N
  N43      1.0000 0.13033  0.35364  0.85979  Biso   1.000  N
  N44      1.0000 0.36967  0.64636  0.35979  Biso   1.000  N
  N45      1.0000 0.36967  0.85364  0.85979  Biso   1.000  N
  N46      1.0000 0.13033  0.14636  0.35979  Biso   1.000  N
  N47      1.0000 0.86967  0.64636  0.14021  Biso   1.000  N
  N48      1.0000 0.63033  0.35364  0.64021  Biso   1.000  N
  C193     1.0000 0.36515  0.88621  0.16882  Biso   1.000  C
  C194     1.0000 0.13485  0.11379  0.66882  Biso   1.000  C
  C195     1.0000 0.86515  0.61379  0.83118  Biso   1.000  C
  C196     1.0000 0.63485  0.38621  0.33118  Biso   1.000  C
  C197     1.0000 0.63485  0.11379  0.83118  Biso   1.000  C
  C198     1.0000 0.86515  0.88621  0.33118  Biso   1.000  C
  C199     1.0000 0.13485  0.38621  0.16882  Biso   1.000  C
  C200     1.0000 0.36515  0.61379  0.66882  Biso   1.000  C
  C201     1.0000 0.60380  0.13802  0.27360  Biso   1.000  C
  C202     1.0000 0.89620  0.86198  0.77360  Biso   1.000  C
  C203     1.0000 0.10380  0.36198  0.72640  Biso   1.000  C
  C204     1.0000 0.39620  0.63802  0.22640  Biso   1.000  C
  C205     1.0000 0.39620  0.86198  0.72640  Biso   1.000  C
  C206     1.0000 0.10380  0.13802  0.22640  Biso   1.000  C
  C207     1.0000 0.89620  0.63802  0.27360  Biso   1.000  C
  C208     1.0000 0.60380  0.36198  0.77360  Biso   1.000  C
  C209     1.0000 0.37510  0.62450  0.04871  Biso   1.000  C
  C210     1.0000 0.12490  0.37550  0.54871  Biso   1.000  C
  C211     1.0000 0.87510  0.87550  0.95129  Biso   1.000  C
  C212     1.0000 0.62490  0.12450  0.45129  Biso   1.000  C
  C213     1.0000 0.62490  0.37550  0.95129  Biso   1.000  C
  C214     1.0000 0.87510  0.62450  0.45129  Biso   1.000  C
  C215     1.0000 0.12490  0.12450  0.04871  Biso   1.000  C
  C216     1.0000 0.37510  0.87550  0.54871  Biso   1.000  C
  H169     1.0000 0.35980  0.59100  0.03230  Biso   1.000  H
  H170     1.0000 0.14020  0.40900  0.53230  Biso   1.000  H
  H171     1.0000 0.85980  0.90900  0.96770  Biso   1.000  H
  H172     1.0000 0.64020  0.09100  0.46770  Biso   1.000  H
  H173     1.0000 0.64020  0.40900  0.96770  Biso   1.000  H
  H174     1.0000 0.85980  0.59100  0.46770  Biso   1.000  H
  H175     1.0000 0.14020  0.09100  0.03230  Biso   1.000  H
  H176     1.0000 0.35980  0.90900  0.53230  Biso   1.000  H
  C217     1.0000 0.70170  0.79395  0.17146  Biso   1.000  C
  C218     1.0000 0.79830  0.20605  0.67146  Biso   1.000  C
  C219     1.0000 0.20170  0.70605  0.82854  Biso   1.000  C
  C220     1.0000 0.29830  0.29395  0.32854  Biso   1.000  C
  C221     1.0000 0.29830  0.20605  0.82854  Biso   1.000  C
  C222     1.0000 0.20170  0.79395  0.32854  Biso   1.000  C
  C223     1.0000 0.79830  0.29395  0.17146  Biso   1.000  C
  C224     1.0000 0.70170  0.70605  0.67146  Biso   1.000  C
  C225     1.0000 0.60560  0.78090  0.02626  Biso   1.000  C
  C226     1.0000 0.89440  0.21910  0.52626  Biso   1.000  C
  C227     1.0000 0.10560  0.71910  0.97374  Biso   1.000  C
  C228     1.0000 0.39440  0.28090  0.47374  Biso   1.000  C
  C229     1.0000 0.39440  0.21910  0.97374  Biso   1.000  C
  C230     1.0000 0.10560  0.78090  0.47374  Biso   1.000  C
  C231     1.0000 0.89440  0.28090  0.02626  Biso   1.000  C
  C232     1.0000 0.60560  0.71910  0.52626  Biso   1.000  C
  H177     1.0000 0.63090  0.74670  0.01820  Biso   1.000  H
  H178     1.0000 0.86910  0.25330  0.51820  Biso   1.000  H
  H179     1.0000 0.13090  0.75330  0.98180  Biso   1.000  H
  H180     1.0000 0.36910  0.24670  0.48180  Biso   1.000  H
  H181     1.0000 0.36910  0.25330  0.98180  Biso   1.000  H
  H182     1.0000 0.13090  0.74670  0.48180  Biso   1.000  H
  H183     1.0000 0.86910  0.24670  0.01820  Biso   1.000  H
  H184     1.0000 0.63090  0.75330  0.51820  Biso   1.000  H
  H185     1.0000 0.62870  0.80480  0.05030  Biso   1.000  H
  H186     1.0000 0.87130  0.19520  0.55030  Biso   1.000  H
  H187     1.0000 0.12870  0.69520  0.94970  Biso   1.000  H
  H188     1.0000 0.37130  0.30480  0.44970  Biso   1.000  H
  H189     1.0000 0.37130  0.19520  0.94970  Biso   1.000  H
  H190     1.0000 0.12870  0.80480  0.44970  Biso   1.000  H
  H191     1.0000 0.87130  0.30480  0.05030  Biso   1.000  H
  H192     1.0000 0.62870  0.69520  0.55030  Biso   1.000  H
  H193     1.0000 0.59760  0.80290  0.99560  Biso   1.000  H
  H194     1.0000 0.90240  0.19710  0.49560  Biso   1.000  H
  H195     1.0000 0.09760  0.69710  0.00440  Biso   1.000  H
  H196     1.0000 0.40240  0.30290  0.50440  Biso   1.000  H
  H197     1.0000 0.40240  0.19710  0.00440  Biso   1.000  H
  H198     1.0000 0.09760  0.80290  0.50440  Biso   1.000  H
  H199     1.0000 0.90240  0.30290  0.99560  Biso   1.000  H
  H200     1.0000 0.59760  0.69710  0.49560  Biso   1.000  H
  C233     1.0000 0.25220  0.76044  0.17697  Biso   1.000  C
  C234     1.0000 0.24780  0.23956  0.67697  Biso   1.000  C
  C235     1.0000 0.75220  0.73956  0.82303  Biso   1.000  C
  C236     1.0000 0.74780  0.26044  0.32303  Biso   1.000  C
  C237     1.0000 0.74780  0.23956  0.82303  Biso   1.000  C
  C238     1.0000 0.75220  0.76044  0.32303  Biso   1.000  C
  C239     1.0000 0.24780  0.26044  0.17697  Biso   1.000  C
  C240     1.0000 0.25220  0.73956  0.67697  Biso   1.000  C
  H201     1.0000 0.21130  0.75680  0.19160  Biso   1.000  H
  H202     1.0000 0.28870  0.24320  0.69160  Biso   1.000  H
  H203     1.0000 0.71130  0.74320  0.80840  Biso   1.000  H
  H204     1.0000 0.78870  0.25680  0.30840  Biso   1.000  H
  H205     1.0000 0.78870  0.24320  0.80840  Biso   1.000  H
  H206     1.0000 0.71130  0.75680  0.30840  Biso   1.000  H
  H207     1.0000 0.28870  0.25680  0.19160  Biso   1.000  H
  H208     1.0000 0.21130  0.74320  0.69160  Biso   1.000  H
  C241     1.0000 0.53170  0.70080  0.97516  Biso   1.000  C
  C242     1.0000 0.96830  0.29920  0.47516  Biso   1.000  C
  C243     1.0000 0.03170  0.79920  0.02484  Biso   1.000  C
  C244     1.0000 0.46830  0.20080  0.52484  Biso   1.000  C
  C245     1.0000 0.46830  0.29920  0.02484  Biso   1.000  C
  C246     1.0000 0.03170  0.70080  0.52484  Biso   1.000  C
  C247     1.0000 0.96830  0.20080  0.97516  Biso   1.000  C
  C248     1.0000 0.53170  0.79920  0.47516  Biso   1.000  C
  H209     1.0000 0.56780  0.71660  0.95880  Biso   1.000  H
  H210     1.0000 0.93220  0.28340  0.45880  Biso   1.000  H
  H211     1.0000 0.06780  0.78340  0.04120  Biso   1.000  H
  H212     1.0000 0.43220  0.21660  0.54120  Biso   1.000  H
  H213     1.0000 0.43220  0.28340  0.04120  Biso   1.000  H
  H214     1.0000 0.06780  0.71660  0.54120  Biso   1.000  H
  H215     1.0000 0.93220  0.21660  0.95880  Biso   1.000  H
  H216     1.0000 0.56780  0.78340  0.45880  Biso   1.000  H
  C249     1.0000 0.74090  0.75065  0.19208  Biso   1.000  C
  C250     1.0000 0.75910  0.24935  0.69208  Biso   1.000  C
  C251     1.0000 0.24090  0.74935  0.80792  Biso   1.000  C
  C252     1.0000 0.25910  0.25065  0.30792  Biso   1.000  C
  C253     1.0000 0.25910  0.24935  0.80792  Biso   1.000  C
  C254     1.0000 0.24090  0.75065  0.30792  Biso   1.000  C
  C255     1.0000 0.75910  0.25065  0.19208  Biso   1.000  C
  C256     1.0000 0.74090  0.74935  0.69208  Biso   1.000  C
  H217     1.0000 0.78380  0.75930  0.20010  Biso   1.000  H
  H218     1.0000 0.71620  0.24070  0.70010  Biso   1.000  H
  H219     1.0000 0.28380  0.74070  0.79990  Biso   1.000  H
  H220     1.0000 0.21620  0.25930  0.29990  Biso   1.000  H
  H221     1.0000 0.21620  0.24070  0.79990  Biso   1.000  H
  H222     1.0000 0.28380  0.75930  0.29990  Biso   1.000  H
  H223     1.0000 0.71620  0.25930  0.20010  Biso   1.000  H
  H224     1.0000 0.78380  0.74070  0.70010  Biso   1.000  H
  C257     1.0000 0.61050  0.96796  0.02504  Biso   1.000  C
  C258     1.0000 0.88950  0.03204  0.52504  Biso   1.000  C
  C259     1.0000 0.11050  0.53204  0.97496  Biso   1.000  C
  C260     1.0000 0.38950  0.46796  0.47496  Biso   1.000  C
  C261     1.0000 0.38950  0.03204  0.97496  Biso   1.000  C
  C262     1.0000 0.11050  0.96796  0.47496  Biso   1.000  C
  C263     1.0000 0.88950  0.46796  0.02504  Biso   1.000  C
  C264     1.0000 0.61050  0.53204  0.52504  Biso   1.000  C
  H225     1.0000 0.62610  0.99800  0.00420  Biso   1.000  H
  H226     1.0000 0.87390  0.00200  0.50420  Biso   1.000  H
  H227     1.0000 0.12610  0.50200  0.99580  Biso   1.000  H
  H228     1.0000 0.37390  0.49800  0.49580  Biso   1.000  H
  H229     1.0000 0.37390  0.00200  0.99580  Biso   1.000  H
  H230     1.0000 0.12610  0.99800  0.49580  Biso   1.000  H
  H231     1.0000 0.87390  0.49800  0.00420  Biso   1.000  H
  H232     1.0000 0.62610  0.50200  0.50420  Biso   1.000  H
  C265     1.0000 0.45140  0.88280  0.96298  Biso   1.000  C
  C266     1.0000 0.04860  0.11720  0.46298  Biso   1.000  C
  C267     1.0000 0.95140  0.61720  0.03702  Biso   1.000  C
  C268     1.0000 0.54860  0.38280  0.53702  Biso   1.000  C
  C269     1.0000 0.54860  0.11720  0.03702  Biso   1.000  C
  C270     1.0000 0.95140  0.88280  0.53702  Biso   1.000  C
  C271     1.0000 0.04860  0.38280  0.96298  Biso   1.000  C
  C272     1.0000 0.45140  0.61720  0.46298  Biso   1.000  C
  H233     1.0000 0.41480  0.86510  0.94890  Biso   1.000  H
  H234     1.0000 0.08520  0.13490  0.44890  Biso   1.000  H
  H235     1.0000 0.91480  0.63490  0.05110  Biso   1.000  H
  H236     1.0000 0.58520  0.36510  0.55110  Biso   1.000  H
  H237     1.0000 0.58520  0.13490  0.05110  Biso   1.000  H
  H238     1.0000 0.91480  0.86510  0.55110  Biso   1.000  H
  H239     1.0000 0.08520  0.36510  0.94890  Biso   1.000  H
  H240     1.0000 0.41480  0.63490  0.44890  Biso   1.000  H
  C273     1.0000 0.37300  0.81660  0.02600  Biso   1.000  C
  C274     1.0000 0.12700  0.18340  0.52600  Biso   1.000  C
  C275     1.0000 0.87300  0.68340  0.97400  Biso   1.000  C
  C276     1.0000 0.62700  0.31660  0.47400  Biso   1.000  C
  C277     1.0000 0.62700  0.18340  0.97400  Biso   1.000  C
  C278     1.0000 0.87300  0.81660  0.47400  Biso   1.000  C
  C279     1.0000 0.12700  0.31660  0.02600  Biso   1.000  C
  C280     1.0000 0.37300  0.68340  0.52600  Biso   1.000  C
  H241     1.0000 0.34660  0.84960  0.01650  Biso   1.000  H
  H242     1.0000 0.15340  0.15040  0.51650  Biso   1.000  H
  H243     1.0000 0.84660  0.65040  0.98350  Biso   1.000  H
  H244     1.0000 0.65340  0.34960  0.48350  Biso   1.000  H
  H245     1.0000 0.65340  0.15040  0.98350  Biso   1.000  H
  H246     1.0000 0.84660  0.84960  0.48350  Biso   1.000  H
  H247     1.0000 0.15340  0.34960  0.01650  Biso   1.000  H
  H248     1.0000 0.34660  0.65040  0.51650  Biso   1.000  H
  H249     1.0000 0.35150  0.79440  0.05220  Biso   1.000  H
  H250     1.0000 0.14850  0.20560  0.55220  Biso   1.000  H
  H251     1.0000 0.85150  0.70560  0.94780  Biso   1.000  H
  H252     1.0000 0.64850  0.29440  0.44780  Biso   1.000  H
  H253     1.0000 0.64850  0.20560  0.94780  Biso   1.000  H
  H254     1.0000 0.85150  0.79440  0.44780  Biso   1.000  H
  H255     1.0000 0.14850  0.29440  0.05220  Biso   1.000  H
  H256     1.0000 0.35150  0.70560  0.55220  Biso   1.000  H
  H257     1.0000 0.38000  0.79210  0.99660  Biso   1.000  H
  H258     1.0000 0.12000  0.20790  0.49660  Biso   1.000  H
  H259     1.0000 0.88000  0.70790  0.00340  Biso   1.000  H
  H260     1.0000 0.62000  0.29210  0.50340  Biso   1.000  H
  H261     1.0000 0.62000  0.20790  0.00340  Biso   1.000  H
  H262     1.0000 0.88000  0.79210  0.50340  Biso   1.000  H
  H263     1.0000 0.12000  0.29210  0.99660  Biso   1.000  H
  H264     1.0000 0.38000  0.70790  0.49660  Biso   1.000  H
  C281     1.0000 0.69210  0.05883  0.24005  Biso   1.000  C
  C282     1.0000 0.80790  0.94117  0.74005  Biso   1.000  C
  C283     1.0000 0.19210  0.44117  0.75995  Biso   1.000  C
  C284     1.0000 0.30790  0.55883  0.25995  Biso   1.000  C
  C285     1.0000 0.30790  0.94117  0.75995  Biso   1.000  C
  C286     1.0000 0.19210  0.05883  0.25995  Biso   1.000  C
  C287     1.0000 0.80790  0.55883  0.24005  Biso   1.000  C
  C288     1.0000 0.69210  0.44117  0.74005  Biso   1.000  C
  C289     1.0000 0.46770  0.87239  0.01270  Biso   1.000  C
  C290     1.0000 0.03230  0.12761  0.51270  Biso   1.000  C
  C291     1.0000 0.96770  0.62761  0.98730  Biso   1.000  C
  C292     1.0000 0.53230  0.37239  0.48730  Biso   1.000  C
  C293     1.0000 0.53230  0.12761  0.98730  Biso   1.000  C
  C294     1.0000 0.96770  0.87239  0.48730  Biso   1.000  C
  C295     1.0000 0.03230  0.37239  0.01270  Biso   1.000  C
  C296     1.0000 0.46770  0.62761  0.51270  Biso   1.000  C
  C297     1.0000 0.79400  0.03162  0.10542  Biso   1.000  C
  C298     1.0000 0.70600  0.96838  0.60542  Biso   1.000  C
  C299     1.0000 0.29400  0.46838  0.89458  Biso   1.000  C
  C300     1.0000 0.20600  0.53162  0.39458  Biso   1.000  C
  C301     1.0000 0.20600  0.96838  0.89458  Biso   1.000  C
  C302     1.0000 0.29400  0.03162  0.39458  Biso   1.000  C
  C303     1.0000 0.70600  0.53162  0.10542  Biso   1.000  C
  C304     1.0000 0.79400  0.46838  0.60542  Biso   1.000  C
  H265     1.0000 0.77630  0.05570  0.13210  Biso   1.000  H
  H266     1.0000 0.72370  0.94430  0.63210  Biso   1.000  H
  H267     1.0000 0.27630  0.44430  0.86790  Biso   1.000  H
  H268     1.0000 0.22370  0.55570  0.36790  Biso   1.000  H
  H269     1.0000 0.22370  0.94430  0.86790  Biso   1.000  H
  H270     1.0000 0.27630  0.05570  0.36790  Biso   1.000  H
  H271     1.0000 0.72370  0.55570  0.13210  Biso   1.000  H
  H272     1.0000 0.77630  0.44430  0.63210  Biso   1.000  H
  H273     1.0000 0.79780  0.05430  0.07450  Biso   1.000  H
  H274     1.0000 0.70220  0.94570  0.57450  Biso   1.000  H
  H275     1.0000 0.29780  0.44570  0.92550  Biso   1.000  H
  H276     1.0000 0.20220  0.55430  0.42550  Biso   1.000  H
  H277     1.0000 0.20220  0.94570  0.92550  Biso   1.000  H
  H278     1.0000 0.29780  0.05430  0.42550  Biso   1.000  H
  H279     1.0000 0.70220  0.55430  0.07450  Biso   1.000  H
  H280     1.0000 0.79780  0.44570  0.57450  Biso   1.000  H
  H281     1.0000 0.83610  0.01780  0.11550  Biso   1.000  H
  H282     1.0000 0.66390  0.98220  0.61550  Biso   1.000  H
  H283     1.0000 0.33610  0.48220  0.88450  Biso   1.000  H
  H284     1.0000 0.16390  0.51780  0.38450  Biso   1.000  H
  H285     1.0000 0.16390  0.98220  0.88450  Biso   1.000  H
  H286     1.0000 0.33610  0.01780  0.38450  Biso   1.000  H
  H287     1.0000 0.66390  0.51780  0.11550  Biso   1.000  H
  H288     1.0000 0.83610  0.48220  0.61550  Biso   1.000  H
  C305     1.0000 0.58480  0.02350  0.29192  Biso   1.000  C
  C306     1.0000 0.91520  0.97650  0.79192  Biso   1.000  C
  C307     1.0000 0.08480  0.47650  0.70808  Biso   1.000  C
  C308     1.0000 0.41520  0.52350  0.20808  Biso   1.000  C
  C309     1.0000 0.41520  0.97650  0.70808  Biso   1.000  C
  C310     1.0000 0.08480  0.02350  0.20808  Biso   1.000  C
  C311     1.0000 0.91520  0.52350  0.29192  Biso   1.000  C
  C312     1.0000 0.58480  0.47650  0.79192  Biso   1.000  C
  C313     1.0000 0.42650  0.65388  0.02438  Biso   1.000  C
  C314     1.0000 0.07350  0.34612  0.52438  Biso   1.000  C
  C315     1.0000 0.92650  0.84612  0.97562  Biso   1.000  C
  C316     1.0000 0.57350  0.15388  0.47562  Biso   1.000  C
  C317     1.0000 0.57350  0.34612  0.97562  Biso   1.000  C
  C318     1.0000 0.92650  0.65388  0.47562  Biso   1.000  C
  C319     1.0000 0.07350  0.15388  0.02438  Biso   1.000  C
  C320     1.0000 0.42650  0.84612  0.52438  Biso   1.000  C
  C321     1.0000 0.26890  0.91430  0.21030  Biso   1.000  C
  C322     1.0000 0.23110  0.08570  0.71030  Biso   1.000  C
  C323     1.0000 0.76890  0.58570  0.78970  Biso   1.000  C
  C324     1.0000 0.73110  0.41430  0.28970  Biso   1.000  C
  C325     1.0000 0.73110  0.08570  0.78970  Biso   1.000  C
  C326     1.0000 0.76890  0.91430  0.28970  Biso   1.000  C
  C327     1.0000 0.23110  0.41430  0.21030  Biso   1.000  C
  C328     1.0000 0.26890  0.58570  0.71030  Biso   1.000  C
  H289     1.0000 0.24410  0.94280  0.22660  Biso   1.000  H
  H290     1.0000 0.25590  0.05720  0.72660  Biso   1.000  H
  H291     1.0000 0.74410  0.55720  0.77340  Biso   1.000  H
  H292     1.0000 0.75590  0.44280  0.27340  Biso   1.000  H
  H293     1.0000 0.75590  0.05720  0.77340  Biso   1.000  H
  H294     1.0000 0.74410  0.94280  0.27340  Biso   1.000  H
  H295     1.0000 0.25590  0.44280  0.22660  Biso   1.000  H
  H296     1.0000 0.24410  0.55720  0.72660  Biso   1.000  H
  C329     1.0000 0.49690  0.65710  0.95223  Biso   1.000  C
  C330     1.0000 0.00310  0.34290  0.45223  Biso   1.000  C
  C331     1.0000 0.99690  0.84290  0.04777  Biso   1.000  C
  C332     1.0000 0.50310  0.15710  0.54777  Biso   1.000  C
  C333     1.0000 0.50310  0.34290  0.04777  Biso   1.000  C
  C334     1.0000 0.99690  0.65710  0.54777  Biso   1.000  C
  C335     1.0000 0.00310  0.15710  0.95223  Biso   1.000  C
  C336     1.0000 0.49690  0.84290  0.45223  Biso   1.000  C
  H297     1.0000 0.50820  0.64410  0.91960  Biso   1.000  H
  H298     1.0000 0.99180  0.35590  0.41960  Biso   1.000  H
  H299     1.0000 0.00820  0.85590  0.08040  Biso   1.000  H
  H300     1.0000 0.49180  0.14410  0.58040  Biso   1.000  H
  H301     1.0000 0.49180  0.35590  0.08040  Biso   1.000  H
  H302     1.0000 0.00820  0.64410  0.58040  Biso   1.000  H
  H303     1.0000 0.99180  0.14410  0.91960  Biso   1.000  H
  H304     1.0000 0.50820  0.85590  0.41960  Biso   1.000  H
  C337     1.0000 0.51070  0.07970  0.22050  Biso   1.000  C
  C338     1.0000 0.98930  0.92030  0.72050  Biso   1.000  C
  C339     1.0000 0.01070  0.42030  0.77950  Biso   1.000  C
  C340     1.0000 0.48930  0.57970  0.27950  Biso   1.000  C
  C341     1.0000 0.48930  0.92030  0.77950  Biso   1.000  C
  C342     1.0000 0.01070  0.07970  0.27950  Biso   1.000  C
  C343     1.0000 0.98930  0.57970  0.22050  Biso   1.000  C
  C344     1.0000 0.51070  0.42030  0.72050  Biso   1.000  C
  C345     1.0000 0.48880  0.91930  0.93401  Biso   1.000  C
  C346     1.0000 0.01120  0.08070  0.43401  Biso   1.000  C
  C347     1.0000 0.98880  0.58070  0.06599  Biso   1.000  C
  C348     1.0000 0.51120  0.41930  0.56599  Biso   1.000  C
  C349     1.0000 0.51120  0.08070  0.06599  Biso   1.000  C
  C350     1.0000 0.98880  0.91930  0.56599  Biso   1.000  C
  C351     1.0000 0.01120  0.41930  0.93401  Biso   1.000  C
  C352     1.0000 0.48880  0.58070  0.43401  Biso   1.000  C
  H305     1.0000 0.47880  0.92560  0.89970  Biso   1.000  H
  H306     1.0000 0.02120  0.07440  0.39970  Biso   1.000  H
  H307     1.0000 0.97880  0.57440  0.10030  Biso   1.000  H
  H308     1.0000 0.52120  0.42560  0.60030  Biso   1.000  H
  H309     1.0000 0.52120  0.07440  0.10030  Biso   1.000  H
  H310     1.0000 0.97880  0.92560  0.60030  Biso   1.000  H
  H311     1.0000 0.02120  0.42560  0.89970  Biso   1.000  H
  H312     1.0000 0.47880  0.57440  0.39970  Biso   1.000  H
  C353     1.0000 0.44620  0.63300  0.97700  Biso   1.000  C
  C354     1.0000 0.05380  0.36700  0.47700  Biso   1.000  C
  C355     1.0000 0.94620  0.86700  0.02300  Biso   1.000  C
  C356     1.0000 0.55380  0.13300  0.52300  Biso   1.000  C
  C357     1.0000 0.55380  0.36700  0.02300  Biso   1.000  C
  C358     1.0000 0.94620  0.63300  0.52300  Biso   1.000  C
  C359     1.0000 0.05380  0.13300  0.97700  Biso   1.000  C
  C360     1.0000 0.44620  0.86700  0.47700  Biso   1.000  C
  H313     1.0000 0.42410  0.60180  0.96210  Biso   1.000  H
  H314     1.0000 0.07590  0.39820  0.46210  Biso   1.000  H
  H315     1.0000 0.92410  0.89820  0.03790  Biso   1.000  H
  H316     1.0000 0.57590  0.10180  0.53790  Biso   1.000  H
  H317     1.0000 0.57590  0.39820  0.03790  Biso   1.000  H
  H318     1.0000 0.92410  0.60180  0.53790  Biso   1.000  H
  H319     1.0000 0.07590  0.10180  0.96210  Biso   1.000  H
  H320     1.0000 0.42410  0.89820  0.46210  Biso   1.000  H
  N49      1.0000 0.57590  0.99530  0.32590  Biso   1.000  N
  N50      1.0000 0.92410  0.00470  0.82590  Biso   1.000  N
  N51      1.0000 0.07590  0.50470  0.67410  Biso   1.000  N
  N52      1.0000 0.42410  0.49530  0.17410  Biso   1.000  N
  N53      1.0000 0.42410  0.00470  0.67410  Biso   1.000  N
  N54      1.0000 0.07590  0.99530  0.17410  Biso   1.000  N
  N55      1.0000 0.92410  0.49530  0.32590  Biso   1.000  N
  N56      1.0000 0.57590  0.50470  0.82590  Biso   1.000  N
  N57      1.0000 0.45710  0.08460  0.21328  Biso   1.000  N
  N58      1.0000 0.04290  0.91540  0.71328  Biso   1.000  N
  N59      1.0000 0.95710  0.41540  0.78672  Biso   1.000  N
  N60      1.0000 0.54290  0.58460  0.28672  Biso   1.000  N
  N61      1.0000 0.54290  0.91540  0.78672  Biso   1.000  N
  N62      1.0000 0.95710  0.08460  0.28672  Biso   1.000  N
  N63      1.0000 0.04290  0.58460  0.21328  Biso   1.000  N
  N64      1.0000 0.45710  0.41540  0.71328  Biso   1.000  N
  O57      1.0000 0.38198  0.79105  0.14307  Biso   1.000  O
  O58      1.0000 0.11802  0.20895  0.64307  Biso   1.000  O
  O59      1.0000 0.88198  0.70895  0.85693  Biso   1.000  O
  O60      1.0000 0.61802  0.29105  0.35693  Biso   1.000  O
  O61      1.0000 0.61802  0.20895  0.85693  Biso   1.000  O
  O62      1.0000 0.88198  0.79105  0.35693  Biso   1.000  O
  O63      1.0000 0.11802  0.29105  0.14307  Biso   1.000  O
  O64      1.0000 0.38198  0.70895  0.64307  Biso   1.000  O
  N65      1.0000 0.70726  0.89389  0.14292  Biso   1.000  N
  N66      1.0000 0.79274  0.10611  0.64292  Biso   1.000  N
  N67      1.0000 0.20726  0.60611  0.85708  Biso   1.000  N
  N68      1.0000 0.29274  0.39389  0.35708  Biso   1.000  N
  N69      1.0000 0.29274  0.10611  0.85708  Biso   1.000  N
  N70      1.0000 0.20726  0.89389  0.35708  Biso   1.000  N
  N71      1.0000 0.79274  0.39389  0.14292  Biso   1.000  N
  N72      1.0000 0.70726  0.60611  0.64292  Biso   1.000  N
  N73      1.0000 0.60400  0.17648  0.30058  Biso   1.000  N
  N74      1.0000 0.89600  0.82352  0.80058  Biso   1.000  N
  N75      1.0000 0.10400  0.32352  0.69942  Biso   1.000  N
  N76      1.0000 0.39600  0.67648  0.19942  Biso   1.000  N
  N77      1.0000 0.39600  0.82352  0.69942  Biso   1.000  N
  N78      1.0000 0.10400  0.17648  0.19942  Biso   1.000  N
  N79      1.0000 0.89600  0.67648  0.30058  Biso   1.000  N
  N80      1.0000 0.60400  0.32352  0.80058  Biso   1.000  N
  C361     1.0000 0.74580  0.94680  0.14537  Biso   1.000  C
  C362     1.0000 0.75420  0.05320  0.64537  Biso   1.000  C
  C363     1.0000 0.24580  0.55320  0.85463  Biso   1.000  C
  C364     1.0000 0.25420  0.44680  0.35463  Biso   1.000  C
  C365     1.0000 0.25420  0.05320  0.85463  Biso   1.000  C
  C366     1.0000 0.24580  0.94680  0.35463  Biso   1.000  C
  C367     1.0000 0.75420  0.44680  0.14537  Biso   1.000  C
  C368     1.0000 0.74580  0.55320  0.64537  Biso   1.000  C
  H321     1.0000 0.78930  0.93640  0.15620  Biso   1.000  H
  H322     1.0000 0.71070  0.06360  0.65620  Biso   1.000  H
  H323     1.0000 0.28930  0.56360  0.84380  Biso   1.000  H
  H324     1.0000 0.21070  0.43640  0.34380  Biso   1.000  H
  H325     1.0000 0.21070  0.06360  0.84380  Biso   1.000  H
  H326     1.0000 0.28930  0.93640  0.34380  Biso   1.000  H
  H327     1.0000 0.71070  0.43640  0.15620  Biso   1.000  H
  H328     1.0000 0.78930  0.56360  0.65620  Biso   1.000  H
  H329     1.0000 0.72760  0.97230  0.17140  Biso   1.000  H
  H330     1.0000 0.77240  0.02770  0.67140  Biso   1.000  H
  H331     1.0000 0.22760  0.52770  0.82860  Biso   1.000  H
  H332     1.0000 0.27240  0.47230  0.32860  Biso   1.000  H
  H333     1.0000 0.27240  0.02770  0.82860  Biso   1.000  H
  H334     1.0000 0.22760  0.97230  0.32860  Biso   1.000  H
  H335     1.0000 0.77240  0.47230  0.17140  Biso   1.000  H
  H336     1.0000 0.72760  0.52770  0.67140  Biso   1.000  H
  C369     1.0000 0.53510  0.65580  0.15422  Biso   1.000  C
  C370     1.0000 0.96490  0.34420  0.65422  Biso   1.000  C
  C371     1.0000 0.03510  0.84420  0.84578  Biso   1.000  C
  C372     1.0000 0.46490  0.15580  0.34578  Biso   1.000  C
  C373     1.0000 0.46490  0.34420  0.84578  Biso   1.000  C
  C374     1.0000 0.03510  0.65580  0.34578  Biso   1.000  C
  C375     1.0000 0.96490  0.15580  0.15422  Biso   1.000  C
  C376     1.0000 0.53510  0.84420  0.65422  Biso   1.000  C
  H337     1.0000 0.56450  0.63330  0.13350  Biso   1.000  H
  H338     1.0000 0.93550  0.36670  0.63350  Biso   1.000  H
  H339     1.0000 0.06450  0.86670  0.86650  Biso   1.000  H
  H340     1.0000 0.43550  0.13330  0.36650  Biso   1.000  H
  H341     1.0000 0.43550  0.36670  0.86650  Biso   1.000  H
  H342     1.0000 0.06450  0.63330  0.36650  Biso   1.000  H
  H343     1.0000 0.93550  0.13330  0.13350  Biso   1.000  H
  H344     1.0000 0.56450  0.86670  0.63350  Biso   1.000  H
  H345     1.0000 0.49200  0.65220  0.14080  Biso   1.000  H
  H346     1.0000 0.00800  0.34780  0.64080  Biso   1.000  H
  H347     1.0000 0.99200  0.84780  0.85920  Biso   1.000  H
  H348     1.0000 0.50800  0.15220  0.35920  Biso   1.000  H
  H349     1.0000 0.50800  0.34780  0.85920  Biso   1.000  H
  H350     1.0000 0.99200  0.65220  0.35920  Biso   1.000  H
  H351     1.0000 0.00800  0.15220  0.14080  Biso   1.000  H
  H352     1.0000 0.49200  0.84780  0.64080  Biso   1.000  H
  H353     1.0000 0.53610  0.64140  0.18880  Biso   1.000  H
  H354     1.0000 0.96390  0.35860  0.68880  Biso   1.000  H
  H355     1.0000 0.03610  0.85860  0.81120  Biso   1.000  H
  H356     1.0000 0.46390  0.14140  0.31120  Biso   1.000  H
  H357     1.0000 0.46390  0.35860  0.81120  Biso   1.000  H
  H358     1.0000 0.03610  0.64140  0.31120  Biso   1.000  H
  H359     1.0000 0.96390  0.14140  0.18880  Biso   1.000  H
  H360     1.0000 0.53610  0.85860  0.68880  Biso   1.000  H
  C377     1.0000 0.44600  0.95401  0.15103  Biso   1.000  C
  C378     1.0000 0.05400  0.04599  0.65103  Biso   1.000  C
  C379     1.0000 0.94600  0.54599  0.84897  Biso   1.000  C
  C380     1.0000 0.55400  0.45401  0.34897  Biso   1.000  C
  C381     1.0000 0.55400  0.04599  0.84897  Biso   1.000  C
  C382     1.0000 0.94600  0.95401  0.34897  Biso   1.000  C
  C383     1.0000 0.05400  0.45401  0.15103  Biso   1.000  C
  C384     1.0000 0.44600  0.54599  0.65103  Biso   1.000  C
  H361     1.0000 0.41240  0.97980  0.13910  Biso   1.000  H
  H362     1.0000 0.08760  0.02020  0.63910  Biso   1.000  H
  H363     1.0000 0.91240  0.52020  0.86090  Biso   1.000  H
  H364     1.0000 0.58760  0.47980  0.36090  Biso   1.000  H
  H365     1.0000 0.58760  0.02020  0.86090  Biso   1.000  H
  H366     1.0000 0.91240  0.97980  0.36090  Biso   1.000  H
  H367     1.0000 0.08760  0.47980  0.13910  Biso   1.000  H
  H368     1.0000 0.41240  0.52020  0.63910  Biso   1.000  H
  H369     1.0000 0.48390  0.95880  0.13010  Biso   1.000  H
  H370     1.0000 0.01610  0.04120  0.63010  Biso   1.000  H
  H371     1.0000 0.98390  0.54120  0.86990  Biso   1.000  H
  H372     1.0000 0.51610  0.45880  0.36990  Biso   1.000  H
  H373     1.0000 0.51610  0.04120  0.86990  Biso   1.000  H
  H374     1.0000 0.98390  0.95880  0.36990  Biso   1.000  H
  H375     1.0000 0.01610  0.45880  0.13010  Biso   1.000  H
  H376     1.0000 0.48390  0.54120  0.63010  Biso   1.000  H
  H377     1.0000 0.45640  0.96330  0.18590  Biso   1.000  H
  H378     1.0000 0.04360  0.03670  0.68590  Biso   1.000  H
  H379     1.0000 0.95640  0.53670  0.81410  Biso   1.000  H
  H380     1.0000 0.54360  0.46330  0.31410  Biso   1.000  H
  H381     1.0000 0.54360  0.03670  0.81410  Biso   1.000  H
  H382     1.0000 0.95640  0.96330  0.31410  Biso   1.000  H
  H383     1.0000 0.04360  0.46330  0.18590  Biso   1.000  H
  H384     1.0000 0.45640  0.53670  0.68590  Biso   1.000  H
  O65      1.0000 0.49266  0.81160  0.20866  Biso   1.000  O
  O66      1.0000 0.00734  0.18840  0.70866  Biso   1.000  O
  O67      1.0000 0.99266  0.68840  0.79134  Biso   1.000  O
  O68      1.0000 0.50734  0.31160  0.29134  Biso   1.000  O
  O69      1.0000 0.50734  0.18840  0.79134  Biso   1.000  O
  O70      1.0000 0.99266  0.81160  0.29134  Biso   1.000  O
  O71      1.0000 0.00734  0.31160  0.20866  Biso   1.000  O
  O72      1.0000 0.49266  0.68840  0.70866  Biso   1.000  O
  H385     1.0000 0.46050  0.80820  0.22770  Biso   1.000  H
  H386     1.0000 0.03950  0.19180  0.72770  Biso   1.000  H
  H387     1.0000 0.96050  0.69180  0.77230  Biso   1.000  H
  H388     1.0000 0.53950  0.30820  0.27230  Biso   1.000  H
  H389     1.0000 0.53950  0.19180  0.77230  Biso   1.000  H
  H390     1.0000 0.96050  0.80820  0.27230  Biso   1.000  H
  H391     1.0000 0.03950  0.30820  0.22770  Biso   1.000  H
  H392     1.0000 0.46050  0.69180  0.72770  Biso   1.000  H
  H393     1.0000 0.51990  0.83200  0.22410  Biso   1.000  H
  H394     1.0000 0.98010  0.16800  0.72410  Biso   1.000  H
  H395     1.0000 0.01990  0.66800  0.77590  Biso   1.000  H
  H396     1.0000 0.48010  0.33200  0.27590  Biso   1.000  H
  H397     1.0000 0.48010  0.16800  0.77590  Biso   1.000  H
  H398     1.0000 0.01990  0.83200  0.27590  Biso   1.000  H
  H399     1.0000 0.98010  0.33200  0.22410  Biso   1.000  H
  H400     1.0000 0.51990  0.66800  0.72410  Biso   1.000  H
  N81      1.0000 0.28290  0.78330  0.45541  Biso   1.000  N
  N82      1.0000 0.21710  0.21670  0.95541  Biso   1.000  N
  N83      1.0000 0.78290  0.71670  0.54459  Biso   1.000  N
  N84      1.0000 0.71710  0.28330  0.04459  Biso   1.000  N
  N85      1.0000 0.71710  0.21670  0.54459  Biso   1.000  N
  N86      1.0000 0.78290  0.78330  0.04459  Biso   1.000  N
  N87      1.0000 0.21710  0.28330  0.45541  Biso   1.000  N
  N88      1.0000 0.28290  0.71670  0.95541  Biso   1.000  N
  C385     1.0000 0.26430  0.73860  0.44500  Biso   1.000  C
  C386     1.0000 0.23570  0.26140  0.94500  Biso   1.000  C
  C387     1.0000 0.76430  0.76140  0.55500  Biso   1.000  C
  C388     1.0000 0.73570  0.23860  0.05500  Biso   1.000  C
  C389     1.0000 0.73570  0.26140  0.55500  Biso   1.000  C
  C390     1.0000 0.76430  0.73860  0.05500  Biso   1.000  C
  C391     1.0000 0.23570  0.23860  0.44500  Biso   1.000  C
  C392     1.0000 0.26430  0.76140  0.94500  Biso   1.000  C
  C393     1.0000 0.24190  0.68110  0.43235  Biso   1.000  C
  C394     1.0000 0.25810  0.31890  0.93235  Biso   1.000  C
  C395     1.0000 0.74190  0.81890  0.56765  Biso   1.000  C
  C396     1.0000 0.75810  0.18110  0.06765  Biso   1.000  C
  C397     1.0000 0.75810  0.31890  0.56765  Biso   1.000  C
  C398     1.0000 0.74190  0.68110  0.06765  Biso   1.000  C
  C399     1.0000 0.25810  0.18110  0.43235  Biso   1.000  C
  C400     1.0000 0.24190  0.81890  0.93235  Biso   1.000  C
  H401     1.0000 0.27430  0.66110  0.41250  Biso   1.000  H
  H402     1.0000 0.22570  0.33890  0.91250  Biso   1.000  H
  H403     1.0000 0.77430  0.83890  0.58750  Biso   1.000  H
  H404     1.0000 0.72570  0.16110  0.08750  Biso   1.000  H
  H405     1.0000 0.72570  0.33890  0.58750  Biso   1.000  H
  H406     1.0000 0.77430  0.66110  0.08750  Biso   1.000  H
  H407     1.0000 0.22570  0.16110  0.41250  Biso   1.000  H
  H408     1.0000 0.27430  0.83890  0.91250  Biso   1.000  H
  H409     1.0000 0.20260  0.68400  0.41280  Biso   1.000  H
  H410     1.0000 0.29740  0.31600  0.91280  Biso   1.000  H
  H411     1.0000 0.70260  0.81600  0.58720  Biso   1.000  H
  H412     1.0000 0.79740  0.18400  0.08720  Biso   1.000  H
  H413     1.0000 0.79740  0.31600  0.58720  Biso   1.000  H
  H414     1.0000 0.70260  0.68400  0.08720  Biso   1.000  H
  H415     1.0000 0.29740  0.18400  0.41280  Biso   1.000  H
  H416     1.0000 0.20260  0.81600  0.91280  Biso   1.000  H
  H417     1.0000 0.23370  0.65950  0.46330  Biso   1.000  H
  H418     1.0000 0.26630  0.34050  0.96330  Biso   1.000  H
  H419     1.0000 0.73370  0.84050  0.53670  Biso   1.000  H
  H420     1.0000 0.76630  0.15950  0.03670  Biso   1.000  H
  H421     1.0000 0.76630  0.34050  0.53670  Biso   1.000  H
  H422     1.0000 0.73370  0.65950  0.03670  Biso   1.000  H
  H423     1.0000 0.26630  0.15950  0.46330  Biso   1.000  H
  H424     1.0000 0.23370  0.84050  0.96330  Biso   1.000  H
  C401     1.0000 0.51610  0.51810  0.08300  Biso   1.000  C
  C402     1.0000 0.98390  0.48190  0.58300  Biso   1.000  C
  C403     1.0000 0.01610  0.98190  0.91700  Biso   1.000  C
  C404     1.0000 0.48390  0.01810  0.41700  Biso   1.000  C
  C405     1.0000 0.48390  0.48190  0.91700  Biso   1.000  C
  C406     1.0000 0.01610  0.51810  0.41700  Biso   1.000  C
  C407     1.0000 0.98390  0.01810  0.08300  Biso   1.000  C
  C408     1.0000 0.51610  0.98190  0.58300  Biso   1.000  C
  H425     1.0000 0.49730  0.55560  0.09090  Biso   1.000  H
  H426     1.0000 0.00270  0.44440  0.59090  Biso   1.000  H
  H427     1.0000 0.99730  0.94440  0.90910  Biso   1.000  H
  H428     1.0000 0.50270  0.05560  0.40910  Biso   1.000  H
  H429     1.0000 0.50270  0.44440  0.90910  Biso   1.000  H
  H430     1.0000 0.99730  0.55560  0.40910  Biso   1.000  H
  H431     1.0000 0.00270  0.05560  0.09090  Biso   1.000  H
  H432     1.0000 0.49730  0.94440  0.59090  Biso   1.000  H
  H433     1.0000 0.54120  0.50470  0.11170  Biso   1.000  H
  H434     1.0000 0.95880  0.49530  0.61170  Biso   1.000  H
  H435     1.0000 0.04120  0.99530  0.88830  Biso   1.000  H
  H436     1.0000 0.45880  0.00470  0.38830  Biso   1.000  H
  H437     1.0000 0.45880  0.49530  0.88830  Biso   1.000  H
  H438     1.0000 0.04120  0.50470  0.38830  Biso   1.000  H
  H439     1.0000 0.95880  0.00470  0.11170  Biso   1.000  H
  H440     1.0000 0.54120  0.99530  0.61170  Biso   1.000  H
  H441     1.0000 0.48230  0.49030  0.07590  Biso   1.000  H
  H442     1.0000 0.01770  0.50970  0.57590  Biso   1.000  H
  H443     1.0000 0.98230  0.00970  0.92410  Biso   1.000  H
  H444     1.0000 0.51770  0.99030  0.42410  Biso   1.000  H
  H445     1.0000 0.51770  0.50970  0.92410  Biso   1.000  H
  H446     1.0000 0.98230  0.49030  0.42410  Biso   1.000  H
  H447     1.0000 0.01770  0.99030  0.07590  Biso   1.000  H
  H448     1.0000 0.48230  0.00970  0.57590  Biso   1.000  H
  C409     1.0000 0.55750  0.52360  0.03880  Biso   1.000  C
  C410     1.0000 0.94250  0.47640  0.53880  Biso   1.000  C
  C411     1.0000 0.05750  0.97640  0.96120  Biso   1.000  C
  C412     1.0000 0.44250  0.02360  0.46120  Biso   1.000  C
  C413     1.0000 0.44250  0.47640  0.96120  Biso   1.000  C
  C414     1.0000 0.05750  0.52360  0.46120  Biso   1.000  C
  C415     1.0000 0.94250  0.02360  0.03880  Biso   1.000  C
  C416     1.0000 0.55750  0.97640  0.53880  Biso   1.000  C
  N89      1.0000 0.58910  0.52580  0.00410  Biso   1.000  N
  N90      1.0000 0.91090  0.47420  0.50410  Biso   1.000  N
  N91      1.0000 0.08910  0.97420  0.99590  Biso   1.000  N
  N92      1.0000 0.41090  0.02580  0.49590  Biso   1.000  N
  N93      1.0000 0.41090  0.47420  0.99590  Biso   1.000  N
  N94      1.0000 0.08910  0.52580  0.49590  Biso   1.000  N
  N95      1.0000 0.91090  0.02580  0.00410  Biso   1.000  N
  N96      1.0000 0.58910  0.97420  0.50410  Biso   1.000  N
  C417     1.0000 0.67230  0.58360  0.90670  Biso   1.000  C
  C418     1.0000 0.82770  0.41640  0.40670  Biso   1.000  C
  C419     1.0000 0.17230  0.91640  0.09330  Biso   1.000  C
  C420     1.0000 0.32770  0.08360  0.59330  Biso   1.000  C
  C421     1.0000 0.32770  0.41640  0.09330  Biso   1.000  C
  C422     1.0000 0.17230  0.58360  0.59330  Biso   1.000  C
  C423     1.0000 0.82770  0.08360  0.90670  Biso   1.000  C
  C424     1.0000 0.67230  0.91640  0.40670  Biso   1.000  C
  H449     1.0000 0.63570  0.57550  0.92820  Biso   1.000  H
  H450     1.0000 0.86430  0.42450  0.42820  Biso   1.000  H
  H451     1.0000 0.13570  0.92450  0.07180  Biso   1.000  H
  H452     1.0000 0.36430  0.07550  0.57180  Biso   1.000  H
  H453     1.0000 0.36430  0.42450  0.07180  Biso   1.000  H
  H454     1.0000 0.13570  0.57550  0.57180  Biso   1.000  H
  H455     1.0000 0.86430  0.07550  0.92820  Biso   1.000  H
  H456     1.0000 0.63570  0.92450  0.42820  Biso   1.000  H
  H457     1.0000 0.67060  0.55910  0.87680  Biso   1.000  H
  H458     1.0000 0.82940  0.44090  0.37680  Biso   1.000  H
  H459     1.0000 0.17060  0.94090  0.12320  Biso   1.000  H
  H460     1.0000 0.32940  0.05910  0.62320  Biso   1.000  H
  H461     1.0000 0.32940  0.44090  0.12320  Biso   1.000  H
  H462     1.0000 0.17060  0.55910  0.62320  Biso   1.000  H
  H463     1.0000 0.82940  0.05910  0.87680  Biso   1.000  H
  H464     1.0000 0.67060  0.94090  0.37680  Biso   1.000  H
  H465     1.0000 0.67150  0.62410  0.89650  Biso   1.000  H
  H466     1.0000 0.82850  0.37590  0.39650  Biso   1.000  H
  H467     1.0000 0.17150  0.87590  0.10350  Biso   1.000  H
  H468     1.0000 0.32850  0.12410  0.60350  Biso   1.000  H
  H469     1.0000 0.32850  0.37590  0.10350  Biso   1.000  H
  H470     1.0000 0.17150  0.62410  0.60350  Biso   1.000  H
  H471     1.0000 0.82850  0.12410  0.89650  Biso   1.000  H
  H472     1.0000 0.67150  0.87590  0.39650  Biso   1.000  H
  C425     1.0000 0.73040  0.57190  0.93419  Biso   1.000  C
  C426     1.0000 0.76960  0.42810  0.43419  Biso   1.000  C
  C427     1.0000 0.23040  0.92810  0.06581  Biso   1.000  C
  C428     1.0000 0.26960  0.07190  0.56581  Biso   1.000  C
  C429     1.0000 0.26960  0.42810  0.06581  Biso   1.000  C
  C430     1.0000 0.23040  0.57190  0.56581  Biso   1.000  C
  C431     1.0000 0.76960  0.07190  0.93419  Biso   1.000  C
  C432     1.0000 0.73040  0.92810  0.43419  Biso   1.000  C
  N97      1.0000 0.77580  0.56270  0.95535  Biso   1.000  N
  N98      1.0000 0.72420  0.43730  0.45535  Biso   1.000  N
  N99      1.0000 0.27580  0.93730  0.04465  Biso   1.000  N
  N100     1.0000 0.22420  0.06270  0.54465  Biso   1.000  N
  N101     1.0000 0.22420  0.43730  0.04465  Biso   1.000  N
  N102     1.0000 0.27580  0.56270  0.54465  Biso   1.000  N
  N103     1.0000 0.72420  0.06270  0.95535  Biso   1.000  N
  N104     1.0000 0.77580  0.93730  0.45535  Biso   1.000  N
  C433     1.0000 0.57890  0.74490  0.84540  Biso   1.000  C
  C434     1.0000 0.92110  0.25510  0.34540  Biso   1.000  C
  C435     1.0000 0.07890  0.75510  0.15460  Biso   1.000  C
  C436     1.0000 0.42110  0.24490  0.65460  Biso   1.000  C
  C437     1.0000 0.42110  0.25510  0.15460  Biso   1.000  C
  C438     1.0000 0.07890  0.74490  0.65460  Biso   1.000  C
  C439     1.0000 0.92110  0.24490  0.84540  Biso   1.000  C
  C440     1.0000 0.57890  0.75510  0.34540  Biso   1.000  C
  C441     1.0000 0.53910  0.77690  0.81290  Biso   1.000  C
  C442     1.0000 0.96090  0.22310  0.31290  Biso   1.000  C
  C443     1.0000 0.03910  0.72310  0.18710  Biso   1.000  C
  C444     1.0000 0.46090  0.27690  0.68710  Biso   1.000  C
  C445     1.0000 0.46090  0.22310  0.18710  Biso   1.000  C
  C446     1.0000 0.03910  0.77690  0.68710  Biso   1.000  C
  C447     1.0000 0.96090  0.27690  0.81290  Biso   1.000  C
  C448     1.0000 0.53910  0.72310  0.31290  Biso   1.000  C
  H473     1.0000 0.50260  0.79150  0.83180  Biso   1.000  H
  H474     1.0000 0.99740  0.20850  0.33180  Biso   1.000  H
  H475     1.0000 0.00260  0.70850  0.16820  Biso   1.000  H
  H476     1.0000 0.49740  0.29150  0.66820  Biso   1.000  H
  H477     1.0000 0.49740  0.20850  0.16820  Biso   1.000  H
  H478     1.0000 0.00260  0.79150  0.66820  Biso   1.000  H
  H479     1.0000 0.99740  0.29150  0.83180  Biso   1.000  H
  H480     1.0000 0.50260  0.70850  0.33180  Biso   1.000  H
  H481     1.0000 0.52420  0.75200  0.78570  Biso   1.000  H
  H482     1.0000 0.97580  0.24800  0.28570  Biso   1.000  H
  H483     1.0000 0.02420  0.74800  0.21430  Biso   1.000  H
  H484     1.0000 0.47580  0.25200  0.71430  Biso   1.000  H
  H485     1.0000 0.47580  0.24800  0.21430  Biso   1.000  H
  H486     1.0000 0.02420  0.75200  0.71430  Biso   1.000  H
  H487     1.0000 0.97580  0.25200  0.78570  Biso   1.000  H
  H488     1.0000 0.52420  0.74800  0.28570  Biso   1.000  H
  H489     1.0000 0.56300  0.80920  0.79880  Biso   1.000  H
  H490     1.0000 0.93700  0.19080  0.29880  Biso   1.000  H
  H491     1.0000 0.06300  0.69080  0.20120  Biso   1.000  H
  H492     1.0000 0.43700  0.30920  0.70120  Biso   1.000  H
  H493     1.0000 0.43700  0.19080  0.20120  Biso   1.000  H
  H494     1.0000 0.06300  0.80920  0.70120  Biso   1.000  H
  H495     1.0000 0.93700  0.30920  0.79880  Biso   1.000  H
  H496     1.0000 0.56300  0.69080  0.29880  Biso   1.000  H
  N105     1.0000 0.61800  0.72470  0.87600  Biso   1.000  N
  N106     1.0000 0.88200  0.27530  0.37600  Biso   1.000  N
  N107     1.0000 0.11800  0.77530  0.12400  Biso   1.000  N
  N108     1.0000 0.38200  0.22470  0.62400  Biso   1.000  N
  N109     1.0000 0.38200  0.27530  0.12400  Biso   1.000  N
  N110     1.0000 0.11800  0.72470  0.62400  Biso   1.000  N
  N111     1.0000 0.88200  0.22470  0.87600  Biso   1.000  N
  N112     1.0000 0.61800  0.77530  0.37600  Biso   1.000  N
  N113     1.0000 0.59600  0.70500  0.85780  Biso   1.000  N
  N114     1.0000 0.90400  0.29500  0.35780  Biso   1.000  N
  N115     1.0000 0.09600  0.79500  0.14220  Biso   1.000  N
  N116     1.0000 0.40400  0.20500  0.64220  Biso   1.000  N
  N117     1.0000 0.40400  0.29500  0.14220  Biso   1.000  N
  N118     1.0000 0.09600  0.70500  0.64220  Biso   1.000  N
  N119     1.0000 0.90400  0.20500  0.85780  Biso   1.000  N
  N120     1.0000 0.59600  0.79500  0.35780  Biso   1.000  N
  O73      1.0000 0.37501  0.03029  0.28494  Biso   1.000  O
  O74      1.0000 0.12499  0.96971  0.78494  Biso   1.000  O
  O75      1.0000 0.87501  0.46971  0.71506  Biso   1.000  O
  O76      1.0000 0.62499  0.53029  0.21506  Biso   1.000  O
  O77      1.0000 0.62499  0.96971  0.71506  Biso   1.000  O
  O78      1.0000 0.87501  0.03029  0.21506  Biso   1.000  O
  O79      1.0000 0.12499  0.53029  0.28494  Biso   1.000  O
  O80      1.0000 0.37501  0.46971  0.78494  Biso   1.000  O
  H497     1.0000 0.39830  0.04380  0.26170  Biso   1.000  H
  H498     1.0000 0.10170  0.95620  0.76170  Biso   1.000  H
  H499     1.0000 0.89830  0.45620  0.73830  Biso   1.000  H
  H500     1.0000 0.60170  0.54380  0.23830  Biso   1.000  H
  H501     1.0000 0.60170  0.95620  0.73830  Biso   1.000  H
  H502     1.0000 0.89830  0.04380  0.23830  Biso   1.000  H
  H503     1.0000 0.10170  0.54380  0.26170  Biso   1.000  H
  H504     1.0000 0.39830  0.45620  0.76170  Biso   1.000  H
  H505     1.0000 0.34030  0.03480  0.26910  Biso   1.000  H
  H506     1.0000 0.15970  0.96520  0.76910  Biso   1.000  H
  H507     1.0000 0.84030  0.46520  0.73090  Biso   1.000  H
  H508     1.0000 0.65970  0.53480  0.23090  Biso   1.000  H
  H509     1.0000 0.65970  0.96520  0.73090  Biso   1.000  H
  H510     1.0000 0.84030  0.03480  0.23090  Biso   1.000  H
  H511     1.0000 0.15970  0.53480  0.26910  Biso   1.000  H
  H512     1.0000 0.34030  0.46520  0.76910  Biso   1.000  H
  O81      1.0000 0.40090  0.76543  0.36996  Biso   1.000  O
  O82      1.0000 0.09910  0.23457  0.86996  Biso   1.000  O
  O83      1.0000 0.90090  0.73457  0.63004  Biso   1.000  O
  O84      1.0000 0.59910  0.26543  0.13004  Biso   1.000  O
  O85      1.0000 0.59910  0.23457  0.63004  Biso   1.000  O
  O86      1.0000 0.90090  0.76543  0.13004  Biso   1.000  O
  O87      1.0000 0.09910  0.26543  0.36996  Biso   1.000  O
  O88      1.0000 0.40090  0.73457  0.86996  Biso   1.000  O
  H513     1.0000 0.38520  0.78760  0.39210  Biso   1.000  H
  H514     1.0000 0.11480  0.21240  0.89210  Biso   1.000  H
  H515     1.0000 0.88520  0.71240  0.60790  Biso   1.000  H
  H516     1.0000 0.61480  0.28760  0.10790  Biso   1.000  H
  H517     1.0000 0.61480  0.21240  0.60790  Biso   1.000  H
  H518     1.0000 0.88520  0.78760  0.10790  Biso   1.000  H
  H519     1.0000 0.11480  0.28760  0.39210  Biso   1.000  H
  H520     1.0000 0.38520  0.71240  0.89210  Biso   1.000  H
  H521     1.0000 0.38110  0.73470  0.37720  Biso   1.000  H
  H522     1.0000 0.11890  0.26530  0.87720  Biso   1.000  H
  H523     1.0000 0.88110  0.76530  0.62280  Biso   1.000  H
  H524     1.0000 0.61890  0.23470  0.12280  Biso   1.000  H
  H525     1.0000 0.61890  0.26530  0.62280  Biso   1.000  H
  H526     1.0000 0.88110  0.73470  0.12280  Biso   1.000  H
  H527     1.0000 0.11890  0.23470  0.37720  Biso   1.000  H
  H528     1.0000 0.38110  0.76530  0.87720  Biso   1.000  H
  O89      1.0000 0.52780  0.60630  0.83840  Biso   1.000  O
  O90      1.0000 0.97220  0.39370  0.33840  Biso   1.000  O
  O91      1.0000 0.02780  0.89370  0.16160  Biso   1.000  O
  O92      1.0000 0.47220  0.10630  0.66160  Biso   1.000  O
  O93      1.0000 0.47220  0.39370  0.16160  Biso   1.000  O
  O94      1.0000 0.02780  0.60630  0.66160  Biso   1.000  O
  O95      1.0000 0.97220  0.10630  0.83840  Biso   1.000  O
  O96      1.0000 0.52780  0.89370  0.33840  Biso   1.000  O
  H529     1.0000 0.48840  0.60930  0.83170  Biso   1.000  H
  H530     1.0000 0.01160  0.39070  0.33170  Biso   1.000  H
  H531     1.0000 0.98840  0.89070  0.16830  Biso   1.000  H
  H532     1.0000 0.51160  0.10930  0.66830  Biso   1.000  H
  H533     1.0000 0.51160  0.39070  0.16830  Biso   1.000  H
  H534     1.0000 0.98840  0.60930  0.66830  Biso   1.000  H
  H535     1.0000 0.01160  0.10930  0.83170  Biso   1.000  H
  H536     1.0000 0.48840  0.89070  0.33170  Biso   1.000  H
  H537     1.0000 0.54010  0.57150  0.83920  Biso   1.000  H
  H538     1.0000 0.95990  0.42850  0.33920  Biso   1.000  H
  H539     1.0000 0.04010  0.92850  0.16080  Biso   1.000  H
  H540     1.0000 0.45990  0.07150  0.66080  Biso   1.000  H
  H541     1.0000 0.45990  0.42850  0.16080  Biso   1.000  H
  H542     1.0000 0.04010  0.57150  0.66080  Biso   1.000  H
  H543     1.0000 0.95990  0.07150  0.83920  Biso   1.000  H
  H544     1.0000 0.54010  0.92850  0.33920  Biso   1.000  H
  O97      1.0000 0.58841  0.86377  0.25598  Biso   1.000  O
  O98      1.0000 0.91159  0.13623  0.75598  Biso   1.000  O
  O99      1.0000 0.08841  0.63623  0.74402  Biso   1.000  O
  O100     1.0000 0.41159  0.36377  0.24402  Biso   1.000  O
  O101     1.0000 0.41159  0.13623  0.74402  Biso   1.000  O
  O102     1.0000 0.08841  0.86377  0.24402  Biso   1.000  O
  O103     1.0000 0.91159  0.36377  0.25598  Biso   1.000  O
  O104     1.0000 0.58841  0.63623  0.75598  Biso   1.000  O
  H545     1.0000 0.59670  0.89500  0.24070  Biso   1.000  H
  H546     1.0000 0.90330  0.10500  0.74070  Biso   1.000  H
  H547     1.0000 0.09670  0.60500  0.75930  Biso   1.000  H
  H548     1.0000 0.40330  0.39500  0.25930  Biso   1.000  H
  H549     1.0000 0.40330  0.10500  0.75930  Biso   1.000  H
  H550     1.0000 0.09670  0.89500  0.25930  Biso   1.000  H
  H551     1.0000 0.90330  0.39500  0.24070  Biso   1.000  H
  H552     1.0000 0.59670  0.60500  0.74070  Biso   1.000  H
  H553     1.0000 0.57700  0.87130  0.28590  Biso   1.000  H
  H554     1.0000 0.92300  0.12870  0.78590  Biso   1.000  H
  H555     1.0000 0.07700  0.62870  0.71410  Biso   1.000  H
  H556     1.0000 0.42300  0.37130  0.21410  Biso   1.000  H
  H557     1.0000 0.42300  0.12870  0.71410  Biso   1.000  H
  H558     1.0000 0.07700  0.87130  0.21410  Biso   1.000  H
  H559     1.0000 0.92300  0.37130  0.28590  Biso   1.000  H
  H560     1.0000 0.57700  0.62870  0.78590  Biso   1.000  H
  O105     1.0000 0.40090  0.90990  0.30900  Biso   1.000  O
  O106     1.0000 0.09910  0.09010  0.80900  Biso   1.000  O
  O107     1.0000 0.90090  0.59010  0.69100  Biso   1.000  O
  O108     1.0000 0.59910  0.40990  0.19100  Biso   1.000  O
  O109     1.0000 0.59910  0.09010  0.69100  Biso   1.000  O
  O110     1.0000 0.90090  0.90990  0.19100  Biso   1.000  O
  O111     1.0000 0.09910  0.40990  0.30900  Biso   1.000  O
  O112     1.0000 0.40090  0.59010  0.80900  Biso   1.000  O
  O113     1.0000 0.43040  0.94100  0.31730  Biso   1.000  O
  O114     1.0000 0.06960  0.05900  0.81730  Biso   1.000  O
  O115     1.0000 0.93040  0.55900  0.68270  Biso   1.000  O
  O116     1.0000 0.56960  0.44100  0.18270  Biso   1.000  O
  O117     1.0000 0.56960  0.05900  0.68270  Biso   1.000  O
  O118     1.0000 0.93040  0.94100  0.18270  Biso   1.000  O
  O119     1.0000 0.06960  0.44100  0.31730  Biso   1.000  O
  O120     1.0000 0.43040  0.55900  0.81730  Biso   1.000  O
  O121     1.0000 0.39630  0.78740  0.26790  Biso   1.000  O
  O122     1.0000 0.10370  0.21260  0.76790  Biso   1.000  O
  O123     1.0000 0.89630  0.71260  0.73210  Biso   1.000  O
  O124     1.0000 0.60370  0.28740  0.23210  Biso   1.000  O
  O125     1.0000 0.60370  0.21260  0.73210  Biso   1.000  O
  O126     1.0000 0.89630  0.78740  0.23210  Biso   1.000  O
  O127     1.0000 0.10370  0.28740  0.26790  Biso   1.000  O
  O128     1.0000 0.39630  0.71260  0.76790  Biso   1.000  O
  O129     1.0000 0.40430  0.83040  0.28330  Biso   1.000  O
  O130     1.0000 0.09570  0.16960  0.78330  Biso   1.000  O
  O131     1.0000 0.90430  0.66960  0.71670  Biso   1.000  O
  O132     1.0000 0.59570  0.33040  0.21670  Biso   1.000  O
  O133     1.0000 0.59570  0.16960  0.71670  Biso   1.000  O
  O134     1.0000 0.90430  0.83040  0.21670  Biso   1.000  O
  O135     1.0000 0.09570  0.33040  0.28330  Biso   1.000  O
  O136     1.0000 0.40430  0.66960  0.78330  Biso   1.000  O
