data_image0
_cell_length_a       21.1918
_cell_length_b       23.32
_cell_length_c       26.6459
_cell_angle_alpha    90
_cell_angle_beta     90
_cell_angle_gamma    90

_symmetry_space_group_name_H-M    "P 1"
_symmetry_int_tables_number       1

loop_
  _symmetry_equiv_pos_as_xyz
  'x, y, z'

loop_
  _atom_site_label
  _atom_site_occupancy
  _atom_site_fract_x
  _atom_site_fract_y
  _atom_site_fract_z
  _atom_site_thermal_displace_type
  _atom_site_B_iso_or_equiv
  _atom_site_type_symbol
  Gd1      1.0000 0.49246  0.80161  0.12377  Biso   1.000  Gd
  Gd2      1.0000 0.00754  0.19839  0.62377  Biso   1.000  Gd
  Gd3      1.0000 0.50754  0.30161  0.37623  Biso   1.000  Gd
  Gd4      1.0000 0.99246  0.69839  0.87623  Biso   1.000  Gd
  Gd5      1.0000 0.50754  0.19839  0.87623  Biso   1.000  Gd
  Gd6      1.0000 0.99246  0.80161  0.37623  Biso   1.000  Gd
  Gd7      1.0000 0.49246  0.69839  0.62377  Biso   1.000  Gd
  Gd8      1.0000 0.00754  0.30161  0.12377  Biso   1.000  Gd
  Cu1      1.0000 0.36417  0.70673  0.12680  Biso   1.000  Cu
  Cu2      1.0000 0.13583  0.29327  0.62680  Biso   1.000  Cu
  Cu3      1.0000 0.63583  0.20673  0.37320  Biso   1.000  Cu
  Cu4      1.0000 0.86417  0.79327  0.87320  Biso   1.000  Cu
  Cu5      1.0000 0.63583  0.29327  0.87320  Biso   1.000  Cu
  Cu6      1.0000 0.86417  0.70673  0.37320  Biso   1.000  Cu
  Cu7      1.0000 0.36417  0.79327  0.62680  Biso   1.000  Cu
  Cu8      1.0000 0.13583  0.20673  0.12680  Biso   1.000  Cu
  Cu9      1.0000 0.62282  0.89488  0.11478  Biso   1.000  Cu
  Cu10     1.0000 0.87718  0.10512  0.61478  Biso   1.000  Cu
  Cu11     1.0000 0.37718  0.39488  0.38522  Biso   1.000  Cu
  Cu12     1.0000 0.12282  0.60512  0.88522  Biso   1.000  Cu
  Cu13     1.0000 0.37718  0.10512  0.88522  Biso   1.000  Cu
  Cu14     1.0000 0.12282  0.89488  0.38522  Biso   1.000  Cu
  Cu15     1.0000 0.62282  0.60512  0.61478  Biso   1.000  Cu
  Cu16     1.0000 0.87718  0.39488  0.11478  Biso   1.000  Cu
  Fe1      1.0000 0.59655  0.06468  0.23363  Biso   1.000  Fe
  Fe2      1.0000 0.90345  0.93532  0.73363  Biso   1.000  Fe
  Fe3      1.0000 0.40345  0.56468  0.26637  Biso   1.000  Fe
  Fe4      1.0000 0.09655  0.43532  0.76637  Biso   1.000  Fe
  Fe5      1.0000 0.40345  0.93532  0.76637  Biso   1.000  Fe
  Fe6      1.0000 0.09655  0.06468  0.26637  Biso   1.000  Fe
  Fe7      1.0000 0.59655  0.43532  0.73363  Biso   1.000  Fe
  Fe8      1.0000 0.90345  0.56468  0.23363  Biso   1.000  Fe
  O1       1.0000 0.60120  0.81780  0.14220  Biso   1.000  O
  O2       1.0000 0.89880  0.18220  0.64220  Biso   1.000  O
  O3       1.0000 0.39880  0.31780  0.35780  Biso   1.000  O
  O4       1.0000 0.10120  0.68220  0.85780  Biso   1.000  O
  O5       1.0000 0.39880  0.18220  0.85780  Biso   1.000  O
  O6       1.0000 0.10120  0.81780  0.35780  Biso   1.000  O
  O7       1.0000 0.60120  0.68220  0.64220  Biso   1.000  O
  O8       1.0000 0.89880  0.31780  0.14220  Biso   1.000  O
  O9       1.0000 0.44510  0.71990  0.08910  Biso   1.000  O
  O10      1.0000 0.05490  0.28010  0.58910  Biso   1.000  O
  O11      1.0000 0.55490  0.21990  0.41090  Biso   1.000  O
  O12      1.0000 0.94510  0.78010  0.91090  Biso   1.000  O
  O13      1.0000 0.55490  0.28010  0.91090  Biso   1.000  O
  O14      1.0000 0.94510  0.71990  0.41090  Biso   1.000  O
  O15      1.0000 0.44510  0.78010  0.58910  Biso   1.000  O
  O16      1.0000 0.05490  0.21990  0.08910  Biso   1.000  O
  O17      1.0000 0.54050  0.87930  0.08060  Biso   1.000  O
  O18      1.0000 0.95950  0.12070  0.58060  Biso   1.000  O
  O19      1.0000 0.45950  0.37930  0.41940  Biso   1.000  O
  O20      1.0000 0.04050  0.62070  0.91940  Biso   1.000  O
  O21      1.0000 0.45950  0.12070  0.91940  Biso   1.000  O
  O22      1.0000 0.04050  0.87930  0.41940  Biso   1.000  O
  O23      1.0000 0.54050  0.62070  0.58060  Biso   1.000  O
  O24      1.0000 0.95950  0.37930  0.08060  Biso   1.000  O
  N1       1.0000 0.64110  0.95800  0.06720  Biso   1.000  N
  N2       1.0000 0.85890  0.04200  0.56720  Biso   1.000  N
  N3       1.0000 0.35890  0.45800  0.43280  Biso   1.000  N
  N4       1.0000 0.14110  0.54200  0.93280  Biso   1.000  N
  N5       1.0000 0.35890  0.04200  0.93280  Biso   1.000  N
  N6       1.0000 0.14110  0.95800  0.43280  Biso   1.000  N
  N7       1.0000 0.64110  0.54200  0.56720  Biso   1.000  N
  N8       1.0000 0.85890  0.45800  0.06720  Biso   1.000  N
  O25      1.0000 0.55970  0.71340  0.15490  Biso   1.000  O
  O26      1.0000 0.94030  0.28660  0.65490  Biso   1.000  O
  O27      1.0000 0.44030  0.21340  0.34510  Biso   1.000  O
  O28      1.0000 0.05970  0.78660  0.84510  Biso   1.000  O
  O29      1.0000 0.44030  0.28660  0.84510  Biso   1.000  O
  O30      1.0000 0.05970  0.71340  0.34510  Biso   1.000  O
  O31      1.0000 0.55970  0.78660  0.65490  Biso   1.000  O
  O32      1.0000 0.94030  0.21340  0.15490  Biso   1.000  O
  O33      1.0000 0.43640  0.83480  0.04420  Biso   1.000  O
  O34      1.0000 0.06360  0.16520  0.54420  Biso   1.000  O
  O35      1.0000 0.56360  0.33480  0.45580  Biso   1.000  O
  O36      1.0000 0.93640  0.66520  0.95580  Biso   1.000  O
  O37      1.0000 0.56360  0.16520  0.95580  Biso   1.000  O
  O38      1.0000 0.93640  0.83480  0.45580  Biso   1.000  O
  O39      1.0000 0.43640  0.66520  0.54420  Biso   1.000  O
  O40      1.0000 0.06360  0.33480  0.04420  Biso   1.000  O
  O41      1.0000 0.54880  0.75890  0.04690  Biso   1.000  O
  O42      1.0000 0.95120  0.24110  0.54690  Biso   1.000  O
  O43      1.0000 0.45120  0.25890  0.45310  Biso   1.000  O
  O44      1.0000 0.04880  0.74110  0.95310  Biso   1.000  O
  O45      1.0000 0.45120  0.24110  0.95310  Biso   1.000  O
  O46      1.0000 0.04880  0.75890  0.45310  Biso   1.000  O
  O47      1.0000 0.54880  0.74110  0.54690  Biso   1.000  O
  O48      1.0000 0.95120  0.25890  0.04690  Biso   1.000  O
  N9       1.0000 0.59080  0.95240  0.17290  Biso   1.000  N
  N10      1.0000 0.90920  0.04760  0.67290  Biso   1.000  N
  N11      1.0000 0.40920  0.45240  0.32710  Biso   1.000  N
  N12      1.0000 0.09080  0.54760  0.82710  Biso   1.000  N
  N13      1.0000 0.40920  0.04760  0.82710  Biso   1.000  N
  N14      1.0000 0.09080  0.95240  0.32710  Biso   1.000  N
  N15      1.0000 0.59080  0.54760  0.67290  Biso   1.000  N
  N16      1.0000 0.90920  0.45240  0.17290  Biso   1.000  N
  C1       1.0000 0.23630  0.61980  0.11620  Biso   1.000  C
  C2       1.0000 0.26370  0.38020  0.61620  Biso   1.000  C
  C3       1.0000 0.76370  0.11980  0.38380  Biso   1.000  C
  C4       1.0000 0.73630  0.88020  0.88380  Biso   1.000  C
  C5       1.0000 0.76370  0.38020  0.88380  Biso   1.000  C
  C6       1.0000 0.73630  0.61980  0.38380  Biso   1.000  C
  C7       1.0000 0.23630  0.88020  0.61620  Biso   1.000  C
  C8       1.0000 0.26370  0.11980  0.11620  Biso   1.000  C
  N17      1.0000 0.27710  0.71150  0.15580  Biso   1.000  N
  N18      1.0000 0.22290  0.28850  0.65580  Biso   1.000  N
  N19      1.0000 0.72290  0.21150  0.34420  Biso   1.000  N
  N20      1.0000 0.77710  0.78850  0.84420  Biso   1.000  N
  N21      1.0000 0.72290  0.28850  0.84420  Biso   1.000  N
  N22      1.0000 0.77710  0.71150  0.34420  Biso   1.000  N
  N23      1.0000 0.27710  0.78850  0.65580  Biso   1.000  N
  N24      1.0000 0.22290  0.21150  0.15580  Biso   1.000  N
  O49      1.0000 0.42630  0.89110  0.14820  Biso   1.000  O
  O50      1.0000 0.07370  0.10890  0.64820  Biso   1.000  O
  O51      1.0000 0.57370  0.39110  0.35180  Biso   1.000  O
  O52      1.0000 0.92630  0.60890  0.85180  Biso   1.000  O
  O53      1.0000 0.57370  0.10890  0.85180  Biso   1.000  O
  O54      1.0000 0.92630  0.89110  0.35180  Biso   1.000  O
  O55      1.0000 0.42630  0.60890  0.64820  Biso   1.000  O
  O56      1.0000 0.07370  0.39110  0.14820  Biso   1.000  O
  C9       1.0000 0.62160  0.72380  0.16900  Biso   1.000  C
  C10      1.0000 0.87840  0.27620  0.66900  Biso   1.000  C
  C11      1.0000 0.37840  0.22380  0.33100  Biso   1.000  C
  C12      1.0000 0.12160  0.77620  0.83100  Biso   1.000  C
  C13      1.0000 0.37840  0.27620  0.83100  Biso   1.000  C
  C14      1.0000 0.12160  0.72380  0.33100  Biso   1.000  C
  C15      1.0000 0.62160  0.77620  0.66900  Biso   1.000  C
  C16      1.0000 0.87840  0.22380  0.16900  Biso   1.000  C
  C17      1.0000 0.23960  0.65830  0.16140  Biso   1.000  C
  C18      1.0000 0.26040  0.34170  0.66140  Biso   1.000  C
  C19      1.0000 0.76040  0.15830  0.33860  Biso   1.000  C
  C20      1.0000 0.73960  0.84170  0.83860  Biso   1.000  C
  C21      1.0000 0.76040  0.34170  0.83860  Biso   1.000  C
  C22      1.0000 0.73960  0.65830  0.33860  Biso   1.000  C
  C23      1.0000 0.23960  0.84170  0.66140  Biso   1.000  C
  C24      1.0000 0.26040  0.15830  0.16140  Biso   1.000  C
  H1       1.0000 0.19600  0.66920  0.17080  Biso   1.000  H
  H2       1.0000 0.30400  0.33080  0.67080  Biso   1.000  H
  H3       1.0000 0.80400  0.16920  0.32920  Biso   1.000  H
  H4       1.0000 0.69600  0.83080  0.82920  Biso   1.000  H
  H5       1.0000 0.80400  0.33080  0.82920  Biso   1.000  H
  H6       1.0000 0.69600  0.66920  0.32920  Biso   1.000  H
  H7       1.0000 0.19600  0.83080  0.67080  Biso   1.000  H
  H8       1.0000 0.30400  0.16920  0.17080  Biso   1.000  H
  H9       1.0000 0.25740  0.63600  0.18970  Biso   1.000  H
  H10      1.0000 0.24260  0.36400  0.68970  Biso   1.000  H
  H11      1.0000 0.74260  0.13600  0.31030  Biso   1.000  H
  H12      1.0000 0.75740  0.86400  0.81030  Biso   1.000  H
  H13      1.0000 0.74260  0.36400  0.81030  Biso   1.000  H
  H14      1.0000 0.75740  0.63600  0.31030  Biso   1.000  H
  H15      1.0000 0.25740  0.86400  0.68970  Biso   1.000  H
  H16      1.0000 0.24260  0.13600  0.18970  Biso   1.000  H
  O57      1.0000 0.49400  0.80830  0.21190  Biso   1.000  O
  O58      1.0000 0.00600  0.19170  0.71190  Biso   1.000  O
  O59      1.0000 0.50600  0.30830  0.28810  Biso   1.000  O
  O60      1.0000 0.99400  0.69170  0.78810  Biso   1.000  O
  O61      1.0000 0.50600  0.19170  0.78810  Biso   1.000  O
  O62      1.0000 0.99400  0.80830  0.28810  Biso   1.000  O
  O63      1.0000 0.49400  0.69170  0.71190  Biso   1.000  O
  O64      1.0000 0.00600  0.30830  0.21190  Biso   1.000  O
  C25      1.0000 0.59370  0.99540  0.19310  Biso   1.000  C
  C26      1.0000 0.90630  0.00460  0.69310  Biso   1.000  C
  C27      1.0000 0.40630  0.49540  0.30690  Biso   1.000  C
  C28      1.0000 0.09370  0.50460  0.80690  Biso   1.000  C
  C29      1.0000 0.40630  0.00460  0.80690  Biso   1.000  C
  C30      1.0000 0.09370  0.99540  0.30690  Biso   1.000  C
  C31      1.0000 0.59370  0.50460  0.69310  Biso   1.000  C
  C32      1.0000 0.90630  0.49540  0.19310  Biso   1.000  C
  C33      1.0000 0.64190  0.78010  0.16160  Biso   1.000  C
  C34      1.0000 0.85810  0.21990  0.66160  Biso   1.000  C
  C35      1.0000 0.35810  0.28010  0.33840  Biso   1.000  C
  C36      1.0000 0.14190  0.71990  0.83840  Biso   1.000  C
  C37      1.0000 0.35810  0.21990  0.83840  Biso   1.000  C
  C38      1.0000 0.14190  0.78010  0.33840  Biso   1.000  C
  C39      1.0000 0.64190  0.71990  0.66160  Biso   1.000  C
  C40      1.0000 0.85810  0.28010  0.16160  Biso   1.000  C
  N25      1.0000 0.34730  0.63580  0.08770  Biso   1.000  N
  N26      1.0000 0.15270  0.36420  0.58770  Biso   1.000  N
  N27      1.0000 0.65270  0.13580  0.41230  Biso   1.000  N
  N28      1.0000 0.84730  0.86420  0.91230  Biso   1.000  N
  N29      1.0000 0.65270  0.36420  0.91230  Biso   1.000  N
  N30      1.0000 0.84730  0.63580  0.41230  Biso   1.000  N
  N31      1.0000 0.34730  0.86420  0.58770  Biso   1.000  N
  N32      1.0000 0.15270  0.13580  0.08770  Biso   1.000  N
  C41      1.0000 0.46130  0.69690  0.04490  Biso   1.000  C
  C42      1.0000 0.03870  0.30310  0.54490  Biso   1.000  C
  C43      1.0000 0.53870  0.19690  0.45510  Biso   1.000  C
  C44      1.0000 0.96130  0.80310  0.95510  Biso   1.000  C
  C45      1.0000 0.53870  0.30310  0.95510  Biso   1.000  C
  C46      1.0000 0.96130  0.69690  0.45510  Biso   1.000  C
  C47      1.0000 0.46130  0.80310  0.54490  Biso   1.000  C
  C48      1.0000 0.03870  0.19690  0.04490  Biso   1.000  C
  C49      1.0000 0.30060  0.59400  0.10610  Biso   1.000  C
  C50      1.0000 0.19940  0.40600  0.60610  Biso   1.000  C
  C51      1.0000 0.69940  0.09400  0.39390  Biso   1.000  C
  C52      1.0000 0.80060  0.90600  0.89390  Biso   1.000  C
  C53      1.0000 0.69940  0.40600  0.89390  Biso   1.000  C
  C54      1.0000 0.80060  0.59400  0.39390  Biso   1.000  C
  C55      1.0000 0.30060  0.90600  0.60610  Biso   1.000  C
  C56      1.0000 0.19940  0.09400  0.10610  Biso   1.000  C
  H17      1.0000 0.31670  0.57650  0.13750  Biso   1.000  H
  H18      1.0000 0.18330  0.42350  0.63750  Biso   1.000  H
  H19      1.0000 0.68330  0.07650  0.36250  Biso   1.000  H
  H20      1.0000 0.81670  0.92350  0.86250  Biso   1.000  H
  H21      1.0000 0.68330  0.42350  0.86250  Biso   1.000  H
  H22      1.0000 0.81670  0.57650  0.36250  Biso   1.000  H
  H23      1.0000 0.31670  0.92350  0.63750  Biso   1.000  H
  H24      1.0000 0.18330  0.07650  0.13750  Biso   1.000  H
  H25      1.0000 0.29610  0.56300  0.08100  Biso   1.000  H
  H26      1.0000 0.20390  0.43700  0.58100  Biso   1.000  H
  H27      1.0000 0.70390  0.06300  0.41900  Biso   1.000  H
  H28      1.0000 0.79610  0.93700  0.91900  Biso   1.000  H
  H29      1.0000 0.70390  0.43700  0.91900  Biso   1.000  H
  H30      1.0000 0.79610  0.56300  0.41900  Biso   1.000  H
  H31      1.0000 0.29610  0.93700  0.58100  Biso   1.000  H
  H32      1.0000 0.20390  0.06300  0.08100  Biso   1.000  H
  N33      1.0000 0.74100  0.04960  0.24610  Biso   1.000  N
  N34      1.0000 0.75900  0.95040  0.74610  Biso   1.000  N
  N35      1.0000 0.25900  0.54960  0.25390  Biso   1.000  N
  N36      1.0000 0.24100  0.45040  0.75390  Biso   1.000  N
  N37      1.0000 0.25900  0.95040  0.75390  Biso   1.000  N
  N38      1.0000 0.24100  0.04960  0.25390  Biso   1.000  N
  N39      1.0000 0.74100  0.45040  0.74610  Biso   1.000  N
  N40      1.0000 0.75900  0.54960  0.24610  Biso   1.000  N
  C57      1.0000 0.52530  0.89410  0.03340  Biso   1.000  C
  C58      1.0000 0.97470  0.10590  0.53340  Biso   1.000  C
  C59      1.0000 0.47470  0.39410  0.46660  Biso   1.000  C
  C60      1.0000 0.02530  0.60590  0.96660  Biso   1.000  C
  C61      1.0000 0.47470  0.10590  0.96660  Biso   1.000  C
  C62      1.0000 0.02530  0.89410  0.46660  Biso   1.000  C
  C63      1.0000 0.52530  0.60590  0.53340  Biso   1.000  C
  C64      1.0000 0.97470  0.39410  0.03340  Biso   1.000  C
  C65      1.0000 0.61540  0.11350  0.17680  Biso   1.000  C
  C66      1.0000 0.88460  0.88650  0.67680  Biso   1.000  C
  C67      1.0000 0.38460  0.61350  0.32320  Biso   1.000  C
  C68      1.0000 0.11540  0.38650  0.82320  Biso   1.000  C
  C69      1.0000 0.38460  0.88650  0.82320  Biso   1.000  C
  C70      1.0000 0.11540  0.11350  0.32320  Biso   1.000  C
  C71      1.0000 0.61540  0.38650  0.67680  Biso   1.000  C
  C72      1.0000 0.88460  0.61350  0.17680  Biso   1.000  C
  C73      1.0000 0.68710  0.00280  0.08140  Biso   1.000  C
  C74      1.0000 0.81290  0.99720  0.58140  Biso   1.000  C
  C75      1.0000 0.31290  0.50280  0.41860  Biso   1.000  C
  C76      1.0000 0.18710  0.49720  0.91860  Biso   1.000  C
  C77      1.0000 0.31290  0.99720  0.91860  Biso   1.000  C
  C78      1.0000 0.18710  0.00280  0.41860  Biso   1.000  C
  C79      1.0000 0.68710  0.49720  0.58140  Biso   1.000  C
  C80      1.0000 0.81290  0.50280  0.08140  Biso   1.000  C
  H33      1.0000 0.66910  0.02590  0.10910  Biso   1.000  H
  H34      1.0000 0.83090  0.97410  0.60910  Biso   1.000  H
  H35      1.0000 0.33090  0.52590  0.39090  Biso   1.000  H
  H36      1.0000 0.16910  0.47410  0.89090  Biso   1.000  H
  H37      1.0000 0.33090  0.97410  0.89090  Biso   1.000  H
  H38      1.0000 0.16910  0.02590  0.39090  Biso   1.000  H
  H39      1.0000 0.66910  0.47410  0.60910  Biso   1.000  H
  H40      1.0000 0.83090  0.52590  0.10910  Biso   1.000  H
  H41      1.0000 0.69350  0.02870  0.05240  Biso   1.000  H
  H42      1.0000 0.80650  0.97130  0.55240  Biso   1.000  H
  H43      1.0000 0.30650  0.52870  0.44760  Biso   1.000  H
  H44      1.0000 0.19350  0.47130  0.94760  Biso   1.000  H
  H45      1.0000 0.30650  0.97130  0.94760  Biso   1.000  H
  H46      1.0000 0.19350  0.02870  0.44760  Biso   1.000  H
  H47      1.0000 0.69350  0.47130  0.55240  Biso   1.000  H
  H48      1.0000 0.80650  0.52870  0.05240  Biso   1.000  H
  C81      1.0000 0.72260  0.69590  0.20160  Biso   1.000  C
  C82      1.0000 0.77740  0.30410  0.70160  Biso   1.000  C
  C83      1.0000 0.27740  0.19590  0.29840  Biso   1.000  C
  C84      1.0000 0.22260  0.80410  0.79840  Biso   1.000  C
  C85      1.0000 0.27740  0.30410  0.79840  Biso   1.000  C
  C86      1.0000 0.22260  0.69590  0.29840  Biso   1.000  C
  C87      1.0000 0.72260  0.80410  0.70160  Biso   1.000  C
  C88      1.0000 0.77740  0.19590  0.20160  Biso   1.000  C
  H49      1.0000 0.74970  0.66720  0.21470  Biso   1.000  H
  H50      1.0000 0.75030  0.33280  0.71470  Biso   1.000  H
  H51      1.0000 0.25030  0.16720  0.28530  Biso   1.000  H
  H52      1.0000 0.24970  0.83280  0.78530  Biso   1.000  H
  H53      1.0000 0.25030  0.33280  0.78530  Biso   1.000  H
  H54      1.0000 0.24970  0.66720  0.28530  Biso   1.000  H
  H55      1.0000 0.74970  0.83280  0.71470  Biso   1.000  H
  H56      1.0000 0.75030  0.16720  0.21470  Biso   1.000  H
  C89      1.0000 0.73290  0.84970  0.16570  Biso   1.000  C
  C90      1.0000 0.76710  0.15030  0.66570  Biso   1.000  C
  C91      1.0000 0.26710  0.34970  0.33430  Biso   1.000  C
  C92      1.0000 0.23290  0.65030  0.83430  Biso   1.000  C
  C93      1.0000 0.26710  0.15030  0.83430  Biso   1.000  C
  C94      1.0000 0.23290  0.84970  0.33430  Biso   1.000  C
  C95      1.0000 0.73290  0.65030  0.66570  Biso   1.000  C
  C96      1.0000 0.76710  0.34970  0.16570  Biso   1.000  C
  H57      1.0000 0.77430  0.85460  0.17870  Biso   1.000  H
  H58      1.0000 0.72570  0.14540  0.67870  Biso   1.000  H
  H59      1.0000 0.22570  0.35460  0.32130  Biso   1.000  H
  H60      1.0000 0.27430  0.64540  0.82130  Biso   1.000  H
  H61      1.0000 0.22570  0.14540  0.82130  Biso   1.000  H
  H62      1.0000 0.27430  0.85460  0.32130  Biso   1.000  H
  H63      1.0000 0.77430  0.64540  0.67870  Biso   1.000  H
  H64      1.0000 0.72570  0.35460  0.17870  Biso   1.000  H
  C97      1.0000 0.19220  0.57060  0.12960  Biso   1.000  C
  C98      1.0000 0.30780  0.42940  0.62960  Biso   1.000  C
  C99      1.0000 0.80780  0.07060  0.37040  Biso   1.000  C
  C100     1.0000 0.69220  0.92940  0.87040  Biso   1.000  C
  C101     1.0000 0.80780  0.42940  0.87040  Biso   1.000  C
  C102     1.0000 0.69220  0.57060  0.37040  Biso   1.000  C
  C103     1.0000 0.19220  0.92940  0.62960  Biso   1.000  C
  C104     1.0000 0.30780  0.07060  0.12960  Biso   1.000  C
  H65      1.0000 0.20900  0.55000  0.15870  Biso   1.000  H
  H66      1.0000 0.29100  0.45000  0.65870  Biso   1.000  H
  H67      1.0000 0.79100  0.05000  0.34130  Biso   1.000  H
  H68      1.0000 0.70900  0.95000  0.84130  Biso   1.000  H
  H69      1.0000 0.79100  0.45000  0.84130  Biso   1.000  H
  H70      1.0000 0.70900  0.55000  0.34130  Biso   1.000  H
  H71      1.0000 0.20900  0.95000  0.65870  Biso   1.000  H
  H72      1.0000 0.29100  0.05000  0.15870  Biso   1.000  H
  H73      1.0000 0.18880  0.54430  0.10110  Biso   1.000  H
  H74      1.0000 0.31120  0.45570  0.60110  Biso   1.000  H
  H75      1.0000 0.81120  0.04430  0.39890  Biso   1.000  H
  H76      1.0000 0.68880  0.95570  0.89890  Biso   1.000  H
  H77      1.0000 0.81120  0.45570  0.89890  Biso   1.000  H
  H78      1.0000 0.68880  0.54430  0.39890  Biso   1.000  H
  H79      1.0000 0.18880  0.95570  0.60110  Biso   1.000  H
  H80      1.0000 0.31120  0.04430  0.10110  Biso   1.000  H
  H81      1.0000 0.15040  0.58590  0.13780  Biso   1.000  H
  H82      1.0000 0.34960  0.41410  0.63780  Biso   1.000  H
  H83      1.0000 0.84960  0.08590  0.36220  Biso   1.000  H
  H84      1.0000 0.65040  0.91410  0.86220  Biso   1.000  H
  H85      1.0000 0.84960  0.41410  0.86220  Biso   1.000  H
  H86      1.0000 0.65040  0.58590  0.36220  Biso   1.000  H
  H87      1.0000 0.15040  0.91410  0.63780  Biso   1.000  H
  H88      1.0000 0.34960  0.08590  0.13780  Biso   1.000  H
  C105     1.0000 0.51390  0.71800  0.02030  Biso   1.000  C
  C106     1.0000 0.98610  0.28200  0.52030  Biso   1.000  C
  C107     1.0000 0.48610  0.21800  0.47970  Biso   1.000  C
  C108     1.0000 0.01390  0.78200  0.97970  Biso   1.000  C
  C109     1.0000 0.48610  0.28200  0.97970  Biso   1.000  C
  C110     1.0000 0.01390  0.71800  0.47970  Biso   1.000  C
  C111     1.0000 0.51390  0.78200  0.52030  Biso   1.000  C
  C112     1.0000 0.98610  0.21800  0.02030  Biso   1.000  C
  C113     1.0000 0.75140  0.97950  0.09800  Biso   1.000  C
  C114     1.0000 0.74860  0.02050  0.59800  Biso   1.000  C
  C115     1.0000 0.24860  0.47950  0.40200  Biso   1.000  C
  C116     1.0000 0.25140  0.52050  0.90200  Biso   1.000  C
  C117     1.0000 0.24860  0.02050  0.90200  Biso   1.000  C
  C118     1.0000 0.25140  0.97950  0.40200  Biso   1.000  C
  C119     1.0000 0.75140  0.52050  0.59800  Biso   1.000  C
  C120     1.0000 0.74860  0.47950  0.09800  Biso   1.000  C
  C121     1.0000 0.56100  0.93350  0.00550  Biso   1.000  C
  C122     1.0000 0.93900  0.06650  0.50550  Biso   1.000  C
  C123     1.0000 0.43900  0.43350  0.49450  Biso   1.000  C
  C124     1.0000 0.06100  0.56650  0.99450  Biso   1.000  C
  C125     1.0000 0.43900  0.06650  0.99450  Biso   1.000  C
  C126     1.0000 0.06100  0.93350  0.49450  Biso   1.000  C
  C127     1.0000 0.56100  0.56650  0.50550  Biso   1.000  C
  C128     1.0000 0.93900  0.43350  0.00550  Biso   1.000  C
  C129     1.0000 0.21090  0.65180  0.07040  Biso   1.000  C
  C130     1.0000 0.28910  0.34820  0.57040  Biso   1.000  C
  C131     1.0000 0.78910  0.15180  0.42960  Biso   1.000  C
  C132     1.0000 0.71090  0.84820  0.92960  Biso   1.000  C
  C133     1.0000 0.78910  0.34820  0.92960  Biso   1.000  C
  C134     1.0000 0.71090  0.65180  0.42960  Biso   1.000  C
  C135     1.0000 0.21090  0.84820  0.57040  Biso   1.000  C
  C136     1.0000 0.28910  0.15180  0.07040  Biso   1.000  C
  H89      1.0000 0.21020  0.62590  0.04150  Biso   1.000  H
  H90      1.0000 0.28980  0.37410  0.54150  Biso   1.000  H
  H91      1.0000 0.78980  0.12590  0.45850  Biso   1.000  H
  H92      1.0000 0.71020  0.87410  0.95850  Biso   1.000  H
  H93      1.0000 0.78980  0.37410  0.95850  Biso   1.000  H
  H94      1.0000 0.71020  0.62590  0.45850  Biso   1.000  H
  H95      1.0000 0.21020  0.87410  0.54150  Biso   1.000  H
  H96      1.0000 0.28980  0.12590  0.04150  Biso   1.000  H
  H97      1.0000 0.23830  0.68460  0.06310  Biso   1.000  H
  H98      1.0000 0.26170  0.31540  0.56310  Biso   1.000  H
  H99      1.0000 0.76170  0.18460  0.43690  Biso   1.000  H
  H100     1.0000 0.73830  0.81540  0.93690  Biso   1.000  H
  H101     1.0000 0.76170  0.31540  0.93690  Biso   1.000  H
  H102     1.0000 0.73830  0.68460  0.43690  Biso   1.000  H
  H103     1.0000 0.23830  0.81540  0.56310  Biso   1.000  H
  H104     1.0000 0.26170  0.18460  0.06310  Biso   1.000  H
  H105     1.0000 0.16810  0.66540  0.07740  Biso   1.000  H
  H106     1.0000 0.33190  0.33460  0.57740  Biso   1.000  H
  H107     1.0000 0.83190  0.16540  0.42260  Biso   1.000  H
  H108     1.0000 0.66810  0.83460  0.92260  Biso   1.000  H
  H109     1.0000 0.83190  0.33460  0.92260  Biso   1.000  H
  H110     1.0000 0.66810  0.66540  0.42260  Biso   1.000  H
  H111     1.0000 0.16810  0.83460  0.57740  Biso   1.000  H
  H112     1.0000 0.33190  0.16540  0.07740  Biso   1.000  H
  C137     1.0000 0.65990  0.68320  0.19030  Biso   1.000  C
  C138     1.0000 0.84010  0.31680  0.69030  Biso   1.000  C
  C139     1.0000 0.34010  0.18320  0.30970  Biso   1.000  C
  C140     1.0000 0.15990  0.81680  0.80970  Biso   1.000  C
  C141     1.0000 0.34010  0.31680  0.80970  Biso   1.000  C
  C142     1.0000 0.15990  0.68320  0.30970  Biso   1.000  C
  C143     1.0000 0.65990  0.81680  0.69030  Biso   1.000  C
  C144     1.0000 0.84010  0.18320  0.19030  Biso   1.000  C
  H113     1.0000 0.64360  0.64620  0.19750  Biso   1.000  H
  H114     1.0000 0.85640  0.35380  0.69750  Biso   1.000  H
  H115     1.0000 0.35640  0.14620  0.30250  Biso   1.000  H
  H116     1.0000 0.14360  0.85380  0.80250  Biso   1.000  H
  H117     1.0000 0.35640  0.35380  0.80250  Biso   1.000  H
  H118     1.0000 0.14360  0.64620  0.30250  Biso   1.000  H
  H119     1.0000 0.64360  0.85380  0.69750  Biso   1.000  H
  H120     1.0000 0.85640  0.14620  0.19750  Biso   1.000  H
  C145     1.0000 0.77880  0.93980  0.05660  Biso   1.000  C
  C146     1.0000 0.72120  0.06020  0.55660  Biso   1.000  C
  C147     1.0000 0.22120  0.43980  0.44340  Biso   1.000  C
  C148     1.0000 0.27880  0.56020  0.94340  Biso   1.000  C
  C149     1.0000 0.22120  0.06020  0.94340  Biso   1.000  C
  C150     1.0000 0.27880  0.93980  0.44340  Biso   1.000  C
  C151     1.0000 0.77880  0.56020  0.55660  Biso   1.000  C
  C152     1.0000 0.72120  0.43980  0.05660  Biso   1.000  C
  H121     1.0000 0.75090  0.90660  0.05210  Biso   1.000  H
  H122     1.0000 0.74910  0.09340  0.55210  Biso   1.000  H
  H123     1.0000 0.24910  0.40660  0.44790  Biso   1.000  H
  H124     1.0000 0.25090  0.59340  0.94790  Biso   1.000  H
  H125     1.0000 0.24910  0.09340  0.94790  Biso   1.000  H
  H126     1.0000 0.25090  0.90660  0.44790  Biso   1.000  H
  H127     1.0000 0.75090  0.59340  0.55210  Biso   1.000  H
  H128     1.0000 0.74910  0.40660  0.05210  Biso   1.000  H
  H129     1.0000 0.82080  0.92660  0.06670  Biso   1.000  H
  H130     1.0000 0.67920  0.07340  0.56670  Biso   1.000  H
  H131     1.0000 0.17920  0.42660  0.43330  Biso   1.000  H
  H132     1.0000 0.32080  0.57340  0.93330  Biso   1.000  H
  H133     1.0000 0.17920  0.07340  0.93330  Biso   1.000  H
  H134     1.0000 0.32080  0.92660  0.43330  Biso   1.000  H
  H135     1.0000 0.82080  0.57340  0.56670  Biso   1.000  H
  H136     1.0000 0.67920  0.42660  0.06670  Biso   1.000  H
  H137     1.0000 0.78180  0.96110  0.02500  Biso   1.000  H
  H138     1.0000 0.71820  0.03890  0.52500  Biso   1.000  H
  H139     1.0000 0.21820  0.46110  0.47500  Biso   1.000  H
  H140     1.0000 0.28180  0.53890  0.97500  Biso   1.000  H
  H141     1.0000 0.21820  0.03890  0.97500  Biso   1.000  H
  H142     1.0000 0.28180  0.96110  0.47500  Biso   1.000  H
  H143     1.0000 0.78180  0.53890  0.52500  Biso   1.000  H
  H144     1.0000 0.71820  0.46110  0.02500  Biso   1.000  H
  C153     1.0000 0.28310  0.81190  0.18000  Biso   1.000  C
  C154     1.0000 0.21690  0.18810  0.68000  Biso   1.000  C
  C155     1.0000 0.71690  0.31190  0.32000  Biso   1.000  C
  C156     1.0000 0.78310  0.68810  0.82000  Biso   1.000  C
  C157     1.0000 0.71690  0.18810  0.82000  Biso   1.000  C
  C158     1.0000 0.78310  0.81190  0.32000  Biso   1.000  C
  C159     1.0000 0.28310  0.68810  0.68000  Biso   1.000  C
  C160     1.0000 0.21690  0.31190  0.18000  Biso   1.000  C
  C161     1.0000 0.24710  0.85530  0.20290  Biso   1.000  C
  C162     1.0000 0.25290  0.14470  0.70290  Biso   1.000  C
  C163     1.0000 0.75290  0.35530  0.29710  Biso   1.000  C
  C164     1.0000 0.74710  0.64470  0.79710  Biso   1.000  C
  C165     1.0000 0.75290  0.14470  0.79710  Biso   1.000  C
  C166     1.0000 0.74710  0.85530  0.29710  Biso   1.000  C
  C167     1.0000 0.24710  0.64470  0.70290  Biso   1.000  C
  C168     1.0000 0.25290  0.35530  0.20290  Biso   1.000  C
  H145     1.0000 0.20590  0.84640  0.21460  Biso   1.000  H
  H146     1.0000 0.29410  0.15360  0.71460  Biso   1.000  H
  H147     1.0000 0.79410  0.34640  0.28540  Biso   1.000  H
  H148     1.0000 0.70590  0.65360  0.78540  Biso   1.000  H
  H149     1.0000 0.79410  0.15360  0.78540  Biso   1.000  H
  H150     1.0000 0.70590  0.84640  0.28540  Biso   1.000  H
  H151     1.0000 0.20590  0.65360  0.71460  Biso   1.000  H
  H152     1.0000 0.29410  0.34640  0.21460  Biso   1.000  H
  C169     1.0000 0.33030  0.92320  0.19180  Biso   1.000  C
  C170     1.0000 0.16970  0.07680  0.69180  Biso   1.000  C
  C171     1.0000 0.66970  0.42320  0.30820  Biso   1.000  C
  C172     1.0000 0.83030  0.57680  0.80820  Biso   1.000  C
  C173     1.0000 0.66970  0.07680  0.80820  Biso   1.000  C
  C174     1.0000 0.83030  0.92320  0.30820  Biso   1.000  C
  C175     1.0000 0.33030  0.57680  0.69180  Biso   1.000  C
  C176     1.0000 0.16970  0.42320  0.19180  Biso   1.000  C
  H153     1.0000 0.34640  0.96090  0.19630  Biso   1.000  H
  H154     1.0000 0.15360  0.03910  0.69630  Biso   1.000  H
  H155     1.0000 0.65360  0.46090  0.30370  Biso   1.000  H
  H156     1.0000 0.84640  0.53910  0.80370  Biso   1.000  H
  H157     1.0000 0.65360  0.03910  0.80370  Biso   1.000  H
  H158     1.0000 0.84640  0.96090  0.30370  Biso   1.000  H
  H159     1.0000 0.34640  0.53910  0.69630  Biso   1.000  H
  H160     1.0000 0.15360  0.46090  0.19630  Biso   1.000  H
  C177     1.0000 0.54250  0.94540  0.95500  Biso   1.000  C
  C178     1.0000 0.95750  0.05460  0.45500  Biso   1.000  C
  C179     1.0000 0.45750  0.44540  0.54500  Biso   1.000  C
  C180     1.0000 0.04250  0.55460  0.04500  Biso   1.000  C
  C181     1.0000 0.45750  0.05460  0.04500  Biso   1.000  C
  C182     1.0000 0.04250  0.94540  0.54500  Biso   1.000  C
  C183     1.0000 0.54250  0.55460  0.45500  Biso   1.000  C
  C184     1.0000 0.95750  0.44540  0.95500  Biso   1.000  C
  H161     1.0000 0.56670  0.97140  0.93550  Biso   1.000  H
  H162     1.0000 0.93330  0.02860  0.43550  Biso   1.000  H
  H163     1.0000 0.43330  0.47140  0.56450  Biso   1.000  H
  H164     1.0000 0.06670  0.52860  0.06450  Biso   1.000  H
  H165     1.0000 0.43330  0.02860  0.06450  Biso   1.000  H
  H166     1.0000 0.06670  0.97140  0.56450  Biso   1.000  H
  H167     1.0000 0.56670  0.52860  0.43550  Biso   1.000  H
  H168     1.0000 0.93330  0.47140  0.93550  Biso   1.000  H
  C185     1.0000 0.34640  0.82440  0.16330  Biso   1.000  C
  C186     1.0000 0.15360  0.17560  0.66330  Biso   1.000  C
  C187     1.0000 0.65360  0.32440  0.33670  Biso   1.000  C
  C188     1.0000 0.84640  0.67560  0.83670  Biso   1.000  C
  C189     1.0000 0.65360  0.17560  0.83670  Biso   1.000  C
  C190     1.0000 0.84640  0.82440  0.33670  Biso   1.000  C
  C191     1.0000 0.34640  0.67560  0.66330  Biso   1.000  C
  C192     1.0000 0.15360  0.32440  0.16330  Biso   1.000  C
  N41      1.0000 0.62750  0.14420  0.14360  Biso   1.000  N
  N42      1.0000 0.87250  0.85580  0.64360  Biso   1.000  N
  N43      1.0000 0.37250  0.64420  0.35640  Biso   1.000  N
  N44      1.0000 0.12750  0.35580  0.85640  Biso   1.000  N
  N45      1.0000 0.37250  0.85580  0.85640  Biso   1.000  N
  N46      1.0000 0.12750  0.14420  0.35640  Biso   1.000  N
  N47      1.0000 0.62750  0.35580  0.64360  Biso   1.000  N
  N48      1.0000 0.87250  0.64420  0.14360  Biso   1.000  N
  C193     1.0000 0.36690  0.88180  0.16830  Biso   1.000  C
  C194     1.0000 0.13310  0.11820  0.66830  Biso   1.000  C
  C195     1.0000 0.63310  0.38180  0.33170  Biso   1.000  C
  C196     1.0000 0.86690  0.61820  0.83170  Biso   1.000  C
  C197     1.0000 0.63310  0.11820  0.83170  Biso   1.000  C
  C198     1.0000 0.86690  0.88180  0.33170  Biso   1.000  C
  C199     1.0000 0.36690  0.61820  0.66830  Biso   1.000  C
  C200     1.0000 0.13310  0.38180  0.16830  Biso   1.000  C
  C201     1.0000 0.59910  0.13060  0.27730  Biso   1.000  C
  C202     1.0000 0.90090  0.86940  0.77730  Biso   1.000  C
  C203     1.0000 0.40090  0.63060  0.22270  Biso   1.000  C
  C204     1.0000 0.09910  0.36940  0.72270  Biso   1.000  C
  C205     1.0000 0.40090  0.86940  0.72270  Biso   1.000  C
  C206     1.0000 0.09910  0.13060  0.22270  Biso   1.000  C
  C207     1.0000 0.59910  0.36940  0.77730  Biso   1.000  C
  C208     1.0000 0.90090  0.63060  0.27730  Biso   1.000  C
  C209     1.0000 0.37510  0.62290  0.04630  Biso   1.000  C
  C210     1.0000 0.12490  0.37710  0.54630  Biso   1.000  C
  C211     1.0000 0.62490  0.12290  0.45370  Biso   1.000  C
  C212     1.0000 0.87510  0.87710  0.95370  Biso   1.000  C
  C213     1.0000 0.62490  0.37710  0.95370  Biso   1.000  C
  C214     1.0000 0.87510  0.62290  0.45370  Biso   1.000  C
  C215     1.0000 0.37510  0.87710  0.54630  Biso   1.000  C
  C216     1.0000 0.12490  0.12290  0.04630  Biso   1.000  C
  H169     1.0000 0.35990  0.58950  0.02980  Biso   1.000  H
  H170     1.0000 0.14010  0.41050  0.52980  Biso   1.000  H
  H171     1.0000 0.64010  0.08950  0.47020  Biso   1.000  H
  H172     1.0000 0.85990  0.91050  0.97020  Biso   1.000  H
  H173     1.0000 0.64010  0.41050  0.97020  Biso   1.000  H
  H174     1.0000 0.85990  0.58950  0.47020  Biso   1.000  H
  H175     1.0000 0.35990  0.91050  0.52980  Biso   1.000  H
  H176     1.0000 0.14010  0.08950  0.02980  Biso   1.000  H
  C217     1.0000 0.70520  0.79420  0.17310  Biso   1.000  C
  C218     1.0000 0.79480  0.20580  0.67310  Biso   1.000  C
  C219     1.0000 0.29480  0.29420  0.32690  Biso   1.000  C
  C220     1.0000 0.20520  0.70580  0.82690  Biso   1.000  C
  C221     1.0000 0.29480  0.20580  0.82690  Biso   1.000  C
  C222     1.0000 0.20520  0.79420  0.32690  Biso   1.000  C
  C223     1.0000 0.70520  0.70580  0.67310  Biso   1.000  C
  C224     1.0000 0.79480  0.29420  0.17310  Biso   1.000  C
  C225     1.0000 0.60730  0.77570  0.02600  Biso   1.000  C
  C226     1.0000 0.89270  0.22430  0.52600  Biso   1.000  C
  C227     1.0000 0.39270  0.27570  0.47400  Biso   1.000  C
  C228     1.0000 0.10730  0.72430  0.97400  Biso   1.000  C
  C229     1.0000 0.39270  0.22430  0.97400  Biso   1.000  C
  C230     1.0000 0.10730  0.77570  0.47400  Biso   1.000  C
  C231     1.0000 0.60730  0.72430  0.52600  Biso   1.000  C
  C232     1.0000 0.89270  0.27570  0.02600  Biso   1.000  C
  H177     1.0000 0.63380  0.74170  0.02090  Biso   1.000  H
  H178     1.0000 0.86620  0.25830  0.52090  Biso   1.000  H
  H179     1.0000 0.36620  0.24170  0.47910  Biso   1.000  H
  H180     1.0000 0.13380  0.75830  0.97910  Biso   1.000  H
  H181     1.0000 0.36620  0.25830  0.97910  Biso   1.000  H
  H182     1.0000 0.13380  0.74170  0.47910  Biso   1.000  H
  H183     1.0000 0.63380  0.75830  0.52090  Biso   1.000  H
  H184     1.0000 0.86620  0.24170  0.02090  Biso   1.000  H
  H185     1.0000 0.62850  0.80230  0.04880  Biso   1.000  H
  H186     1.0000 0.87150  0.19770  0.54880  Biso   1.000  H
  H187     1.0000 0.37150  0.30230  0.45120  Biso   1.000  H
  H188     1.0000 0.12850  0.69770  0.95120  Biso   1.000  H
  H189     1.0000 0.37150  0.19770  0.95120  Biso   1.000  H
  H190     1.0000 0.12850  0.80230  0.45120  Biso   1.000  H
  H191     1.0000 0.62850  0.69770  0.54880  Biso   1.000  H
  H192     1.0000 0.87150  0.30230  0.04880  Biso   1.000  H
  H193     1.0000 0.60000  0.79460  0.99360  Biso   1.000  H
  H194     1.0000 0.90000  0.20540  0.49360  Biso   1.000  H
  H195     1.0000 0.40000  0.29460  0.50640  Biso   1.000  H
  H196     1.0000 0.10000  0.70540  0.00640  Biso   1.000  H
  H197     1.0000 0.40000  0.20540  0.00640  Biso   1.000  H
  H198     1.0000 0.10000  0.79460  0.50640  Biso   1.000  H
  H199     1.0000 0.60000  0.70540  0.49360  Biso   1.000  H
  H200     1.0000 0.90000  0.29460  0.99360  Biso   1.000  H
  C233     1.0000 0.25510  0.75680  0.17590  Biso   1.000  C
  C234     1.0000 0.24490  0.24320  0.67590  Biso   1.000  C
  C235     1.0000 0.74490  0.25680  0.32410  Biso   1.000  C
  C236     1.0000 0.75510  0.74320  0.82410  Biso   1.000  C
  C237     1.0000 0.74490  0.24320  0.82410  Biso   1.000  C
  C238     1.0000 0.75510  0.75680  0.32410  Biso   1.000  C
  C239     1.0000 0.25510  0.74320  0.67590  Biso   1.000  C
  C240     1.0000 0.24490  0.25680  0.17590  Biso   1.000  C
  H201     1.0000 0.21420  0.75330  0.19020  Biso   1.000  H
  H202     1.0000 0.28580  0.24670  0.69020  Biso   1.000  H
  H203     1.0000 0.78580  0.25330  0.30980  Biso   1.000  H
  H204     1.0000 0.71420  0.74670  0.80980  Biso   1.000  H
  H205     1.0000 0.78580  0.24670  0.80980  Biso   1.000  H
  H206     1.0000 0.71420  0.75330  0.30980  Biso   1.000  H
  H207     1.0000 0.21420  0.74670  0.69020  Biso   1.000  H
  H208     1.0000 0.28580  0.25330  0.19020  Biso   1.000  H
  C241     1.0000 0.53160  0.70070  0.97290  Biso   1.000  C
  C242     1.0000 0.96840  0.29930  0.47290  Biso   1.000  C
  C243     1.0000 0.46840  0.20070  0.52710  Biso   1.000  C
  C244     1.0000 0.03160  0.79930  0.02710  Biso   1.000  C
  C245     1.0000 0.46840  0.29930  0.02710  Biso   1.000  C
  C246     1.0000 0.03160  0.70070  0.52710  Biso   1.000  C
  C247     1.0000 0.53160  0.79930  0.47290  Biso   1.000  C
  C248     1.0000 0.96840  0.20070  0.97290  Biso   1.000  C
  H209     1.0000 0.56660  0.71780  0.95650  Biso   1.000  H
  H210     1.0000 0.93340  0.28220  0.45650  Biso   1.000  H
  H211     1.0000 0.43340  0.21780  0.54350  Biso   1.000  H
  H212     1.0000 0.06660  0.78220  0.04350  Biso   1.000  H
  H213     1.0000 0.43340  0.28220  0.04350  Biso   1.000  H
  H214     1.0000 0.06660  0.71780  0.54350  Biso   1.000  H
  H215     1.0000 0.56660  0.78220  0.45650  Biso   1.000  H
  H216     1.0000 0.93340  0.21780  0.95650  Biso   1.000  H
  C249     1.0000 0.74430  0.74990  0.19350  Biso   1.000  C
  C250     1.0000 0.75570  0.25010  0.69350  Biso   1.000  C
  C251     1.0000 0.25570  0.24990  0.30650  Biso   1.000  C
  C252     1.0000 0.24430  0.75010  0.80650  Biso   1.000  C
  C253     1.0000 0.25570  0.25010  0.80650  Biso   1.000  C
  C254     1.0000 0.24430  0.74990  0.30650  Biso   1.000  C
  C255     1.0000 0.74430  0.75010  0.69350  Biso   1.000  C
  C256     1.0000 0.75570  0.24990  0.19350  Biso   1.000  C
  H217     1.0000 0.78690  0.75860  0.20160  Biso   1.000  H
  H218     1.0000 0.71310  0.24140  0.70160  Biso   1.000  H
  H219     1.0000 0.21310  0.25860  0.29840  Biso   1.000  H
  H220     1.0000 0.28690  0.74140  0.79840  Biso   1.000  H
  H221     1.0000 0.21310  0.24140  0.79840  Biso   1.000  H
  H222     1.0000 0.28690  0.75860  0.29840  Biso   1.000  H
  H223     1.0000 0.78690  0.74140  0.70160  Biso   1.000  H
  H224     1.0000 0.71310  0.25860  0.20160  Biso   1.000  H
  C257     1.0000 0.61260  0.96500  0.02510  Biso   1.000  C
  C258     1.0000 0.88740  0.03500  0.52510  Biso   1.000  C
  C259     1.0000 0.38740  0.46500  0.47490  Biso   1.000  C
  C260     1.0000 0.11260  0.53500  0.97490  Biso   1.000  C
  C261     1.0000 0.38740  0.03500  0.97490  Biso   1.000  C
  C262     1.0000 0.11260  0.96500  0.47490  Biso   1.000  C
  C263     1.0000 0.61260  0.53500  0.52510  Biso   1.000  C
  C264     1.0000 0.88740  0.46500  0.02510  Biso   1.000  C
  H225     1.0000 0.62810  0.99510  0.00440  Biso   1.000  H
  H226     1.0000 0.87190  0.00490  0.50440  Biso   1.000  H
  H227     1.0000 0.37190  0.49510  0.49560  Biso   1.000  H
  H228     1.0000 0.12810  0.50490  0.99560  Biso   1.000  H
  H229     1.0000 0.37190  0.00490  0.99560  Biso   1.000  H
  H230     1.0000 0.12810  0.99510  0.49560  Biso   1.000  H
  H231     1.0000 0.62810  0.50490  0.50440  Biso   1.000  H
  H232     1.0000 0.87190  0.49510  0.00440  Biso   1.000  H
  C265     1.0000 0.45280  0.88180  0.96310  Biso   1.000  C
  C266     1.0000 0.04720  0.11820  0.46310  Biso   1.000  C
  C267     1.0000 0.54720  0.38180  0.53690  Biso   1.000  C
  C268     1.0000 0.95280  0.61820  0.03690  Biso   1.000  C
  C269     1.0000 0.54720  0.11820  0.03690  Biso   1.000  C
  C270     1.0000 0.95280  0.88180  0.53690  Biso   1.000  C
  C271     1.0000 0.45280  0.61820  0.46310  Biso   1.000  C
  C272     1.0000 0.04720  0.38180  0.96310  Biso   1.000  C
  H233     1.0000 0.41630  0.86460  0.94890  Biso   1.000  H
  H234     1.0000 0.08370  0.13540  0.44890  Biso   1.000  H
  H235     1.0000 0.58370  0.36460  0.55110  Biso   1.000  H
  H236     1.0000 0.91630  0.63540  0.05110  Biso   1.000  H
  H237     1.0000 0.58370  0.13540  0.05110  Biso   1.000  H
  H238     1.0000 0.91630  0.86460  0.55110  Biso   1.000  H
  H239     1.0000 0.41630  0.63540  0.44890  Biso   1.000  H
  H240     1.0000 0.08370  0.36460  0.94890  Biso   1.000  H
  C273     1.0000 0.37670  0.81570  0.02620  Biso   1.000  C
  C274     1.0000 0.12330  0.18430  0.52620  Biso   1.000  C
  C275     1.0000 0.62330  0.31570  0.47380  Biso   1.000  C
  C276     1.0000 0.87670  0.68430  0.97380  Biso   1.000  C
  C277     1.0000 0.62330  0.18430  0.97380  Biso   1.000  C
  C278     1.0000 0.87670  0.81570  0.47380  Biso   1.000  C
  C279     1.0000 0.37670  0.68430  0.52620  Biso   1.000  C
  C280     1.0000 0.12330  0.31570  0.02620  Biso   1.000  C
  H241     1.0000 0.35140  0.84880  0.01600  Biso   1.000  H
  H242     1.0000 0.14860  0.15120  0.51600  Biso   1.000  H
  H243     1.0000 0.64860  0.34880  0.48400  Biso   1.000  H
  H244     1.0000 0.85140  0.65120  0.98400  Biso   1.000  H
  H245     1.0000 0.64860  0.15120  0.98400  Biso   1.000  H
  H246     1.0000 0.85140  0.84880  0.48400  Biso   1.000  H
  H247     1.0000 0.35140  0.65120  0.51600  Biso   1.000  H
  H248     1.0000 0.14860  0.34880  0.01600  Biso   1.000  H
  H249     1.0000 0.35470  0.79470  0.05280  Biso   1.000  H
  H250     1.0000 0.14530  0.20530  0.55280  Biso   1.000  H
  H251     1.0000 0.64530  0.29470  0.44720  Biso   1.000  H
  H252     1.0000 0.85470  0.70530  0.94720  Biso   1.000  H
  H253     1.0000 0.64530  0.20530  0.94720  Biso   1.000  H
  H254     1.0000 0.85470  0.79470  0.44720  Biso   1.000  H
  H255     1.0000 0.35470  0.70530  0.55280  Biso   1.000  H
  H256     1.0000 0.14530  0.29470  0.05280  Biso   1.000  H
  H257     1.0000 0.38300  0.79030  0.99720  Biso   1.000  H
  H258     1.0000 0.11700  0.20970  0.49720  Biso   1.000  H
  H259     1.0000 0.61700  0.29030  0.50280  Biso   1.000  H
  H260     1.0000 0.88300  0.70970  0.00280  Biso   1.000  H
  H261     1.0000 0.61700  0.20970  0.00280  Biso   1.000  H
  H262     1.0000 0.88300  0.79030  0.50280  Biso   1.000  H
  H263     1.0000 0.38300  0.70970  0.49720  Biso   1.000  H
  H264     1.0000 0.11700  0.29030  0.99720  Biso   1.000  H
  C281     1.0000 0.68600  0.05570  0.24170  Biso   1.000  C
  C282     1.0000 0.81400  0.94430  0.74170  Biso   1.000  C
  C283     1.0000 0.31400  0.55570  0.25830  Biso   1.000  C
  C284     1.0000 0.18600  0.44430  0.75830  Biso   1.000  C
  C285     1.0000 0.31400  0.94430  0.75830  Biso   1.000  C
  C286     1.0000 0.18600  0.05570  0.25830  Biso   1.000  C
  C287     1.0000 0.68600  0.44430  0.74170  Biso   1.000  C
  C288     1.0000 0.81400  0.55570  0.24170  Biso   1.000  C
  C289     1.0000 0.47060  0.87010  0.01250  Biso   1.000  C
  C290     1.0000 0.02940  0.12990  0.51250  Biso   1.000  C
  C291     1.0000 0.52940  0.37010  0.48750  Biso   1.000  C
  C292     1.0000 0.97060  0.62990  0.98750  Biso   1.000  C
  C293     1.0000 0.52940  0.12990  0.98750  Biso   1.000  C
  C294     1.0000 0.97060  0.87010  0.48750  Biso   1.000  C
  C295     1.0000 0.47060  0.62990  0.51250  Biso   1.000  C
  C296     1.0000 0.02940  0.37010  0.01250  Biso   1.000  C
  C297     1.0000 0.79360  0.03240  0.10700  Biso   1.000  C
  C298     1.0000 0.70640  0.96760  0.60700  Biso   1.000  C
  C299     1.0000 0.20640  0.53240  0.39300  Biso   1.000  C
  C300     1.0000 0.29360  0.46760  0.89300  Biso   1.000  C
  C301     1.0000 0.20640  0.96760  0.89300  Biso   1.000  C
  C302     1.0000 0.29360  0.03240  0.39300  Biso   1.000  C
  C303     1.0000 0.79360  0.46760  0.60700  Biso   1.000  C
  C304     1.0000 0.70640  0.53240  0.10700  Biso   1.000  C
  H265     1.0000 0.77530  0.05600  0.13370  Biso   1.000  H
  H266     1.0000 0.72470  0.94400  0.63370  Biso   1.000  H
  H267     1.0000 0.22470  0.55600  0.36630  Biso   1.000  H
  H268     1.0000 0.27530  0.44400  0.86630  Biso   1.000  H
  H269     1.0000 0.22470  0.94400  0.86630  Biso   1.000  H
  H270     1.0000 0.27530  0.05600  0.36630  Biso   1.000  H
  H271     1.0000 0.77530  0.44400  0.63370  Biso   1.000  H
  H272     1.0000 0.72470  0.55600  0.13370  Biso   1.000  H
  H273     1.0000 0.79640  0.05490  0.07600  Biso   1.000  H
  H274     1.0000 0.70360  0.94510  0.57600  Biso   1.000  H
  H275     1.0000 0.20360  0.55490  0.42400  Biso   1.000  H
  H276     1.0000 0.29640  0.44510  0.92400  Biso   1.000  H
  H277     1.0000 0.20360  0.94510  0.92400  Biso   1.000  H
  H278     1.0000 0.29640  0.05490  0.42400  Biso   1.000  H
  H279     1.0000 0.79640  0.44510  0.57600  Biso   1.000  H
  H280     1.0000 0.70360  0.55490  0.07600  Biso   1.000  H
  H281     1.0000 0.83590  0.01980  0.11690  Biso   1.000  H
  H282     1.0000 0.66410  0.98020  0.61690  Biso   1.000  H
  H283     1.0000 0.16410  0.51980  0.38310  Biso   1.000  H
  H284     1.0000 0.33590  0.48020  0.88310  Biso   1.000  H
  H285     1.0000 0.16410  0.98020  0.88310  Biso   1.000  H
  H286     1.0000 0.33590  0.01980  0.38310  Biso   1.000  H
  H287     1.0000 0.83590  0.48020  0.61690  Biso   1.000  H
  H288     1.0000 0.66410  0.51980  0.11690  Biso   1.000  H
  C305     1.0000 0.57920  0.01540  0.29000  Biso   1.000  C
  C306     1.0000 0.92080  0.98460  0.79000  Biso   1.000  C
  C307     1.0000 0.42080  0.51540  0.21000  Biso   1.000  C
  C308     1.0000 0.07920  0.48460  0.71000  Biso   1.000  C
  C309     1.0000 0.42080  0.98460  0.71000  Biso   1.000  C
  C310     1.0000 0.07920  0.01540  0.21000  Biso   1.000  C
  C311     1.0000 0.57920  0.48460  0.79000  Biso   1.000  C
  C312     1.0000 0.92080  0.51540  0.29000  Biso   1.000  C
  C313     1.0000 0.42690  0.65250  0.02120  Biso   1.000  C
  C314     1.0000 0.07310  0.34750  0.52120  Biso   1.000  C
  C315     1.0000 0.57310  0.15250  0.47880  Biso   1.000  C
  C316     1.0000 0.92690  0.84750  0.97880  Biso   1.000  C
  C317     1.0000 0.57310  0.34750  0.97880  Biso   1.000  C
  C318     1.0000 0.92690  0.65250  0.47880  Biso   1.000  C
  C319     1.0000 0.42690  0.84750  0.52120  Biso   1.000  C
  C320     1.0000 0.07310  0.15250  0.02120  Biso   1.000  C
  C321     1.0000 0.26930  0.90920  0.20870  Biso   1.000  C
  C322     1.0000 0.23070  0.09080  0.70870  Biso   1.000  C
  C323     1.0000 0.73070  0.40920  0.29130  Biso   1.000  C
  C324     1.0000 0.76930  0.59080  0.79130  Biso   1.000  C
  C325     1.0000 0.73070  0.09080  0.79130  Biso   1.000  C
  C326     1.0000 0.76930  0.90920  0.29130  Biso   1.000  C
  C327     1.0000 0.26930  0.59080  0.70870  Biso   1.000  C
  C328     1.0000 0.23070  0.40920  0.20870  Biso   1.000  C
  H289     1.0000 0.24370  0.93770  0.22420  Biso   1.000  H
  H290     1.0000 0.25630  0.06230  0.72420  Biso   1.000  H
  H291     1.0000 0.75630  0.43770  0.27580  Biso   1.000  H
  H292     1.0000 0.74370  0.56230  0.77580  Biso   1.000  H
  H293     1.0000 0.75630  0.06230  0.77580  Biso   1.000  H
  H294     1.0000 0.74370  0.93770  0.27580  Biso   1.000  H
  H295     1.0000 0.24370  0.56230  0.72420  Biso   1.000  H
  H296     1.0000 0.25630  0.43770  0.22420  Biso   1.000  H
  C329     1.0000 0.49620  0.65640  0.94900  Biso   1.000  C
  C330     1.0000 0.00380  0.34360  0.44900  Biso   1.000  C
  C331     1.0000 0.50380  0.15640  0.55100  Biso   1.000  C
  C332     1.0000 0.99620  0.84360  0.05100  Biso   1.000  C
  C333     1.0000 0.50380  0.34360  0.05100  Biso   1.000  C
  C334     1.0000 0.99620  0.65640  0.55100  Biso   1.000  C
  C335     1.0000 0.49620  0.84360  0.44900  Biso   1.000  C
  C336     1.0000 0.00380  0.15640  0.94900  Biso   1.000  C
  H297     1.0000 0.50770  0.64280  0.91660  Biso   1.000  H
  H298     1.0000 0.99230  0.35720  0.41660  Biso   1.000  H
  H299     1.0000 0.49230  0.14280  0.58340  Biso   1.000  H
  H300     1.0000 0.00770  0.85720  0.08340  Biso   1.000  H
  H301     1.0000 0.49230  0.35720  0.08340  Biso   1.000  H
  H302     1.0000 0.00770  0.64280  0.58340  Biso   1.000  H
  H303     1.0000 0.50770  0.85720  0.41660  Biso   1.000  H
  H304     1.0000 0.99230  0.14280  0.91660  Biso   1.000  H
  C337     1.0000 0.50630  0.07460  0.22030  Biso   1.000  C
  C338     1.0000 0.99370  0.92540  0.72030  Biso   1.000  C
  C339     1.0000 0.49370  0.57460  0.27970  Biso   1.000  C
  C340     1.0000 0.00630  0.42540  0.77970  Biso   1.000  C
  C341     1.0000 0.49370  0.92540  0.77970  Biso   1.000  C
  C342     1.0000 0.00630  0.07460  0.27970  Biso   1.000  C
  C343     1.0000 0.50630  0.42540  0.72030  Biso   1.000  C
  C344     1.0000 0.99370  0.57460  0.22030  Biso   1.000  C
  C345     1.0000 0.49060  0.91990  0.93440  Biso   1.000  C
  C346     1.0000 0.00940  0.08010  0.43440  Biso   1.000  C
  C347     1.0000 0.50940  0.41990  0.56560  Biso   1.000  C
  C348     1.0000 0.99060  0.58010  0.06560  Biso   1.000  C
  C349     1.0000 0.50940  0.08010  0.06560  Biso   1.000  C
  C350     1.0000 0.99060  0.91990  0.56560  Biso   1.000  C
  C351     1.0000 0.49060  0.58010  0.43440  Biso   1.000  C
  C352     1.0000 0.00940  0.41990  0.93440  Biso   1.000  C
  H305     1.0000 0.47970  0.92770  0.90050  Biso   1.000  H
  H306     1.0000 0.02030  0.07230  0.40050  Biso   1.000  H
  H307     1.0000 0.52030  0.42770  0.59950  Biso   1.000  H
  H308     1.0000 0.97970  0.57230  0.09950  Biso   1.000  H
  H309     1.0000 0.52030  0.07230  0.09950  Biso   1.000  H
  H310     1.0000 0.97970  0.92770  0.59950  Biso   1.000  H
  H311     1.0000 0.47970  0.57230  0.40050  Biso   1.000  H
  H312     1.0000 0.02030  0.42770  0.90050  Biso   1.000  H
  C353     1.0000 0.44510  0.63390  0.97370  Biso   1.000  C
  C354     1.0000 0.05490  0.36610  0.47370  Biso   1.000  C
  C355     1.0000 0.55490  0.13390  0.52630  Biso   1.000  C
  C356     1.0000 0.94510  0.86610  0.02630  Biso   1.000  C
  C357     1.0000 0.55490  0.36610  0.02630  Biso   1.000  C
  C358     1.0000 0.94510  0.63390  0.52630  Biso   1.000  C
  C359     1.0000 0.44510  0.86610  0.47370  Biso   1.000  C
  C360     1.0000 0.05490  0.13390  0.97370  Biso   1.000  C
  H313     1.0000 0.42130  0.60460  0.95780  Biso   1.000  H
  H314     1.0000 0.07870  0.39540  0.45780  Biso   1.000  H
  H315     1.0000 0.57870  0.10460  0.54220  Biso   1.000  H
  H316     1.0000 0.92130  0.89540  0.04220  Biso   1.000  H
  H317     1.0000 0.57870  0.39540  0.04220  Biso   1.000  H
  H318     1.0000 0.92130  0.60460  0.54220  Biso   1.000  H
  H319     1.0000 0.42130  0.89540  0.45780  Biso   1.000  H
  H320     1.0000 0.07870  0.10460  0.95780  Biso   1.000  H
  N49      1.0000 0.56540  0.98080  0.32100  Biso   1.000  N
  N50      1.0000 0.93460  0.01920  0.82100  Biso   1.000  N
  N51      1.0000 0.43460  0.48080  0.17900  Biso   1.000  N
  N52      1.0000 0.06540  0.51920  0.67900  Biso   1.000  N
  N53      1.0000 0.43460  0.01920  0.67900  Biso   1.000  N
  N54      1.0000 0.06540  0.98080  0.17900  Biso   1.000  N
  N55      1.0000 0.56540  0.51920  0.82100  Biso   1.000  N
  N56      1.0000 0.93460  0.48080  0.32100  Biso   1.000  N
  N57      1.0000 0.45490  0.07920  0.21220  Biso   1.000  N
  N58      1.0000 0.04510  0.92080  0.71220  Biso   1.000  N
  N59      1.0000 0.54510  0.57920  0.28780  Biso   1.000  N
  N60      1.0000 0.95490  0.42080  0.78780  Biso   1.000  N
  N61      1.0000 0.54510  0.92080  0.78780  Biso   1.000  N
  N62      1.0000 0.95490  0.07920  0.28780  Biso   1.000  N
  N63      1.0000 0.45490  0.42080  0.71220  Biso   1.000  N
  N64      1.0000 0.04510  0.57920  0.21220  Biso   1.000  N
  O65      1.0000 0.38490  0.78660  0.14350  Biso   1.000  O
  O66      1.0000 0.11510  0.21340  0.64350  Biso   1.000  O
  O67      1.0000 0.61510  0.28660  0.35650  Biso   1.000  O
  O68      1.0000 0.88490  0.71340  0.85650  Biso   1.000  O
  O69      1.0000 0.61510  0.21340  0.85650  Biso   1.000  O
  O70      1.0000 0.88490  0.78660  0.35650  Biso   1.000  O
  O71      1.0000 0.38490  0.71340  0.64350  Biso   1.000  O
  O72      1.0000 0.11510  0.28660  0.14350  Biso   1.000  O
  N65      1.0000 0.70890  0.89340  0.14390  Biso   1.000  N
  N66      1.0000 0.79110  0.10660  0.64390  Biso   1.000  N
  N67      1.0000 0.29110  0.39340  0.35610  Biso   1.000  N
  N68      1.0000 0.20890  0.60660  0.85610  Biso   1.000  N
  N69      1.0000 0.29110  0.10660  0.85610  Biso   1.000  N
  N70      1.0000 0.20890  0.89340  0.35610  Biso   1.000  N
  N71      1.0000 0.70890  0.60660  0.64390  Biso   1.000  N
  N72      1.0000 0.79110  0.39340  0.14390  Biso   1.000  N
  N73      1.0000 0.59880  0.16790  0.30540  Biso   1.000  N
  N74      1.0000 0.90120  0.83210  0.80540  Biso   1.000  N
  N75      1.0000 0.40120  0.66790  0.19460  Biso   1.000  N
  N76      1.0000 0.09880  0.33210  0.69460  Biso   1.000  N
  N77      1.0000 0.40120  0.83210  0.69460  Biso   1.000  N
  N78      1.0000 0.09880  0.16790  0.19460  Biso   1.000  N
  N79      1.0000 0.59880  0.33210  0.80540  Biso   1.000  N
  N80      1.0000 0.90120  0.66790  0.30540  Biso   1.000  N
  C361     1.0000 0.74510  0.94590  0.14700  Biso   1.000  C
  C362     1.0000 0.75490  0.05410  0.64700  Biso   1.000  C
  C363     1.0000 0.25490  0.44590  0.35300  Biso   1.000  C
  C364     1.0000 0.24510  0.55410  0.85300  Biso   1.000  C
  C365     1.0000 0.25490  0.05410  0.85300  Biso   1.000  C
  C366     1.0000 0.24510  0.94590  0.35300  Biso   1.000  C
  C367     1.0000 0.74510  0.55410  0.64700  Biso   1.000  C
  C368     1.0000 0.75490  0.44590  0.14700  Biso   1.000  C
  H321     1.0000 0.78790  0.93630  0.15930  Biso   1.000  H
  H322     1.0000 0.71210  0.06370  0.65930  Biso   1.000  H
  H323     1.0000 0.21210  0.43630  0.34070  Biso   1.000  H
  H324     1.0000 0.28790  0.56370  0.84070  Biso   1.000  H
  H325     1.0000 0.21210  0.06370  0.84070  Biso   1.000  H
  H326     1.0000 0.28790  0.93630  0.34070  Biso   1.000  H
  H327     1.0000 0.78790  0.56370  0.65930  Biso   1.000  H
  H328     1.0000 0.71210  0.43630  0.15930  Biso   1.000  H
  H329     1.0000 0.72510  0.97110  0.17240  Biso   1.000  H
  H330     1.0000 0.77490  0.02890  0.67240  Biso   1.000  H
  H331     1.0000 0.27490  0.47110  0.32760  Biso   1.000  H
  H332     1.0000 0.22510  0.52890  0.82760  Biso   1.000  H
  H333     1.0000 0.27490  0.02890  0.82760  Biso   1.000  H
  H334     1.0000 0.22510  0.97110  0.32760  Biso   1.000  H
  H335     1.0000 0.72510  0.52890  0.67240  Biso   1.000  H
  H336     1.0000 0.77490  0.47110  0.17240  Biso   1.000  H
  C369     1.0000 0.54220  0.65410  0.15350  Biso   1.000  C
  C370     1.0000 0.95780  0.34590  0.65350  Biso   1.000  C
  C371     1.0000 0.45780  0.15410  0.34650  Biso   1.000  C
  C372     1.0000 0.04220  0.84590  0.84650  Biso   1.000  C
  C373     1.0000 0.45780  0.34590  0.84650  Biso   1.000  C
  C374     1.0000 0.04220  0.65410  0.34650  Biso   1.000  C
  C375     1.0000 0.54220  0.84590  0.65350  Biso   1.000  C
  C376     1.0000 0.95780  0.15410  0.15350  Biso   1.000  C
  H337     1.0000 0.57260  0.63270  0.13310  Biso   1.000  H
  H338     1.0000 0.92740  0.36730  0.63310  Biso   1.000  H
  H339     1.0000 0.42740  0.13270  0.36690  Biso   1.000  H
  H340     1.0000 0.07260  0.86730  0.86690  Biso   1.000  H
  H341     1.0000 0.42740  0.36730  0.86690  Biso   1.000  H
  H342     1.0000 0.07260  0.63270  0.36690  Biso   1.000  H
  H343     1.0000 0.57260  0.86730  0.63310  Biso   1.000  H
  H344     1.0000 0.92740  0.13270  0.13310  Biso   1.000  H
  H345     1.0000 0.50000  0.65030  0.13880  Biso   1.000  H
  H346     1.0000 0.00000  0.34970  0.63880  Biso   1.000  H
  H347     1.0000 0.50000  0.15030  0.36120  Biso   1.000  H
  H348     1.0000 0.00000  0.84970  0.86120  Biso   1.000  H
  H349     1.0000 0.50000  0.34970  0.86120  Biso   1.000  H
  H350     1.0000 0.00000  0.65030  0.36120  Biso   1.000  H
  H351     1.0000 0.50000  0.84970  0.63880  Biso   1.000  H
  H352     1.0000 0.00000  0.15030  0.13880  Biso   1.000  H
  H353     1.0000 0.54190  0.63860  0.18770  Biso   1.000  H
  H354     1.0000 0.95810  0.36140  0.68770  Biso   1.000  H
  H355     1.0000 0.45810  0.13860  0.31230  Biso   1.000  H
  H356     1.0000 0.04190  0.86140  0.81230  Biso   1.000  H
  H357     1.0000 0.45810  0.36140  0.81230  Biso   1.000  H
  H358     1.0000 0.04190  0.63860  0.31230  Biso   1.000  H
  H359     1.0000 0.54190  0.86140  0.68770  Biso   1.000  H
  H360     1.0000 0.95810  0.13860  0.18770  Biso   1.000  H
  C377     1.0000 0.44440  0.95000  0.14720  Biso   1.000  C
  C378     1.0000 0.05560  0.05000  0.64720  Biso   1.000  C
  C379     1.0000 0.55560  0.45000  0.35280  Biso   1.000  C
  C380     1.0000 0.94440  0.55000  0.85280  Biso   1.000  C
  C381     1.0000 0.55560  0.05000  0.85280  Biso   1.000  C
  C382     1.0000 0.94440  0.95000  0.35280  Biso   1.000  C
  C383     1.0000 0.44440  0.55000  0.64720  Biso   1.000  C
  C384     1.0000 0.05560  0.45000  0.14720  Biso   1.000  C
  H361     1.0000 0.41030  0.97290  0.13250  Biso   1.000  H
  H362     1.0000 0.08970  0.02710  0.63250  Biso   1.000  H
  H363     1.0000 0.58970  0.47290  0.36750  Biso   1.000  H
  H364     1.0000 0.91030  0.52710  0.86750  Biso   1.000  H
  H365     1.0000 0.58970  0.02710  0.86750  Biso   1.000  H
  H366     1.0000 0.91030  0.97290  0.36750  Biso   1.000  H
  H367     1.0000 0.41030  0.52710  0.63250  Biso   1.000  H
  H368     1.0000 0.08970  0.47290  0.13250  Biso   1.000  H
  H369     1.0000 0.48270  0.95440  0.12690  Biso   1.000  H
  H370     1.0000 0.01730  0.04560  0.62690  Biso   1.000  H
  H371     1.0000 0.51730  0.45440  0.37310  Biso   1.000  H
  H372     1.0000 0.98270  0.54560  0.87310  Biso   1.000  H
  H373     1.0000 0.51730  0.04560  0.87310  Biso   1.000  H
  H374     1.0000 0.98270  0.95440  0.37310  Biso   1.000  H
  H375     1.0000 0.48270  0.54560  0.62690  Biso   1.000  H
  H376     1.0000 0.01730  0.45440  0.12690  Biso   1.000  H
  H377     1.0000 0.45280  0.96320  0.18150  Biso   1.000  H
  H378     1.0000 0.04720  0.03680  0.68150  Biso   1.000  H
  H379     1.0000 0.54720  0.46320  0.31850  Biso   1.000  H
  H380     1.0000 0.95280  0.53680  0.81850  Biso   1.000  H
  H381     1.0000 0.54720  0.03680  0.81850  Biso   1.000  H
  H382     1.0000 0.95280  0.96320  0.31850  Biso   1.000  H
  H383     1.0000 0.45280  0.53680  0.68150  Biso   1.000  H
  H384     1.0000 0.04720  0.46320  0.18150  Biso   1.000  H
  O73      1.0000 0.37000  0.03290  0.28140  Biso   1.000  O
  O74      1.0000 0.13000  0.96710  0.78140  Biso   1.000  O
  O75      1.0000 0.63000  0.53290  0.21860  Biso   1.000  O
  O76      1.0000 0.87000  0.46710  0.71860  Biso   1.000  O
  O77      1.0000 0.63000  0.96710  0.71860  Biso   1.000  O
  O78      1.0000 0.87000  0.03290  0.21860  Biso   1.000  O
  O79      1.0000 0.37000  0.46710  0.78140  Biso   1.000  O
  O80      1.0000 0.13000  0.53290  0.28140  Biso   1.000  O
  N81      1.0000 0.28220  0.78080  0.45680  Biso   1.000  N
  N82      1.0000 0.21780  0.21920  0.95680  Biso   1.000  N
  N83      1.0000 0.71780  0.28080  0.04320  Biso   1.000  N
  N84      1.0000 0.78220  0.71920  0.54320  Biso   1.000  N
  N85      1.0000 0.71780  0.21920  0.54320  Biso   1.000  N
  N86      1.0000 0.78220  0.78080  0.04320  Biso   1.000  N
  N87      1.0000 0.28220  0.71920  0.95680  Biso   1.000  N
  N88      1.0000 0.21780  0.28080  0.45680  Biso   1.000  N
  C385     1.0000 0.26640  0.73820  0.44540  Biso   1.000  C
  C386     1.0000 0.23360  0.26180  0.94540  Biso   1.000  C
  C387     1.0000 0.73360  0.23820  0.05460  Biso   1.000  C
  C388     1.0000 0.76640  0.76180  0.55460  Biso   1.000  C
  C389     1.0000 0.73360  0.26180  0.55460  Biso   1.000  C
  C390     1.0000 0.76640  0.73820  0.05460  Biso   1.000  C
  C391     1.0000 0.26640  0.76180  0.94540  Biso   1.000  C
  C392     1.0000 0.23360  0.23820  0.44540  Biso   1.000  C
  C393     1.0000 0.24710  0.68030  0.43140  Biso   1.000  C
  C394     1.0000 0.25290  0.31970  0.93140  Biso   1.000  C
  C395     1.0000 0.75290  0.18030  0.06860  Biso   1.000  C
  C396     1.0000 0.74710  0.81970  0.56860  Biso   1.000  C
  C397     1.0000 0.75290  0.31970  0.56860  Biso   1.000  C
  C398     1.0000 0.74710  0.68030  0.06860  Biso   1.000  C
  C399     1.0000 0.24710  0.81970  0.93140  Biso   1.000  C
  C400     1.0000 0.25290  0.18030  0.43140  Biso   1.000  C
  H385     1.0000 0.28350  0.65920  0.41810  Biso   1.000  H
  H386     1.0000 0.21650  0.34080  0.91810  Biso   1.000  H
  H387     1.0000 0.71650  0.15920  0.08190  Biso   1.000  H
  H388     1.0000 0.78350  0.84080  0.58190  Biso   1.000  H
  H389     1.0000 0.71650  0.34080  0.58190  Biso   1.000  H
  H390     1.0000 0.78350  0.65920  0.08190  Biso   1.000  H
  H391     1.0000 0.28350  0.84080  0.91810  Biso   1.000  H
  H392     1.0000 0.21650  0.15920  0.41810  Biso   1.000  H
  H393     1.0000 0.21420  0.68230  0.40560  Biso   1.000  H
  H394     1.0000 0.28580  0.31770  0.90560  Biso   1.000  H
  H395     1.0000 0.78580  0.18230  0.09440  Biso   1.000  H
  H396     1.0000 0.71420  0.81770  0.59440  Biso   1.000  H
  H397     1.0000 0.78580  0.31770  0.59440  Biso   1.000  H
  H398     1.0000 0.71420  0.68230  0.09440  Biso   1.000  H
  H399     1.0000 0.21420  0.81770  0.90560  Biso   1.000  H
  H400     1.0000 0.28580  0.18230  0.40560  Biso   1.000  H
  H401     1.0000 0.23050  0.66030  0.46100  Biso   1.000  H
  H402     1.0000 0.26950  0.33970  0.96100  Biso   1.000  H
  H403     1.0000 0.76950  0.16030  0.03900  Biso   1.000  H
  H404     1.0000 0.73050  0.83970  0.53900  Biso   1.000  H
  H405     1.0000 0.76950  0.33970  0.53900  Biso   1.000  H
  H406     1.0000 0.73050  0.66030  0.03900  Biso   1.000  H
  H407     1.0000 0.23050  0.83970  0.96100  Biso   1.000  H
  H408     1.0000 0.26950  0.16030  0.46100  Biso   1.000  H
  O81      1.0000 0.39910  0.76190  0.37040  Biso   1.000  O
  O82      1.0000 0.10090  0.23810  0.87040  Biso   1.000  O
  O83      1.0000 0.60090  0.26190  0.12960  Biso   1.000  O
  O84      1.0000 0.89910  0.73810  0.62960  Biso   1.000  O
  O85      1.0000 0.60090  0.23810  0.62960  Biso   1.000  O
  O86      1.0000 0.89910  0.76190  0.12960  Biso   1.000  O
  O87      1.0000 0.39910  0.73810  0.87040  Biso   1.000  O
  O88      1.0000 0.10090  0.26190  0.37040  Biso   1.000  O
  O89      1.0000 0.40540  0.82620  0.28360  Biso   1.000  O
  O90      1.0000 0.09460  0.17380  0.78360  Biso   1.000  O
  O91      1.0000 0.59460  0.32620  0.21640  Biso   1.000  O
  O92      1.0000 0.90540  0.67380  0.71640  Biso   1.000  O
  O93      1.0000 0.59460  0.17380  0.71640  Biso   1.000  O
  O94      1.0000 0.90540  0.82620  0.21640  Biso   1.000  O
  O95      1.0000 0.40540  0.67380  0.78360  Biso   1.000  O
  O96      1.0000 0.09460  0.32620  0.28360  Biso   1.000  O
  C401     1.0000 0.51740  0.51920  0.08230  Biso   1.000  C
  C402     1.0000 0.98260  0.48080  0.58230  Biso   1.000  C
  C403     1.0000 0.48260  0.01920  0.41770  Biso   1.000  C
  C404     1.0000 0.01740  0.98080  0.91770  Biso   1.000  C
  C405     1.0000 0.48260  0.48080  0.91770  Biso   1.000  C
  C406     1.0000 0.01740  0.51920  0.41770  Biso   1.000  C
  C407     1.0000 0.51740  0.98080  0.58230  Biso   1.000  C
  C408     1.0000 0.98260  0.01920  0.08230  Biso   1.000  C
  H409     1.0000 0.49770  0.55580  0.09140  Biso   1.000  H
  H410     1.0000 0.00230  0.44420  0.59140  Biso   1.000  H
  H411     1.0000 0.50230  0.05580  0.40860  Biso   1.000  H
  H412     1.0000 0.99770  0.94420  0.90860  Biso   1.000  H
  H413     1.0000 0.50230  0.44420  0.90860  Biso   1.000  H
  H414     1.0000 0.99770  0.55580  0.40860  Biso   1.000  H
  H415     1.0000 0.49770  0.94420  0.59140  Biso   1.000  H
  H416     1.0000 0.00230  0.05580  0.09140  Biso   1.000  H
  H417     1.0000 0.54320  0.50550  0.11040  Biso   1.000  H
  H418     1.0000 0.95680  0.49450  0.61040  Biso   1.000  H
  H419     1.0000 0.45680  0.00550  0.38960  Biso   1.000  H
  H420     1.0000 0.04320  0.99450  0.88960  Biso   1.000  H
  H421     1.0000 0.45680  0.49450  0.88960  Biso   1.000  H
  H422     1.0000 0.04320  0.50550  0.38960  Biso   1.000  H
  H423     1.0000 0.54320  0.99450  0.61040  Biso   1.000  H
  H424     1.0000 0.95680  0.00550  0.11040  Biso   1.000  H
  H425     1.0000 0.48450  0.49090  0.07470  Biso   1.000  H
  H426     1.0000 0.01550  0.50910  0.57470  Biso   1.000  H
  H427     1.0000 0.51550  0.99090  0.42530  Biso   1.000  H
  H428     1.0000 0.98450  0.00910  0.92530  Biso   1.000  H
  H429     1.0000 0.51550  0.50910  0.92530  Biso   1.000  H
  H430     1.0000 0.98450  0.49090  0.42530  Biso   1.000  H
  H431     1.0000 0.48450  0.00910  0.57470  Biso   1.000  H
  H432     1.0000 0.01550  0.99090  0.07470  Biso   1.000  H
  C409     1.0000 0.55480  0.52670  0.04110  Biso   1.000  C
  C410     1.0000 0.94520  0.47330  0.54110  Biso   1.000  C
  C411     1.0000 0.44520  0.02670  0.45890  Biso   1.000  C
  C412     1.0000 0.05480  0.97330  0.95890  Biso   1.000  C
  C413     1.0000 0.44520  0.47330  0.95890  Biso   1.000  C
  C414     1.0000 0.05480  0.52670  0.45890  Biso   1.000  C
  C415     1.0000 0.55480  0.97330  0.54110  Biso   1.000  C
  C416     1.0000 0.94520  0.02670  0.04110  Biso   1.000  C
  N89      1.0000 0.58580  0.52790  0.00820  Biso   1.000  N
  N90      1.0000 0.91420  0.47210  0.50820  Biso   1.000  N
  N91      1.0000 0.41420  0.02790  0.49180  Biso   1.000  N
  N92      1.0000 0.08580  0.97210  0.99180  Biso   1.000  N
  N93      1.0000 0.41420  0.47210  0.99180  Biso   1.000  N
  N94      1.0000 0.08580  0.52790  0.49180  Biso   1.000  N
  N95      1.0000 0.58580  0.97210  0.50820  Biso   1.000  N
  N96      1.0000 0.91420  0.02790  0.00820  Biso   1.000  N
  O97      1.0000 0.59030  0.86670  0.25740  Biso   1.000  O
  O98      1.0000 0.90970  0.13330  0.75740  Biso   1.000  O
  O99      1.0000 0.40970  0.36670  0.24260  Biso   1.000  O
  O100     1.0000 0.09030  0.63330  0.74260  Biso   1.000  O
  O101     1.0000 0.40970  0.13330  0.74260  Biso   1.000  O
  O102     1.0000 0.09030  0.86670  0.24260  Biso   1.000  O
  O103     1.0000 0.59030  0.63330  0.75740  Biso   1.000  O
  O104     1.0000 0.90970  0.36670  0.25740  Biso   1.000  O
  O105     1.0000 0.42670  0.93750  0.31810  Biso   1.000  O
  O106     1.0000 0.07330  0.06250  0.81810  Biso   1.000  O
  O107     1.0000 0.57330  0.43750  0.18190  Biso   1.000  O
  O108     1.0000 0.92670  0.56250  0.68190  Biso   1.000  O
  O109     1.0000 0.57330  0.06250  0.68190  Biso   1.000  O
  O110     1.0000 0.92670  0.93750  0.18190  Biso   1.000  O
  O111     1.0000 0.42670  0.56250  0.81810  Biso   1.000  O
  O112     1.0000 0.07330  0.43750  0.31810  Biso   1.000  O
  C417     1.0000 0.67250  0.58430  0.90780  Biso   1.000  C
  C418     1.0000 0.82750  0.41570  0.40780  Biso   1.000  C
  C419     1.0000 0.32750  0.08430  0.59220  Biso   1.000  C
  C420     1.0000 0.17250  0.91570  0.09220  Biso   1.000  C
  C421     1.0000 0.32750  0.41570  0.09220  Biso   1.000  C
  C422     1.0000 0.17250  0.58430  0.59220  Biso   1.000  C
  C423     1.0000 0.67250  0.91570  0.40780  Biso   1.000  C
  C424     1.0000 0.82750  0.08430  0.90780  Biso   1.000  C
  H433     1.0000 0.63540  0.57640  0.92860  Biso   1.000  H
  H434     1.0000 0.86460  0.42360  0.42860  Biso   1.000  H
  H435     1.0000 0.36460  0.07640  0.57140  Biso   1.000  H
  H436     1.0000 0.13540  0.92360  0.07140  Biso   1.000  H
  H437     1.0000 0.36460  0.42360  0.07140  Biso   1.000  H
  H438     1.0000 0.13540  0.57640  0.57140  Biso   1.000  H
  H439     1.0000 0.63540  0.92360  0.42860  Biso   1.000  H
  H440     1.0000 0.86460  0.07640  0.92860  Biso   1.000  H
  H441     1.0000 0.67160  0.55960  0.87800  Biso   1.000  H
  H442     1.0000 0.82840  0.44040  0.37800  Biso   1.000  H
  H443     1.0000 0.32840  0.05960  0.62200  Biso   1.000  H
  H444     1.0000 0.17160  0.94040  0.12200  Biso   1.000  H
  H445     1.0000 0.32840  0.44040  0.12200  Biso   1.000  H
  H446     1.0000 0.17160  0.55960  0.62200  Biso   1.000  H
  H447     1.0000 0.67160  0.94040  0.37800  Biso   1.000  H
  H448     1.0000 0.82840  0.05960  0.87800  Biso   1.000  H
  H449     1.0000 0.67210  0.62460  0.89730  Biso   1.000  H
  H450     1.0000 0.82790  0.37540  0.39730  Biso   1.000  H
  H451     1.0000 0.32790  0.12460  0.60270  Biso   1.000  H
  H452     1.0000 0.17210  0.87540  0.10270  Biso   1.000  H
  H453     1.0000 0.32790  0.37540  0.10270  Biso   1.000  H
  H454     1.0000 0.17210  0.62460  0.60270  Biso   1.000  H
  H455     1.0000 0.67210  0.87540  0.39730  Biso   1.000  H
  H456     1.0000 0.82790  0.12460  0.89730  Biso   1.000  H
  C425     1.0000 0.72810  0.57310  0.93580  Biso   1.000  C
  C426     1.0000 0.77190  0.42690  0.43580  Biso   1.000  C
  C427     1.0000 0.27190  0.07310  0.56420  Biso   1.000  C
  C428     1.0000 0.22810  0.92690  0.06420  Biso   1.000  C
  C429     1.0000 0.27190  0.42690  0.06420  Biso   1.000  C
  C430     1.0000 0.22810  0.57310  0.56420  Biso   1.000  C
  C431     1.0000 0.72810  0.92690  0.43580  Biso   1.000  C
  C432     1.0000 0.77190  0.07310  0.93580  Biso   1.000  C
  N97      1.0000 0.77230  0.56540  0.95500  Biso   1.000  N
  N98      1.0000 0.72770  0.43460  0.45500  Biso   1.000  N
  N99      1.0000 0.22770  0.06540  0.54500  Biso   1.000  N
  N100     1.0000 0.27230  0.93460  0.04500  Biso   1.000  N
  N101     1.0000 0.22770  0.43460  0.04500  Biso   1.000  N
  N102     1.0000 0.27230  0.56540  0.54500  Biso   1.000  N
  N103     1.0000 0.77230  0.93460  0.45500  Biso   1.000  N
  N104     1.0000 0.72770  0.06540  0.95500  Biso   1.000  N
  C433     1.0000 0.57600  0.74920  0.84170  Biso   1.000  C
  C434     1.0000 0.92400  0.25080  0.34170  Biso   1.000  C
  C435     1.0000 0.42400  0.24920  0.65830  Biso   1.000  C
  C436     1.0000 0.07600  0.75080  0.15830  Biso   1.000  C
  C437     1.0000 0.42400  0.25080  0.15830  Biso   1.000  C
  C438     1.0000 0.07600  0.74920  0.65830  Biso   1.000  C
  C439     1.0000 0.57600  0.75080  0.34170  Biso   1.000  C
  C440     1.0000 0.92400  0.24920  0.84170  Biso   1.000  C
  C441     1.0000 0.53750  0.78130  0.81470  Biso   1.000  C
  C442     1.0000 0.96250  0.21870  0.31470  Biso   1.000  C
  C443     1.0000 0.46250  0.28130  0.68530  Biso   1.000  C
  C444     1.0000 0.03750  0.71870  0.18530  Biso   1.000  C
  C445     1.0000 0.46250  0.21870  0.18530  Biso   1.000  C
  C446     1.0000 0.03750  0.78130  0.68530  Biso   1.000  C
  C447     1.0000 0.53750  0.71870  0.31470  Biso   1.000  C
  C448     1.0000 0.96250  0.28130  0.81470  Biso   1.000  C
  H457     1.0000 0.51870  0.81090  0.83600  Biso   1.000  H
  H458     1.0000 0.98130  0.18910  0.33600  Biso   1.000  H
  H459     1.0000 0.48130  0.31090  0.66400  Biso   1.000  H
  H460     1.0000 0.01870  0.68910  0.16400  Biso   1.000  H
  H461     1.0000 0.48130  0.18910  0.16400  Biso   1.000  H
  H462     1.0000 0.01870  0.81090  0.66400  Biso   1.000  H
  H463     1.0000 0.51870  0.68910  0.33600  Biso   1.000  H
  H464     1.0000 0.98130  0.31090  0.83600  Biso   1.000  H
  H465     1.0000 0.50400  0.75720  0.80050  Biso   1.000  H
  H466     1.0000 0.99600  0.24280  0.30050  Biso   1.000  H
  H467     1.0000 0.49600  0.25720  0.69950  Biso   1.000  H
  H468     1.0000 0.00400  0.74280  0.19950  Biso   1.000  H
  H469     1.0000 0.49600  0.24280  0.19950  Biso   1.000  H
  H470     1.0000 0.00400  0.75720  0.69950  Biso   1.000  H
  H471     1.0000 0.50400  0.74280  0.30050  Biso   1.000  H
  H472     1.0000 0.99600  0.25720  0.80050  Biso   1.000  H
  H473     1.0000 0.56120  0.79950  0.78740  Biso   1.000  H
  H474     1.0000 0.93880  0.20050  0.28740  Biso   1.000  H
  H475     1.0000 0.43880  0.29950  0.71260  Biso   1.000  H
  H476     1.0000 0.06120  0.70050  0.21260  Biso   1.000  H
  H477     1.0000 0.43880  0.20050  0.21260  Biso   1.000  H
  H478     1.0000 0.06120  0.79950  0.71260  Biso   1.000  H
  H479     1.0000 0.56120  0.70050  0.28740  Biso   1.000  H
  H480     1.0000 0.93880  0.29950  0.78740  Biso   1.000  H
  N105     1.0000 0.60550  0.72420  0.86470  Biso   1.000  N
  N106     1.0000 0.89450  0.27580  0.36470  Biso   1.000  N
  N107     1.0000 0.39450  0.22420  0.63530  Biso   1.000  N
  N108     1.0000 0.10550  0.77580  0.13530  Biso   1.000  N
  N109     1.0000 0.39450  0.27580  0.13530  Biso   1.000  N
  N110     1.0000 0.10550  0.72420  0.63530  Biso   1.000  N
  N111     1.0000 0.60550  0.77580  0.36470  Biso   1.000  N
  N112     1.0000 0.89450  0.22420  0.86470  Biso   1.000  N
