data_image0
_cell_length_a       17.78
_cell_length_b       17.89
_cell_length_c       21.515
_cell_angle_alpha    90
_cell_angle_beta     90
_cell_angle_gamma    90

_symmetry_space_group_name_H-M    "P 1"
_symmetry_int_tables_number       1

loop_
  _symmetry_equiv_pos_as_xyz
  'x, y, z'

loop_
  _atom_site_label
  _atom_site_occupancy
  _atom_site_fract_x
  _atom_site_fract_y
  _atom_site_fract_z
  _atom_site_thermal_displace_type
  _atom_site_B_iso_or_equiv
  _atom_site_type_symbol
  Cu1      1.0000 0.25974  0.88245  0.01053  Biso   1.000  Cu
  Cu2      1.0000 0.24026  0.11755  0.51053  Biso   1.000  Cu
  Cu3      1.0000 0.75974  0.61755  0.98947  Biso   1.000  Cu
  Cu4      1.0000 0.74026  0.38245  0.48947  Biso   1.000  Cu
  Cu5      1.0000 0.63480  0.50131  0.75137  Biso   1.000  Cu
  Cu6      1.0000 0.86520  0.49869  0.25137  Biso   1.000  Cu
  Cu7      1.0000 0.13480  0.99869  0.24863  Biso   1.000  Cu
  Cu8      1.0000 0.36520  0.00131  0.74863  Biso   1.000  Cu
  Cu9      1.0000 0.13433  0.47299  0.72474  Biso   1.000  Cu
  Cu10     1.0000 0.36567  0.52701  0.22474  Biso   1.000  Cu
  Cu11     1.0000 0.63433  0.02701  0.27526  Biso   1.000  Cu
  Cu12     1.0000 0.86567  0.97299  0.77526  Biso   1.000  Cu
  Cu13     1.0000 0.77719  0.12334  0.02761  Biso   1.000  Cu
  Cu14     1.0000 0.72281  0.87666  0.52761  Biso   1.000  Cu
  Cu15     1.0000 0.27719  0.37666  0.97239  Biso   1.000  Cu
  Cu16     1.0000 0.22281  0.62334  0.47239  Biso   1.000  Cu
  O1       1.0000 0.24910  0.06500  0.90730  Biso   1.000  O
  O2       1.0000 0.25090  0.93500  0.40730  Biso   1.000  O
  O3       1.0000 0.74910  0.43500  0.09270  Biso   1.000  O
  O4       1.0000 0.75090  0.56500  0.59270  Biso   1.000  O
  O5       1.0000 0.28180  0.95270  0.94280  Biso   1.000  O
  O6       1.0000 0.21820  0.04730  0.44280  Biso   1.000  O
  O7       1.0000 0.78180  0.54730  0.05720  Biso   1.000  O
  O8       1.0000 0.71820  0.45270  0.55720  Biso   1.000  O
  O9       1.0000 0.34960  0.89140  0.08530  Biso   1.000  O
  O10      1.0000 0.15040  0.10860  0.58530  Biso   1.000  O
  O11      1.0000 0.84960  0.60860  0.91470  Biso   1.000  O
  O12      1.0000 0.65040  0.39140  0.41470  Biso   1.000  O
  H1       1.0000 0.39250  0.89500  0.06820  Biso   1.000  H
  H2       1.0000 0.10750  0.10500  0.56820  Biso   1.000  H
  H3       1.0000 0.89250  0.60500  0.93180  Biso   1.000  H
  H4       1.0000 0.60750  0.39500  0.43180  Biso   1.000  H
  H5       1.0000 0.34150  0.93000  0.10740  Biso   1.000  H
  H6       1.0000 0.15850  0.07000  0.60740  Biso   1.000  H
  H7       1.0000 0.84150  0.57000  0.89260  Biso   1.000  H
  H8       1.0000 0.65850  0.43000  0.39260  Biso   1.000  H
  O13      1.0000 0.83920  0.51040  0.82560  Biso   1.000  O
  O14      1.0000 0.66080  0.48960  0.32560  Biso   1.000  O
  O15      1.0000 0.33920  0.98960  0.17440  Biso   1.000  O
  O16      1.0000 0.16080  0.01040  0.67440  Biso   1.000  O
  O17      1.0000 0.71630  0.52750  0.80840  Biso   1.000  O
  O18      1.0000 0.78370  0.47250  0.30840  Biso   1.000  O
  O19      1.0000 0.21630  0.97250  0.19160  Biso   1.000  O
  O20      1.0000 0.28370  0.02750  0.69160  Biso   1.000  O
  O21      1.0000 0.65540  0.59240  0.68260  Biso   1.000  O
  O22      1.0000 0.84460  0.40760  0.18260  Biso   1.000  O
  O23      1.0000 0.15540  0.90760  0.31740  Biso   1.000  O
  O24      1.0000 0.34460  0.09240  0.81740  Biso   1.000  O
  H9       1.0000 0.66840  0.63180  0.70180  Biso   1.000  H
  H10      1.0000 0.83160  0.36820  0.20180  Biso   1.000  H
  H11      1.0000 0.16840  0.86820  0.29820  Biso   1.000  H
  H12      1.0000 0.33160  0.13180  0.79820  Biso   1.000  H
  H13      1.0000 0.69040  0.57920  0.65810  Biso   1.000  H
  H14      1.0000 0.80960  0.42080  0.15810  Biso   1.000  H
  H15      1.0000 0.19040  0.92080  0.34190  Biso   1.000  H
  H16      1.0000 0.30960  0.07920  0.84190  Biso   1.000  H
  O25      1.0000 0.34030  0.46130  0.79640  Biso   1.000  O
  O26      1.0000 0.15970  0.53870  0.29640  Biso   1.000  O
  O27      1.0000 0.84030  0.03870  0.20360  Biso   1.000  O
  O28      1.0000 0.65970  0.96130  0.70360  Biso   1.000  O
  O29      1.0000 0.21650  0.45220  0.78523  Biso   1.000  O
  O30      1.0000 0.28350  0.54780  0.28523  Biso   1.000  O
  O31      1.0000 0.71650  0.04780  0.21477  Biso   1.000  O
  O32      1.0000 0.78350  0.95220  0.71477  Biso   1.000  O
  O33      1.0000 0.15350  0.37710  0.66030  Biso   1.000  O
  O34      1.0000 0.34650  0.62290  0.16030  Biso   1.000  O
  O35      1.0000 0.65350  0.12290  0.33970  Biso   1.000  O
  O36      1.0000 0.84650  0.87710  0.83970  Biso   1.000  O
  H17      1.0000 0.17350  0.39300  0.62700  Biso   1.000  H
  H18      1.0000 0.32650  0.60700  0.12700  Biso   1.000  H
  H19      1.0000 0.67350  0.10700  0.37300  Biso   1.000  H
  H20      1.0000 0.82650  0.89300  0.87300  Biso   1.000  H
  H21      1.0000 0.11160  0.35660  0.65200  Biso   1.000  H
  H22      1.0000 0.38840  0.64340  0.15200  Biso   1.000  H
  H23      1.0000 0.61160  0.14340  0.34800  Biso   1.000  H
  H24      1.0000 0.88840  0.85660  0.84800  Biso   1.000  H
  O37      1.0000 0.80680  0.92260  0.95530  Biso   1.000  O
  O38      1.0000 0.69320  0.07740  0.45530  Biso   1.000  O
  O39      1.0000 0.30680  0.57740  0.04470  Biso   1.000  O
  O40      1.0000 0.19320  0.42260  0.54470  Biso   1.000  O
  O41      1.0000 0.80440  0.04530  0.96690  Biso   1.000  O
  O42      1.0000 0.69560  0.95470  0.46690  Biso   1.000  O
  O43      1.0000 0.30440  0.45470  0.03310  Biso   1.000  O
  O44      1.0000 0.19560  0.54530  0.53310  Biso   1.000  O
  O45      1.0000 0.87040  0.12340  0.10280  Biso   1.000  O
  O46      1.0000 0.62960  0.87660  0.60280  Biso   1.000  O
  O47      1.0000 0.37040  0.37660  0.89720  Biso   1.000  O
  O48      1.0000 0.12960  0.62340  0.39720  Biso   1.000  O
  H25      1.0000 0.85710  0.09550  0.13280  Biso   1.000  H
  H26      1.0000 0.64290  0.90450  0.63280  Biso   1.000  H
  H27      1.0000 0.35710  0.40450  0.86720  Biso   1.000  H
  H28      1.0000 0.14290  0.59550  0.36720  Biso   1.000  H
  H29      1.0000 0.91100  0.10690  0.08710  Biso   1.000  H
  H30      1.0000 0.58900  0.89310  0.58710  Biso   1.000  H
  H31      1.0000 0.41100  0.39310  0.91290  Biso   1.000  H
  H32      1.0000 0.08900  0.60690  0.41290  Biso   1.000  H
  O49      1.0000 0.01120  0.86560  0.91470  Biso   1.000  O
  O50      1.0000 0.48880  0.13440  0.41470  Biso   1.000  O
  O51      1.0000 0.51120  0.63440  0.08530  Biso   1.000  O
  O52      1.0000 0.98880  0.36560  0.58530  Biso   1.000  O
  O53      1.0000 0.13020  0.86420  0.93420  Biso   1.000  O
  O54      1.0000 0.36980  0.13580  0.43420  Biso   1.000  O
  O55      1.0000 0.63020  0.63580  0.06580  Biso   1.000  O
  O56      1.0000 0.86980  0.36420  0.56580  Biso   1.000  O
  O57      1.0000 0.06030  0.94560  0.97640  Biso   1.000  O
  O58      1.0000 0.43970  0.05440  0.47640  Biso   1.000  O
  O59      1.0000 0.56030  0.55440  0.02360  Biso   1.000  O
  O60      1.0000 0.93970  0.44560  0.52360  Biso   1.000  O
  O61      1.0000 0.60010  0.29380  0.89630  Biso   1.000  O
  O62      1.0000 0.89990  0.70620  0.39630  Biso   1.000  O
  O63      1.0000 0.10010  0.20620  0.10370  Biso   1.000  O
  O64      1.0000 0.39990  0.79380  0.60370  Biso   1.000  O
  O65      1.0000 0.61750  0.39180  0.86240  Biso   1.000  O
  O66      1.0000 0.88250  0.60820  0.36240  Biso   1.000  O
  O67      1.0000 0.11750  0.10820  0.13760  Biso   1.000  O
  O68      1.0000 0.38250  0.89180  0.63760  Biso   1.000  O
  O69      1.0000 0.52120  0.38500  0.93720  Biso   1.000  O
  O70      1.0000 0.97880  0.61500  0.43720  Biso   1.000  O
  O71      1.0000 0.02120  0.11500  0.06280  Biso   1.000  O
  O72      1.0000 0.47880  0.88500  0.56280  Biso   1.000  O
  O73      1.0000 0.17960  0.75000  0.79510  Biso   1.000  O
  O74      1.0000 0.32040  0.25000  0.29510  Biso   1.000  O
  O75      1.0000 0.67960  0.75000  0.20490  Biso   1.000  O
  O76      1.0000 0.82040  0.25000  0.70490  Biso   1.000  O
  O77      1.0000 0.14330  0.63500  0.79060  Biso   1.000  O
  O78      1.0000 0.35670  0.36500  0.29060  Biso   1.000  O
  O79      1.0000 0.64330  0.86500  0.20940  Biso   1.000  O
  O80      1.0000 0.85670  0.13500  0.70940  Biso   1.000  O
  O81      1.0000 0.24170  0.66960  0.74150  Biso   1.000  O
  O82      1.0000 0.25830  0.33040  0.24150  Biso   1.000  O
  O83      1.0000 0.74170  0.83040  0.25850  Biso   1.000  O
  O84      1.0000 0.75830  0.16960  0.75850  Biso   1.000  O
  O85      1.0000 0.61120  0.10630  0.96860  Biso   1.000  O
  O86      1.0000 0.88880  0.89370  0.46860  Biso   1.000  O
  O87      1.0000 0.11120  0.39370  0.03140  Biso   1.000  O
  O88      1.0000 0.38880  0.60630  0.53140  Biso   1.000  O
  O89      1.0000 0.59130  0.99910  0.01160  Biso   1.000  O
  O90      1.0000 0.90870  0.00090  0.51160  Biso   1.000  O
  O91      1.0000 0.09130  0.50090  0.98840  Biso   1.000  O
  O92      1.0000 0.40870  0.49910  0.48840  Biso   1.000  O
  O93      1.0000 0.50240  0.05440  0.96070  Biso   1.000  O
  O94      1.0000 0.99760  0.94560  0.46070  Biso   1.000  O
  O95      1.0000 0.00240  0.44560  0.03930  Biso   1.000  O
  O96      1.0000 0.49760  0.55440  0.53930  Biso   1.000  O
  O97      1.0000 0.51470  0.67530  0.62080  Biso   1.000  O
  O98      1.0000 0.98530  0.32470  0.12080  Biso   1.000  O
  O99      1.0000 0.01470  0.82470  0.37920  Biso   1.000  O
  O100     1.0000 0.48530  0.17530  0.87920  Biso   1.000  O
  H33      1.0000 0.47210  0.68540  0.60490  Biso   1.000  H
  H34      1.0000 0.02790  0.31460  0.10490  Biso   1.000  H
  H35      1.0000 0.97210  0.81460  0.39510  Biso   1.000  H
  H36      1.0000 0.52790  0.18540  0.89510  Biso   1.000  H
  H37      1.0000 0.54120  0.65430  0.59300  Biso   1.000  H
  H38      1.0000 0.95880  0.34570  0.09300  Biso   1.000  H
  H39      1.0000 0.04120  0.84570  0.40700  Biso   1.000  H
  H40      1.0000 0.45880  0.15430  0.90700  Biso   1.000  H
  O101     1.0000 0.61630  0.74140  0.67590  Biso   1.000  O
  O102     1.0000 0.88370  0.25860  0.17590  Biso   1.000  O
  O103     1.0000 0.11630  0.75860  0.32410  Biso   1.000  O
  O104     1.0000 0.38370  0.24140  0.82410  Biso   1.000  O
  H41      1.0000 0.64180  0.77980  0.66610  Biso   1.000  H
  H42      1.0000 0.85820  0.22020  0.16610  Biso   1.000  H
  H43      1.0000 0.14180  0.72020  0.33390  Biso   1.000  H
  H44      1.0000 0.35820  0.27980  0.83390  Biso   1.000  H
  H45      1.0000 0.59530  0.75010  0.71070  Biso   1.000  H
  H46      1.0000 0.90470  0.24990  0.21070  Biso   1.000  H
  H47      1.0000 0.09530  0.74990  0.28930  Biso   1.000  H
  H48      1.0000 0.40470  0.25010  0.78930  Biso   1.000  H
  O105     1.0000 0.65950  0.29500  0.77550  Biso   1.000  O
  O106     1.0000 0.84050  0.70500  0.27550  Biso   1.000  O
  O107     1.0000 0.15950  0.20500  0.22450  Biso   1.000  O
  O108     1.0000 0.34050  0.79500  0.72450  Biso   1.000  O
  H49      1.0000 0.62880  0.30070  0.80550  Biso   1.000  H
  H50      1.0000 0.87120  0.69930  0.30550  Biso   1.000  H
  H51      1.0000 0.12880  0.19930  0.19450  Biso   1.000  H
  H52      1.0000 0.37120  0.80070  0.69450  Biso   1.000  H
  H53      1.0000 0.66790  0.24850  0.77170  Biso   1.000  H
  H54      1.0000 0.83210  0.75150  0.27170  Biso   1.000  H
  H55      1.0000 0.16790  0.25150  0.22830  Biso   1.000  H
  H56      1.0000 0.33210  0.74850  0.72830  Biso   1.000  H
  O109     1.0000 0.39260  0.77200  0.16900  Biso   1.000  O
  O110     1.0000 0.10740  0.22800  0.66900  Biso   1.000  O
  O111     1.0000 0.89260  0.72800  0.83100  Biso   1.000  O
  O112     1.0000 0.60740  0.27200  0.33100  Biso   1.000  O
  H57      1.0000 0.38140  0.73590  0.19300  Biso   1.000  H
  H58      1.0000 0.11860  0.26410  0.69300  Biso   1.000  H
  H59      1.0000 0.88140  0.76410  0.80700  Biso   1.000  H
  H60      1.0000 0.61860  0.23590  0.30700  Biso   1.000  H
  H61      1.0000 0.35180  0.79050  0.15550  Biso   1.000  H
  H62      1.0000 0.14820  0.20950  0.65550  Biso   1.000  H
  H63      1.0000 0.85180  0.70950  0.84450  Biso   1.000  H
  H64      1.0000 0.64820  0.29050  0.34450  Biso   1.000  H
  O113     1.0000 0.49380  0.88750  0.04680  Biso   1.000  O
  O114     1.0000 0.00620  0.11250  0.54680  Biso   1.000  O
  O115     1.0000 0.99380  0.61250  0.95320  Biso   1.000  O
  O116     1.0000 0.50620  0.38750  0.45320  Biso   1.000  O
  H65      1.0000 0.50950  0.85890  0.01800  Biso   1.000  H
  H66      1.0000 0.99050  0.14110  0.51800  Biso   1.000  H
  H67      1.0000 0.00950  0.64110  0.98200  Biso   1.000  H
  H68      1.0000 0.49050  0.35890  0.48200  Biso   1.000  H
  H69      1.0000 0.51980  0.92730  0.04570  Biso   1.000  H
  H70      1.0000 0.98020  0.07270  0.54570  Biso   1.000  H
  H71      1.0000 0.01980  0.57270  0.95430  Biso   1.000  H
  H72      1.0000 0.48020  0.42730  0.45430  Biso   1.000  H
  O117     1.0000 0.54060  0.77560  0.12670  Biso   1.000  O
  O118     1.0000 0.95940  0.22440  0.62670  Biso   1.000  O
  O119     1.0000 0.04060  0.72440  0.87330  Biso   1.000  O
  O120     1.0000 0.45940  0.27560  0.37330  Biso   1.000  O
  H73      1.0000 0.57510  0.74940  0.14300  Biso   1.000  H
  H74      1.0000 0.92490  0.25060  0.64300  Biso   1.000  H
  H75      1.0000 0.07510  0.75060  0.85700  Biso   1.000  H
  H76      1.0000 0.42490  0.24940  0.35700  Biso   1.000  H
  H77      1.0000 0.53370  0.81350  0.14980  Biso   1.000  H
  H78      1.0000 0.96630  0.18650  0.64980  Biso   1.000  H
  H79      1.0000 0.03370  0.68650  0.85020  Biso   1.000  H
  H80      1.0000 0.46630  0.31350  0.35020  Biso   1.000  H
  N1       1.0000 0.20150  0.96720  0.04660  Biso   1.000  N
  N2       1.0000 0.29850  0.03280  0.54660  Biso   1.000  N
  N3       1.0000 0.70150  0.53280  0.95340  Biso   1.000  N
  N4       1.0000 0.79850  0.46720  0.45340  Biso   1.000  N
  N5       1.0000 0.31600  0.80280  0.96550  Biso   1.000  N
  N6       1.0000 0.18400  0.19720  0.46550  Biso   1.000  N
  N7       1.0000 0.81600  0.69720  0.03450  Biso   1.000  N
  N8       1.0000 0.68400  0.30280  0.53450  Biso   1.000  N
  N9       1.0000 0.55720  0.56290  0.79780  Biso   1.000  N
  N10      1.0000 0.94280  0.43710  0.29780  Biso   1.000  N
  N11      1.0000 0.05720  0.93710  0.20220  Biso   1.000  N
  N12      1.0000 0.44280  0.06290  0.70220  Biso   1.000  N
  N13      1.0000 0.71120  0.43330  0.71320  Biso   1.000  N
  N14      1.0000 0.78880  0.56670  0.21320  Biso   1.000  N
  N15      1.0000 0.21120  0.06670  0.28680  Biso   1.000  N
  N16      1.0000 0.28880  0.93330  0.78680  Biso   1.000  N
  H81      1.0000 0.69480  0.38580  0.71580  Biso   1.000  H
  H82      1.0000 0.80520  0.61420  0.21580  Biso   1.000  H
  H83      1.0000 0.19480  0.11420  0.28420  Biso   1.000  H
  H84      1.0000 0.30520  0.88580  0.78420  Biso   1.000  H
  H85      1.0000 0.71650  0.44480  0.67270  Biso   1.000  H
  H86      1.0000 0.78350  0.55520  0.17270  Biso   1.000  H
  H87      1.0000 0.21650  0.05520  0.32730  Biso   1.000  H
  H88      1.0000 0.28350  0.94480  0.82730  Biso   1.000  H
  N17      1.0000 0.94790  0.55600  0.20810  Biso   1.000  N
  N18      1.0000 0.55210  0.44400  0.70810  Biso   1.000  N
  N19      1.0000 0.44790  0.94400  0.79190  Biso   1.000  N
  N20      1.0000 0.05210  0.05600  0.29190  Biso   1.000  N
  N21      1.0000 0.20180  0.80420  0.06070  Biso   1.000  N
  N22      1.0000 0.29820  0.19580  0.56070  Biso   1.000  N
  N23      1.0000 0.70180  0.69580  0.93930  Biso   1.000  N
  N24      1.0000 0.79820  0.30420  0.43930  Biso   1.000  N
  N25      1.0000 0.21510  0.52520  0.67890  Biso   1.000  N
  N26      1.0000 0.28490  0.47480  0.17890  Biso   1.000  N
  N27      1.0000 0.71510  0.97480  0.32110  Biso   1.000  N
  N28      1.0000 0.78490  0.02520  0.82110  Biso   1.000  N
  H89      1.0000 0.20760  0.52080  0.63770  Biso   1.000  H
  H90      1.0000 0.29240  0.47920  0.13770  Biso   1.000  H
  H91      1.0000 0.70760  0.97920  0.36230  Biso   1.000  H
  H92      1.0000 0.79240  0.02080  0.86230  Biso   1.000  H
  H93      1.0000 0.21510  0.57410  0.68870  Biso   1.000  H
  H94      1.0000 0.28490  0.42590  0.18870  Biso   1.000  H
  H95      1.0000 0.71510  0.92590  0.31130  Biso   1.000  H
  H96      1.0000 0.78490  0.07410  0.81130  Biso   1.000  H
  N29      1.0000 0.06070  0.41900  0.77850  Biso   1.000  N
  N30      1.0000 0.43930  0.58100  0.27850  Biso   1.000  N
  N31      1.0000 0.56070  0.08100  0.22150  Biso   1.000  N
  N32      1.0000 0.93930  0.91900  0.72150  Biso   1.000  N
  N33      1.0000 0.82960  0.19860  0.97330  Biso   1.000  N
  N34      1.0000 0.67040  0.80140  0.47330  Biso   1.000  N
  N35      1.0000 0.32960  0.30140  0.02670  Biso   1.000  N
  N36      1.0000 0.17040  0.69860  0.52670  Biso   1.000  N
  N37      1.0000 0.73110  0.03890  0.07310  Biso   1.000  N
  N38      1.0000 0.76890  0.96110  0.57310  Biso   1.000  N
  N39      1.0000 0.23110  0.46110  0.92690  Biso   1.000  N
  N40      1.0000 0.26890  0.53890  0.42690  Biso   1.000  N
  H97      1.0000 0.73400  0.04660  0.11440  Biso   1.000  H
  H98      1.0000 0.76600  0.95340  0.61440  Biso   1.000  H
  H99      1.0000 0.23400  0.45340  0.88560  Biso   1.000  H
  H100     1.0000 0.26600  0.54660  0.38560  Biso   1.000  H
  H101     1.0000 0.68240  0.03410  0.06260  Biso   1.000  H
  H102     1.0000 0.81760  0.96590  0.56260  Biso   1.000  H
  H103     1.0000 0.18240  0.46590  0.93740  Biso   1.000  H
  H104     1.0000 0.31760  0.53410  0.43740  Biso   1.000  H
  N41      1.0000 0.78760  0.79760  0.56880  Biso   1.000  N
  N42      1.0000 0.71240  0.20240  0.06880  Biso   1.000  N
  N43      1.0000 0.28760  0.70240  0.43120  Biso   1.000  N
  N44      1.0000 0.21240  0.29760  0.93120  Biso   1.000  N
  N45      1.0000 0.05120  0.53610  0.68800  Biso   1.000  N
  N46      1.0000 0.44880  0.46390  0.18800  Biso   1.000  N
  N47      1.0000 0.55120  0.96390  0.31200  Biso   1.000  N
  N48      1.0000 0.94880  0.03610  0.81200  Biso   1.000  N
  N49      1.0000 0.56740  0.05260  0.97960  Biso   1.000  N
  N50      1.0000 0.93260  0.94740  0.47960  Biso   1.000  N
  N51      1.0000 0.06740  0.44740  0.02040  Biso   1.000  N
  N52      1.0000 0.43260  0.55260  0.52040  Biso   1.000  N
  N53      1.0000 0.18750  0.68470  0.77560  Biso   1.000  N
  N54      1.0000 0.31250  0.31530  0.27560  Biso   1.000  N
  N55      1.0000 0.68750  0.81530  0.22440  Biso   1.000  N
  N56      1.0000 0.81250  0.18470  0.72440  Biso   1.000  N
  N57      1.0000 0.06870  0.89010  0.94200  Biso   1.000  N
  N58      1.0000 0.43130  0.10990  0.44200  Biso   1.000  N
  N59      1.0000 0.56870  0.60990  0.05800  Biso   1.000  N
  N60      1.0000 0.93130  0.39010  0.55800  Biso   1.000  N
  N61      1.0000 0.57030  0.35600  0.89960  Biso   1.000  N
  N62      1.0000 0.92970  0.64400  0.39960  Biso   1.000  N
  N63      1.0000 0.07030  0.14400  0.10040  Biso   1.000  N
  N64      1.0000 0.42970  0.85600  0.60040  Biso   1.000  N
  C1       1.0000 0.27710  0.08360  0.04690  Biso   1.000  C
  C2       1.0000 0.22290  0.91640  0.54690  Biso   1.000  C
  C3       1.0000 0.77710  0.41640  0.95310  Biso   1.000  C
  C4       1.0000 0.72290  0.58360  0.45310  Biso   1.000  C
  H105     1.0000 0.25790  0.09550  0.08750  Biso   1.000  H
  H106     1.0000 0.24210  0.90450  0.58750  Biso   1.000  H
  H107     1.0000 0.75790  0.40450  0.91250  Biso   1.000  H
  H108     1.0000 0.74210  0.59550  0.41250  Biso   1.000  H
  H109     1.0000 0.28680  0.12900  0.02450  Biso   1.000  H
  H110     1.0000 0.21320  0.87100  0.52450  Biso   1.000  H
  H111     1.0000 0.78680  0.37100  0.97550  Biso   1.000  H
  H112     1.0000 0.71320  0.62900  0.47550  Biso   1.000  H
  H113     1.0000 0.32290  0.05580  0.05100  Biso   1.000  H
  H114     1.0000 0.17710  0.94420  0.55100  Biso   1.000  H
  H115     1.0000 0.82290  0.44420  0.94900  Biso   1.000  H
  H116     1.0000 0.67710  0.55580  0.44900  Biso   1.000  H
  C5       1.0000 0.21980  0.03740  0.01190  Biso   1.000  C
  C6       1.0000 0.28020  0.96260  0.51190  Biso   1.000  C
  C7       1.0000 0.71980  0.46260  0.98810  Biso   1.000  C
  C8       1.0000 0.78020  0.53740  0.48810  Biso   1.000  C
  H117     1.0000 0.17380  0.06680  0.00640  Biso   1.000  H
  H118     1.0000 0.32620  0.93320  0.50640  Biso   1.000  H
  H119     1.0000 0.67380  0.43320  0.99360  Biso   1.000  H
  H120     1.0000 0.82620  0.56680  0.49360  Biso   1.000  H
  C9       1.0000 0.25190  0.01730  0.94840  Biso   1.000  C
  C10      1.0000 0.24810  0.98270  0.44840  Biso   1.000  C
  C11      1.0000 0.75190  0.48270  0.05160  Biso   1.000  C
  C12      1.0000 0.74810  0.51730  0.55160  Biso   1.000  C
  C13      1.0000 0.36890  0.76060  0.99320  Biso   1.000  C
  C14      1.0000 0.13110  0.23940  0.49320  Biso   1.000  C
  C15      1.0000 0.86890  0.73940  0.00680  Biso   1.000  C
  C16      1.0000 0.63110  0.26060  0.50680  Biso   1.000  C
  H121     1.0000 0.37480  0.76480  0.03600  Biso   1.000  H
  H122     1.0000 0.12520  0.23520  0.53600  Biso   1.000  H
  H123     1.0000 0.87480  0.73520  0.96400  Biso   1.000  H
  H124     1.0000 0.62520  0.26480  0.46400  Biso   1.000  H
  C17      1.0000 0.41400  0.71220  0.96230  Biso   1.000  C
  C18      1.0000 0.08600  0.28780  0.46230  Biso   1.000  C
  C19      1.0000 0.91400  0.78780  0.03770  Biso   1.000  C
  C20      1.0000 0.58600  0.21220  0.53770  Biso   1.000  C
  H125     1.0000 0.45020  0.68480  0.98370  Biso   1.000  H
  H126     1.0000 0.04980  0.31520  0.48370  Biso   1.000  H
  H127     1.0000 0.95020  0.81520  0.01630  Biso   1.000  H
  H128     1.0000 0.54980  0.18480  0.51630  Biso   1.000  H
  C21      1.0000 0.40580  0.70380  0.89790  Biso   1.000  C
  C22      1.0000 0.09420  0.29620  0.39790  Biso   1.000  C
  C23      1.0000 0.90580  0.79620  0.10210  Biso   1.000  C
  C24      1.0000 0.59420  0.20380  0.60210  Biso   1.000  C
  C25      1.0000 0.34900  0.74490  0.86850  Biso   1.000  C
  C26      1.0000 0.15100  0.25510  0.36850  Biso   1.000  C
  C27      1.0000 0.84900  0.75510  0.13150  Biso   1.000  C
  C28      1.0000 0.65100  0.24490  0.63150  Biso   1.000  C
  H129     1.0000 0.34050  0.73970  0.82610  Biso   1.000  H
  H130     1.0000 0.15950  0.26030  0.32610  Biso   1.000  H
  H131     1.0000 0.84050  0.76030  0.17390  Biso   1.000  H
  H132     1.0000 0.65950  0.23970  0.67390  Biso   1.000  H
  C29      1.0000 0.30610  0.79290  0.90330  Biso   1.000  C
  C30      1.0000 0.19390  0.20710  0.40330  Biso   1.000  C
  C31      1.0000 0.80610  0.70710  0.09670  Biso   1.000  C
  C32      1.0000 0.69390  0.29290  0.59670  Biso   1.000  C
  H133     1.0000 0.26850  0.82000  0.88340  Biso   1.000  H
  H134     1.0000 0.23150  0.18000  0.38340  Biso   1.000  H
  H135     1.0000 0.76850  0.68000  0.11660  Biso   1.000  H
  H136     1.0000 0.73150  0.32000  0.61660  Biso   1.000  H
  C33      1.0000 0.45580  0.65170  0.86260  Biso   1.000  C
  C34      1.0000 0.04420  0.34830  0.36260  Biso   1.000  C
  C35      1.0000 0.95580  0.84830  0.13740  Biso   1.000  C
  C36      1.0000 0.54420  0.15170  0.63740  Biso   1.000  C
  C37      1.0000 0.49360  0.59450  0.89050  Biso   1.000  C
  C38      1.0000 0.00640  0.40550  0.39050  Biso   1.000  C
  C39      1.0000 0.99360  0.90550  0.10950  Biso   1.000  C
  C40      1.0000 0.50640  0.09450  0.60950  Biso   1.000  C
  H137     1.0000 0.48540  0.58430  0.93230  Biso   1.000  H
  H138     1.0000 0.01460  0.41570  0.43230  Biso   1.000  H
  H139     1.0000 0.98540  0.91570  0.06770  Biso   1.000  H
  H140     1.0000 0.51460  0.08430  0.56770  Biso   1.000  H
  C41      1.0000 0.54310  0.55210  0.85770  Biso   1.000  C
  C42      1.0000 0.95690  0.44790  0.35770  Biso   1.000  C
  C43      1.0000 0.04310  0.94790  0.14230  Biso   1.000  C
  C44      1.0000 0.45690  0.05210  0.64230  Biso   1.000  C
  H141     1.0000 0.56830  0.51370  0.87820  Biso   1.000  H
  H142     1.0000 0.93170  0.48630  0.37820  Biso   1.000  H
  H143     1.0000 0.06830  0.98630  0.12180  Biso   1.000  H
  H144     1.0000 0.43170  0.01370  0.62180  Biso   1.000  H
  C45      1.0000 0.51780  0.61630  0.76790  Biso   1.000  C
  C46      1.0000 0.98220  0.38370  0.26790  Biso   1.000  C
  C47      1.0000 0.01780  0.88370  0.23210  Biso   1.000  C
  C48      1.0000 0.48220  0.11630  0.73210  Biso   1.000  C
  H145     1.0000 0.52480  0.62240  0.72530  Biso   1.000  H
  H146     1.0000 0.97520  0.37760  0.22530  Biso   1.000  H
  H147     1.0000 0.02480  0.87760  0.27470  Biso   1.000  H
  H148     1.0000 0.47520  0.12240  0.77470  Biso   1.000  H
  C49      1.0000 0.46770  0.66210  0.79820  Biso   1.000  C
  C50      1.0000 0.03230  0.33790  0.29820  Biso   1.000  C
  C51      1.0000 0.96770  0.83790  0.20180  Biso   1.000  C
  C52      1.0000 0.53230  0.16210  0.70180  Biso   1.000  C
  H149     1.0000 0.44210  0.69940  0.77670  Biso   1.000  H
  H150     1.0000 0.05790  0.30060  0.27670  Biso   1.000  H
  H151     1.0000 0.94210  0.80060  0.22330  Biso   1.000  H
  H152     1.0000 0.55790  0.19940  0.72330  Biso   1.000  H
  C53      1.0000 0.84790  0.45490  0.69900  Biso   1.000  C
  C54      1.0000 0.65210  0.54510  0.19900  Biso   1.000  C
  C55      1.0000 0.34790  0.04510  0.30100  Biso   1.000  C
  C56      1.0000 0.15210  0.95490  0.80100  Biso   1.000  C
  H153     1.0000 0.85140  0.41420  0.67010  Biso   1.000  H
  H154     1.0000 0.64860  0.58580  0.17010  Biso   1.000  H
  H155     1.0000 0.35140  0.08580  0.32990  Biso   1.000  H
  H156     1.0000 0.14860  0.91420  0.82990  Biso   1.000  H
  H157     1.0000 0.89470  0.46000  0.72090  Biso   1.000  H
  H158     1.0000 0.60530  0.54000  0.22090  Biso   1.000  H
  H159     1.0000 0.39470  0.04000  0.27910  Biso   1.000  H
  H160     1.0000 0.10530  0.96000  0.77910  Biso   1.000  H
  H161     1.0000 0.83730  0.50030  0.67690  Biso   1.000  H
  H162     1.0000 0.66270  0.49970  0.17690  Biso   1.000  H
  H163     1.0000 0.33730  0.99970  0.32310  Biso   1.000  H
  H164     1.0000 0.16270  0.00030  0.82310  Biso   1.000  H
  C57      1.0000 0.78570  0.43960  0.74480  Biso   1.000  C
  C58      1.0000 0.71430  0.56040  0.24480  Biso   1.000  C
  C59      1.0000 0.28570  0.06040  0.25520  Biso   1.000  C
  C60      1.0000 0.21430  0.93960  0.75520  Biso   1.000  C
  H165     1.0000 0.79620  0.39110  0.76420  Biso   1.000  H
  H166     1.0000 0.70380  0.60890  0.26420  Biso   1.000  H
  H167     1.0000 0.29620  0.10890  0.23580  Biso   1.000  H
  H168     1.0000 0.20380  0.89110  0.73580  Biso   1.000  H
  C61      1.0000 0.78180  0.49680  0.79610  Biso   1.000  C
  C62      1.0000 0.71820  0.50320  0.29610  Biso   1.000  C
  C63      1.0000 0.28180  0.00320  0.20390  Biso   1.000  C
  C64      1.0000 0.21820  0.99680  0.70390  Biso   1.000  C
  C65      1.0000 0.99750  0.59520  0.24150  Biso   1.000  C
  C66      1.0000 0.50250  0.40480  0.74150  Biso   1.000  C
  C67      1.0000 0.49750  0.90480  0.75850  Biso   1.000  C
  C68      1.0000 0.00250  0.09520  0.25850  Biso   1.000  C
  H169     1.0000 0.99760  0.58940  0.28440  Biso   1.000  H
  H170     1.0000 0.50240  0.41060  0.78440  Biso   1.000  H
  H171     1.0000 0.49760  0.91060  0.71560  Biso   1.000  H
  H172     1.0000 0.00240  0.08940  0.21560  Biso   1.000  H
  C69      1.0000 0.04840  0.64410  0.21530  Biso   1.000  C
  C70      1.0000 0.45160  0.35590  0.71530  Biso   1.000  C
  C71      1.0000 0.54840  0.85590  0.78470  Biso   1.000  C
  C72      1.0000 0.95160  0.14410  0.28470  Biso   1.000  C
  H173     1.0000 0.08150  0.67090  0.24020  Biso   1.000  H
  H174     1.0000 0.41850  0.32910  0.74020  Biso   1.000  H
  H175     1.0000 0.58150  0.82910  0.75980  Biso   1.000  H
  H176     1.0000 0.91850  0.17090  0.25980  Biso   1.000  H
  C73      1.0000 0.04950  0.65270  0.15080  Biso   1.000  C
  C74      1.0000 0.45050  0.34730  0.65080  Biso   1.000  C
  C75      1.0000 0.54950  0.84730  0.84920  Biso   1.000  C
  C76      1.0000 0.95050  0.15270  0.34920  Biso   1.000  C
  C77      1.0000 0.99910  0.61230  0.11610  Biso   1.000  C
  C78      1.0000 0.50090  0.38770  0.61610  Biso   1.000  C
  C79      1.0000 0.49910  0.88770  0.88390  Biso   1.000  C
  C80      1.0000 0.00090  0.11230  0.38390  Biso   1.000  C
  H177     1.0000 0.99820  0.61680  0.07310  Biso   1.000  H
  H178     1.0000 0.50180  0.38320  0.57310  Biso   1.000  H
  H179     1.0000 0.49820  0.88320  0.92690  Biso   1.000  H
  H180     1.0000 0.00180  0.11680  0.42690  Biso   1.000  H
  C81      1.0000 0.94940  0.56470  0.14630  Biso   1.000  C
  C82      1.0000 0.55060  0.43530  0.64630  Biso   1.000  C
  C83      1.0000 0.44940  0.93530  0.85370  Biso   1.000  C
  C84      1.0000 0.05060  0.06470  0.35370  Biso   1.000  C
  H181     1.0000 0.91540  0.53760  0.12230  Biso   1.000  H
  H182     1.0000 0.58460  0.46240  0.62230  Biso   1.000  H
  H183     1.0000 0.41540  0.96240  0.87770  Biso   1.000  H
  H184     1.0000 0.08460  0.03760  0.37770  Biso   1.000  H
  C85      1.0000 0.14290  0.75930  0.15460  Biso   1.000  C
  C86      1.0000 0.35710  0.24070  0.65460  Biso   1.000  C
  C87      1.0000 0.64290  0.74070  0.84540  Biso   1.000  C
  C88      1.0000 0.85710  0.25930  0.34540  Biso   1.000  C
  H185     1.0000 0.13680  0.76320  0.19740  Biso   1.000  H
  H186     1.0000 0.36320  0.23680  0.69740  Biso   1.000  H
  H187     1.0000 0.63680  0.73680  0.80260  Biso   1.000  H
  H188     1.0000 0.86320  0.26320  0.30260  Biso   1.000  H
  C89      1.0000 0.10440  0.70480  0.12070  Biso   1.000  C
  C90      1.0000 0.39560  0.29520  0.62070  Biso   1.000  C
  C91      1.0000 0.60440  0.79520  0.87930  Biso   1.000  C
  C92      1.0000 0.89560  0.20480  0.37930  Biso   1.000  C
  C93      1.0000 0.11840  0.69940  0.05770  Biso   1.000  C
  C94      1.0000 0.38160  0.30060  0.55770  Biso   1.000  C
  C95      1.0000 0.61840  0.80060  0.94230  Biso   1.000  C
  C96      1.0000 0.88160  0.19940  0.44230  Biso   1.000  C
  H189     1.0000 0.09560  0.66230  0.03390  Biso   1.000  H
  H190     1.0000 0.40440  0.33770  0.53390  Biso   1.000  H
  H191     1.0000 0.59560  0.83770  0.96610  Biso   1.000  H
  H192     1.0000 0.90440  0.16230  0.46610  Biso   1.000  H
  C97      1.0000 0.16730  0.75040  0.03060  Biso   1.000  C
  C98      1.0000 0.33270  0.24960  0.53060  Biso   1.000  C
  C99      1.0000 0.66730  0.74960  0.96940  Biso   1.000  C
  C100     1.0000 0.83270  0.25040  0.46940  Biso   1.000  C
  H193     1.0000 0.17630  0.74610  0.98820  Biso   1.000  H
  H194     1.0000 0.32370  0.25390  0.48820  Biso   1.000  H
  H195     1.0000 0.67630  0.75390  0.01180  Biso   1.000  H
  H196     1.0000 0.82370  0.24610  0.51180  Biso   1.000  H
  C101     1.0000 0.19030  0.80740  0.12280  Biso   1.000  C
  C102     1.0000 0.30970  0.19260  0.62280  Biso   1.000  C
  C103     1.0000 0.69030  0.69260  0.87720  Biso   1.000  C
  C104     1.0000 0.80970  0.30740  0.37720  Biso   1.000  C
  H197     1.0000 0.21560  0.84390  0.14540  Biso   1.000  H
  H198     1.0000 0.28440  0.15610  0.64540  Biso   1.000  H
  H199     1.0000 0.71560  0.65610  0.85460  Biso   1.000  H
  H200     1.0000 0.78440  0.34390  0.35460  Biso   1.000  H
  C105     1.0000 0.35490  0.54080  0.68250  Biso   1.000  C
  C106     1.0000 0.14510  0.45920  0.18250  Biso   1.000  C
  C107     1.0000 0.85490  0.95920  0.31750  Biso   1.000  C
  C108     1.0000 0.64510  0.04080  0.81750  Biso   1.000  C
  H201     1.0000 0.35480  0.55370  0.63920  Biso   1.000  H
  H202     1.0000 0.14520  0.44630  0.13920  Biso   1.000  H
  H203     1.0000 0.85480  0.94630  0.36080  Biso   1.000  H
  H204     1.0000 0.64520  0.05370  0.86080  Biso   1.000  H
  H205     1.0000 0.40060  0.51490  0.69250  Biso   1.000  H
  H206     1.0000 0.09940  0.48510  0.19250  Biso   1.000  H
  H207     1.0000 0.90060  0.98510  0.30750  Biso   1.000  H
  H208     1.0000 0.59940  0.01490  0.80750  Biso   1.000  H
  H209     1.0000 0.35140  0.58540  0.70710  Biso   1.000  H
  H210     1.0000 0.14860  0.41460  0.20710  Biso   1.000  H
  H211     1.0000 0.85140  0.91460  0.29290  Biso   1.000  H
  H212     1.0000 0.64860  0.08540  0.79290  Biso   1.000  H
  C109     1.0000 0.28870  0.49100  0.69630  Biso   1.000  C
  C110     1.0000 0.21130  0.50900  0.19630  Biso   1.000  C
  C111     1.0000 0.78870  0.00900  0.30370  Biso   1.000  C
  C112     1.0000 0.71130  0.99100  0.80370  Biso   1.000  C
  H213     1.0000 0.29460  0.44540  0.67160  Biso   1.000  H
  H214     1.0000 0.20540  0.55460  0.17160  Biso   1.000  H
  H215     1.0000 0.79460  0.05460  0.32840  Biso   1.000  H
  H216     1.0000 0.70540  0.94540  0.82840  Biso   1.000  H
  C113     1.0000 0.28280  0.46750  0.76520  Biso   1.000  C
  C114     1.0000 0.21720  0.53250  0.26520  Biso   1.000  C
  C115     1.0000 0.78280  0.03250  0.23480  Biso   1.000  C
  C116     1.0000 0.71720  0.96750  0.73480  Biso   1.000  C
  C117     1.0000 0.05140  0.43530  0.83930  Biso   1.000  C
  C118     1.0000 0.44860  0.56470  0.33930  Biso   1.000  C
  C119     1.0000 0.55140  0.06470  0.16070  Biso   1.000  C
  C120     1.0000 0.94860  0.93530  0.66070  Biso   1.000  C
  H217     1.0000 0.07900  0.47450  0.85610  Biso   1.000  H
  H218     1.0000 0.42100  0.52550  0.35610  Biso   1.000  H
  H219     1.0000 0.57900  0.02550  0.14390  Biso   1.000  H
  H220     1.0000 0.92100  0.97450  0.64390  Biso   1.000  H
  C121     1.0000 0.00410  0.39740  0.87700  Biso   1.000  C
  C122     1.0000 0.49590  0.60260  0.37700  Biso   1.000  C
  C123     1.0000 0.50410  0.10260  0.12300  Biso   1.000  C
  C124     1.0000 0.99590  0.89740  0.62300  Biso   1.000  C
  H221     1.0000 0.99930  0.41140  0.91850  Biso   1.000  H
  H222     1.0000 0.50070  0.58860  0.41850  Biso   1.000  H
  H223     1.0000 0.49930  0.08860  0.08150  Biso   1.000  H
  H224     1.0000 0.00070  0.91140  0.58150  Biso   1.000  H
  C125     1.0000 0.96210  0.33690  0.85380  Biso   1.000  C
  C126     1.0000 0.53790  0.66310  0.35380  Biso   1.000  C
  C127     1.0000 0.46210  0.16310  0.14620  Biso   1.000  C
  C128     1.0000 0.03790  0.83690  0.64620  Biso   1.000  C
  C129     1.0000 0.97020  0.32120  0.79120  Biso   1.000  C
  C130     1.0000 0.52980  0.67880  0.29120  Biso   1.000  C
  C131     1.0000 0.47020  0.17880  0.20880  Biso   1.000  C
  C132     1.0000 0.02980  0.82120  0.70880  Biso   1.000  C
  H225     1.0000 0.94330  0.28220  0.77330  Biso   1.000  H
  H226     1.0000 0.55670  0.71780  0.27330  Biso   1.000  H
  H227     1.0000 0.44330  0.21780  0.22670  Biso   1.000  H
  H228     1.0000 0.05670  0.78220  0.72670  Biso   1.000  H
  C133     1.0000 0.01820  0.36350  0.75540  Biso   1.000  C
  C134     1.0000 0.48180  0.63650  0.25540  Biso   1.000  C
  C135     1.0000 0.51820  0.13650  0.24460  Biso   1.000  C
  C136     1.0000 0.98180  0.86350  0.74460  Biso   1.000  C
  H229     1.0000 0.02150  0.35310  0.71320  Biso   1.000  H
  H230     1.0000 0.47850  0.64690  0.21320  Biso   1.000  H
  H231     1.0000 0.52150  0.14690  0.28680  Biso   1.000  H
  H232     1.0000 0.97850  0.85310  0.78680  Biso   1.000  H
  C137     1.0000 0.91540  0.29090  0.89590  Biso   1.000  C
  C138     1.0000 0.58460  0.70910  0.39590  Biso   1.000  C
  C139     1.0000 0.41540  0.20910  0.10410  Biso   1.000  C
  C140     1.0000 0.08460  0.79090  0.60410  Biso   1.000  C
  C141     1.0000 0.85310  0.25070  0.87340  Biso   1.000  C
  C142     1.0000 0.64690  0.74930  0.37340  Biso   1.000  C
  C143     1.0000 0.35310  0.24930  0.12660  Biso   1.000  C
  C144     1.0000 0.14690  0.75070  0.62660  Biso   1.000  C
  H233     1.0000 0.83930  0.25440  0.83180  Biso   1.000  H
  H234     1.0000 0.66070  0.74560  0.33180  Biso   1.000  H
  H235     1.0000 0.33930  0.24560  0.16820  Biso   1.000  H
  H236     1.0000 0.16070  0.75440  0.66820  Biso   1.000  H
  C145     1.0000 0.81280  0.20590  0.91300  Biso   1.000  C
  C146     1.0000 0.68720  0.79410  0.41300  Biso   1.000  C
  C147     1.0000 0.31280  0.29410  0.08700  Biso   1.000  C
  C148     1.0000 0.18720  0.70590  0.58700  Biso   1.000  C
  H237     1.0000 0.77200  0.17950  0.89730  Biso   1.000  H
  H238     1.0000 0.72800  0.82050  0.39730  Biso   1.000  H
  H239     1.0000 0.27200  0.32050  0.10270  Biso   1.000  H
  H240     1.0000 0.22800  0.67950  0.60270  Biso   1.000  H
  C149     1.0000 0.88690  0.23820  0.99550  Biso   1.000  C
  C150     1.0000 0.61310  0.76180  0.49550  Biso   1.000  C
  C151     1.0000 0.38690  0.26180  0.00450  Biso   1.000  C
  C152     1.0000 0.11310  0.73820  0.50450  Biso   1.000  C
  H241     1.0000 0.89760  0.23510  0.03770  Biso   1.000  H
  H242     1.0000 0.60240  0.76490  0.53770  Biso   1.000  H
  H243     1.0000 0.39760  0.26490  0.96230  Biso   1.000  H
  H244     1.0000 0.10240  0.73510  0.46230  Biso   1.000  H
  C153     1.0000 0.93140  0.28420  0.95860  Biso   1.000  C
  C154     1.0000 0.56860  0.71580  0.45860  Biso   1.000  C
  C155     1.0000 0.43140  0.21580  0.04140  Biso   1.000  C
  C156     1.0000 0.06860  0.78420  0.54140  Biso   1.000  C
  H245     1.0000 0.97150  0.31020  0.97590  Biso   1.000  H
  H246     1.0000 0.52850  0.68980  0.47590  Biso   1.000  H
  H247     1.0000 0.47150  0.18980  0.02410  Biso   1.000  H
  H248     1.0000 0.02850  0.81020  0.52410  Biso   1.000  H
  C157     1.0000 0.73200  0.89950  0.07000  Biso   1.000  C
  C158     1.0000 0.76800  0.10050  0.57000  Biso   1.000  C
  C159     1.0000 0.23200  0.60050  0.93000  Biso   1.000  C
  C160     1.0000 0.26800  0.39950  0.43000  Biso   1.000  C
  H249     1.0000 0.72390  0.89590  0.11400  Biso   1.000  H
  H250     1.0000 0.77610  0.10410  0.61400  Biso   1.000  H
  H251     1.0000 0.22390  0.60410  0.88600  Biso   1.000  H
  H252     1.0000 0.27610  0.39590  0.38600  Biso   1.000  H
  H253     1.0000 0.76130  0.85760  0.05620  Biso   1.000  H
  H254     1.0000 0.73870  0.14240  0.55620  Biso   1.000  H
  H255     1.0000 0.26130  0.64240  0.94380  Biso   1.000  H
  H256     1.0000 0.23870  0.35760  0.44380  Biso   1.000  H
  H257     1.0000 0.68440  0.89960  0.04890  Biso   1.000  H
  H258     1.0000 0.81560  0.10040  0.54890  Biso   1.000  H
  H259     1.0000 0.18440  0.60040  0.95110  Biso   1.000  H
  H260     1.0000 0.31560  0.39960  0.45110  Biso   1.000  H
  C161     1.0000 0.77340  0.97090  0.05560  Biso   1.000  C
  C162     1.0000 0.72660  0.02910  0.55560  Biso   1.000  C
  C163     1.0000 0.27340  0.52910  0.94440  Biso   1.000  C
  C164     1.0000 0.22660  0.47090  0.44440  Biso   1.000  C
  H261     1.0000 0.81990  0.97050  0.08010  Biso   1.000  H
  H262     1.0000 0.68010  0.02950  0.58010  Biso   1.000  H
  H263     1.0000 0.31990  0.52950  0.91990  Biso   1.000  H
  H264     1.0000 0.18010  0.47050  0.41990  Biso   1.000  H
  C165     1.0000 0.79600  0.97760  0.98720  Biso   1.000  C
  C166     1.0000 0.70400  0.02240  0.48720  Biso   1.000  C
  C167     1.0000 0.29600  0.52240  0.01280  Biso   1.000  C
  C168     1.0000 0.20400  0.47760  0.51280  Biso   1.000  C
  C169     1.0000 0.79500  0.78750  0.62950  Biso   1.000  C
  C170     1.0000 0.70500  0.21250  0.12950  Biso   1.000  C
  C171     1.0000 0.29500  0.71250  0.37050  Biso   1.000  C
  C172     1.0000 0.20500  0.28750  0.87050  Biso   1.000  C
  H265     1.0000 0.76600  0.81650  0.65630  Biso   1.000  H
  H266     1.0000 0.73400  0.18350  0.15630  Biso   1.000  H
  H267     1.0000 0.26600  0.68350  0.34370  Biso   1.000  H
  H268     1.0000 0.23400  0.31650  0.84370  Biso   1.000  H
  C173     1.0000 0.83230  0.75640  0.53160  Biso   1.000  C
  C174     1.0000 0.66770  0.24360  0.03160  Biso   1.000  C
  C175     1.0000 0.33230  0.74360  0.46840  Biso   1.000  C
  C176     1.0000 0.16770  0.25640  0.96840  Biso   1.000  C
  H269     1.0000 0.82850  0.76330  0.48880  Biso   1.000  H
  H270     1.0000 0.67150  0.23670  0.98880  Biso   1.000  H
  H271     1.0000 0.32850  0.73670  0.51120  Biso   1.000  H
  H272     1.0000 0.17150  0.26330  0.01120  Biso   1.000  H
  C177     1.0000 0.88250  0.70530  0.55320  Biso   1.000  C
  C178     1.0000 0.61750  0.29470  0.05320  Biso   1.000  C
  C179     1.0000 0.38250  0.79470  0.44680  Biso   1.000  C
  C180     1.0000 0.11750  0.20530  0.94680  Biso   1.000  C
  H273     1.0000 0.91190  0.67840  0.52530  Biso   1.000  H
  H274     1.0000 0.58810  0.32160  0.02530  Biso   1.000  H
  H275     1.0000 0.41190  0.82160  0.47470  Biso   1.000  H
  H276     1.0000 0.08810  0.17840  0.97470  Biso   1.000  H
  C181     1.0000 0.89000  0.69340  0.61600  Biso   1.000  C
  C182     1.0000 0.61000  0.30660  0.11600  Biso   1.000  C
  C183     1.0000 0.39000  0.80660  0.38400  Biso   1.000  C
  C184     1.0000 0.11000  0.19340  0.88400  Biso   1.000  C
  C185     1.0000 0.84420  0.73540  0.65500  Biso   1.000  C
  C186     1.0000 0.65580  0.26460  0.15500  Biso   1.000  C
  C187     1.0000 0.34420  0.76460  0.34500  Biso   1.000  C
  C188     1.0000 0.15580  0.23540  0.84500  Biso   1.000  C
  H277     1.0000 0.84650  0.72860  0.69780  Biso   1.000  H
  H278     1.0000 0.65350  0.27140  0.19780  Biso   1.000  H
  H279     1.0000 0.34650  0.77140  0.30220  Biso   1.000  H
  H280     1.0000 0.15350  0.22860  0.80220  Biso   1.000  H
  C189     1.0000 0.94580  0.63900  0.64050  Biso   1.000  C
  C190     1.0000 0.55420  0.36100  0.14050  Biso   1.000  C
  C191     1.0000 0.44580  0.86100  0.35950  Biso   1.000  C
  C192     1.0000 0.05420  0.13900  0.85950  Biso   1.000  C
  C193     1.0000 0.95630  0.62930  0.70470  Biso   1.000  C
  C194     1.0000 0.54370  0.37070  0.20470  Biso   1.000  C
  C195     1.0000 0.45630  0.87070  0.29530  Biso   1.000  C
  C196     1.0000 0.04370  0.12930  0.79530  Biso   1.000  C
  H281     1.0000 0.92800  0.65660  0.73310  Biso   1.000  H
  H282     1.0000 0.57200  0.34340  0.23310  Biso   1.000  H
  H283     1.0000 0.42800  0.84340  0.26690  Biso   1.000  H
  H284     1.0000 0.07200  0.15660  0.76690  Biso   1.000  H
  C197     1.0000 0.98850  0.59360  0.60250  Biso   1.000  C
  C198     1.0000 0.51150  0.40640  0.10250  Biso   1.000  C
  C199     1.0000 0.48850  0.90640  0.39750  Biso   1.000  C
  C200     1.0000 0.01150  0.09360  0.89750  Biso   1.000  C
  H285     1.0000 0.98240  0.59630  0.55970  Biso   1.000  H
  H286     1.0000 0.51760  0.40370  0.05970  Biso   1.000  H
  H287     1.0000 0.48240  0.90370  0.44030  Biso   1.000  H
  H288     1.0000 0.01760  0.09630  0.94030  Biso   1.000  H
  C201     1.0000 0.03960  0.54470  0.62680  Biso   1.000  C
  C202     1.0000 0.46040  0.45530  0.12680  Biso   1.000  C
  C203     1.0000 0.53960  0.95530  0.37320  Biso   1.000  C
  C204     1.0000 0.96040  0.04470  0.87320  Biso   1.000  C
  H289     1.0000 0.06800  0.51590  0.59950  Biso   1.000  H
  H290     1.0000 0.43200  0.48410  0.09950  Biso   1.000  H
  H291     1.0000 0.56800  0.98410  0.40050  Biso   1.000  H
  H292     1.0000 0.93200  0.01590  0.90050  Biso   1.000  H
  C205     1.0000 0.00980  0.57820  0.72520  Biso   1.000  C
  C206     1.0000 0.49020  0.42180  0.22520  Biso   1.000  C
  C207     1.0000 0.50980  0.92180  0.27480  Biso   1.000  C
  C208     1.0000 0.99020  0.07820  0.77480  Biso   1.000  C
  H293     1.0000 0.01700  0.57330  0.76780  Biso   1.000  H
  H294     1.0000 0.48300  0.42670  0.26780  Biso   1.000  H
  H295     1.0000 0.51700  0.92670  0.23220  Biso   1.000  H
  H296     1.0000 0.98300  0.07330  0.73220  Biso   1.000  H
