data_image0
_cell_length_a       13.6925
_cell_length_b       47.613
_cell_length_c       14.311
_cell_angle_alpha    90
_cell_angle_beta     105.693
_cell_angle_gamma    90

_symmetry_space_group_name_H-M    "P 1"
_symmetry_int_tables_number       1

loop_
  _symmetry_equiv_pos_as_xyz
  'x, y, z'

loop_
  _atom_site_label
  _atom_site_occupancy
  _atom_site_fract_x
  _atom_site_fract_y
  _atom_site_fract_z
  _atom_site_thermal_displace_type
  _atom_site_B_iso_or_equiv
  _atom_site_type_symbol
  Cu1      1.0000 0.75038  0.08323  0.49983  Biso   1.000  Cu
  Cu2      1.0000 0.25038  0.58323  0.49983  Biso   1.000  Cu
  Cu3      1.0000 0.24962  0.08323  0.00017  Biso   1.000  Cu
  Cu4      1.0000 0.74962  0.58323  0.00017  Biso   1.000  Cu
  Cu5      1.0000 0.24962  0.91677  0.50017  Biso   1.000  Cu
  Cu6      1.0000 0.74962  0.41677  0.50017  Biso   1.000  Cu
  Cu7      1.0000 0.75038  0.91677  0.99983  Biso   1.000  Cu
  Cu8      1.0000 0.25038  0.41677  0.99983  Biso   1.000  Cu
  O1       1.0000 0.67330  0.12550  0.57920  Biso   1.000  O
  O2       1.0000 0.17330  0.62550  0.57920  Biso   1.000  O
  O3       1.0000 0.32670  0.12550  0.92080  Biso   1.000  O
  O4       1.0000 0.82670  0.62550  0.92080  Biso   1.000  O
  O5       1.0000 0.32670  0.87450  0.42080  Biso   1.000  O
  O6       1.0000 0.82670  0.37450  0.42080  Biso   1.000  O
  O7       1.0000 0.67330  0.87450  0.07920  Biso   1.000  O
  O8       1.0000 0.17330  0.37450  0.07920  Biso   1.000  O
  H1       1.0000 0.70100  0.14280  0.58500  Biso   1.000  H
  H2       1.0000 0.20100  0.64280  0.58500  Biso   1.000  H
  H3       1.0000 0.29900  0.14280  0.91500  Biso   1.000  H
  H4       1.0000 0.79900  0.64280  0.91500  Biso   1.000  H
  H5       1.0000 0.29900  0.85720  0.41500  Biso   1.000  H
  H6       1.0000 0.79900  0.35720  0.41500  Biso   1.000  H
  H7       1.0000 0.70100  0.85720  0.08500  Biso   1.000  H
  H8       1.0000 0.20100  0.35720  0.08500  Biso   1.000  H
  H9       1.0000 0.62500  0.12700  0.61100  Biso   1.000  H
  H10      1.0000 0.12500  0.62700  0.61100  Biso   1.000  H
  H11      1.0000 0.37500  0.12700  0.88900  Biso   1.000  H
  H12      1.0000 0.87500  0.62700  0.88900  Biso   1.000  H
  H13      1.0000 0.37500  0.87300  0.38900  Biso   1.000  H
  H14      1.0000 0.87500  0.37300  0.38900  Biso   1.000  H
  H15      1.0000 0.62500  0.87300  0.11100  Biso   1.000  H
  H16      1.0000 0.12500  0.37300  0.11100  Biso   1.000  H
  O9       1.0000 0.82710  0.04100  0.42080  Biso   1.000  O
  O10      1.0000 0.32710  0.54100  0.42080  Biso   1.000  O
  O11      1.0000 0.17290  0.04100  0.07920  Biso   1.000  O
  O12      1.0000 0.67290  0.54100  0.07920  Biso   1.000  O
  O13      1.0000 0.17290  0.95900  0.57920  Biso   1.000  O
  O14      1.0000 0.67290  0.45900  0.57920  Biso   1.000  O
  O15      1.0000 0.82710  0.95900  0.92080  Biso   1.000  O
  O16      1.0000 0.32710  0.45900  0.92080  Biso   1.000  O
  H17      1.0000 0.80000  0.02380  0.42200  Biso   1.000  H
  H18      1.0000 0.30000  0.52380  0.42200  Biso   1.000  H
  H19      1.0000 0.20000  0.02380  0.07800  Biso   1.000  H
  H20      1.0000 0.70000  0.52380  0.07800  Biso   1.000  H
  H21      1.0000 0.20000  0.97620  0.57800  Biso   1.000  H
  H22      1.0000 0.70000  0.47620  0.57800  Biso   1.000  H
  H23      1.0000 0.80000  0.97620  0.92200  Biso   1.000  H
  H24      1.0000 0.30000  0.47620  0.92200  Biso   1.000  H
  H25      1.0000 0.87200  0.04170  0.38600  Biso   1.000  H
  H26      1.0000 0.37200  0.54170  0.38600  Biso   1.000  H
  H27      1.0000 0.12800  0.04170  0.11400  Biso   1.000  H
  H28      1.0000 0.62800  0.54170  0.11400  Biso   1.000  H
  H29      1.0000 0.12800  0.95830  0.61400  Biso   1.000  H
  H30      1.0000 0.62800  0.45830  0.61400  Biso   1.000  H
  H31      1.0000 0.87200  0.95830  0.88600  Biso   1.000  H
  H32      1.0000 0.37200  0.45830  0.88600  Biso   1.000  H
  N1       1.0000 0.79300  0.06543  0.63460  Biso   1.000  N
  N2       1.0000 0.29300  0.56543  0.63460  Biso   1.000  N
  N3       1.0000 0.20700  0.06543  0.86540  Biso   1.000  N
  N4       1.0000 0.70700  0.56543  0.86540  Biso   1.000  N
  N5       1.0000 0.20700  0.93457  0.36540  Biso   1.000  N
  N6       1.0000 0.70700  0.43457  0.36540  Biso   1.000  N
  N7       1.0000 0.79300  0.93457  0.13460  Biso   1.000  N
  N8       1.0000 0.29300  0.43457  0.13460  Biso   1.000  N
  C1       1.0000 0.78680  0.07843  0.71650  Biso   1.000  C
  C2       1.0000 0.28680  0.57843  0.71650  Biso   1.000  C
  C3       1.0000 0.21320  0.07843  0.78350  Biso   1.000  C
  C4       1.0000 0.71320  0.57843  0.78350  Biso   1.000  C
  C5       1.0000 0.21320  0.92157  0.28350  Biso   1.000  C
  C6       1.0000 0.71320  0.42157  0.28350  Biso   1.000  C
  C7       1.0000 0.78680  0.92157  0.21650  Biso   1.000  C
  C8       1.0000 0.28680  0.42157  0.21650  Biso   1.000  C
  H33      1.0000 0.75450  0.09620  0.71070  Biso   1.000  H
  H34      1.0000 0.25450  0.59620  0.71070  Biso   1.000  H
  H35      1.0000 0.24550  0.09620  0.78930  Biso   1.000  H
  H36      1.0000 0.74550  0.59620  0.78930  Biso   1.000  H
  H37      1.0000 0.24550  0.90380  0.28930  Biso   1.000  H
  H38      1.0000 0.74550  0.40380  0.28930  Biso   1.000  H
  H39      1.0000 0.75450  0.90380  0.21070  Biso   1.000  H
  H40      1.0000 0.25450  0.40380  0.21070  Biso   1.000  H
  C9       1.0000 0.82430  0.06750  0.80700  Biso   1.000  C
  C10      1.0000 0.32430  0.56750  0.80700  Biso   1.000  C
  C11      1.0000 0.17570  0.06750  0.69300  Biso   1.000  C
  C12      1.0000 0.67570  0.56750  0.69300  Biso   1.000  C
  C13      1.0000 0.17570  0.93250  0.19300  Biso   1.000  C
  C14      1.0000 0.67570  0.43250  0.19300  Biso   1.000  C
  C15      1.0000 0.82430  0.93250  0.30700  Biso   1.000  C
  C16      1.0000 0.32430  0.43250  0.30700  Biso   1.000  C
  H41      1.0000 0.81690  0.07740  0.86230  Biso   1.000  H
  H42      1.0000 0.31690  0.57740  0.86230  Biso   1.000  H
  H43      1.0000 0.18310  0.07740  0.63770  Biso   1.000  H
  H44      1.0000 0.68310  0.57740  0.63770  Biso   1.000  H
  H45      1.0000 0.18310  0.92260  0.13770  Biso   1.000  H
  H46      1.0000 0.68310  0.42260  0.13770  Biso   1.000  H
  H47      1.0000 0.81690  0.92260  0.36230  Biso   1.000  H
  H48      1.0000 0.31690  0.42260  0.36230  Biso   1.000  H
  C17      1.0000 0.87350  0.04159  0.81770  Biso   1.000  C
  C18      1.0000 0.37350  0.54159  0.81770  Biso   1.000  C
  C19      1.0000 0.12650  0.04159  0.68230  Biso   1.000  C
  C20      1.0000 0.62650  0.54159  0.68230  Biso   1.000  C
  C21      1.0000 0.12650  0.95841  0.18230  Biso   1.000  C
  C22      1.0000 0.62650  0.45841  0.18230  Biso   1.000  C
  C23      1.0000 0.87350  0.95841  0.31770  Biso   1.000  C
  C24      1.0000 0.37350  0.45841  0.31770  Biso   1.000  C
  C25      1.0000 0.87580  0.02688  0.73430  Biso   1.000  C
  C26      1.0000 0.37580  0.52688  0.73430  Biso   1.000  C
  C27      1.0000 0.12420  0.02688  0.76570  Biso   1.000  C
  C28      1.0000 0.62420  0.52688  0.76570  Biso   1.000  C
  C29      1.0000 0.12420  0.97312  0.26570  Biso   1.000  C
  C30      1.0000 0.62420  0.47312  0.26570  Biso   1.000  C
  C31      1.0000 0.87580  0.97312  0.23430  Biso   1.000  C
  C32      1.0000 0.37580  0.47312  0.23430  Biso   1.000  C
  H49      1.0000 0.90440  0.00860  0.73820  Biso   1.000  H
  H50      1.0000 0.40440  0.50860  0.73820  Biso   1.000  H
  H51      1.0000 0.09560  0.00860  0.76180  Biso   1.000  H
  H52      1.0000 0.59560  0.50860  0.76180  Biso   1.000  H
  H53      1.0000 0.09560  0.99140  0.26180  Biso   1.000  H
  H54      1.0000 0.59560  0.49140  0.26180  Biso   1.000  H
  H55      1.0000 0.90440  0.99140  0.23820  Biso   1.000  H
  H56      1.0000 0.40440  0.49140  0.23820  Biso   1.000  H
  C33      1.0000 0.83490  0.03972  0.64520  Biso   1.000  C
  C34      1.0000 0.33490  0.53972  0.64520  Biso   1.000  C
  C35      1.0000 0.16510  0.03972  0.85480  Biso   1.000  C
  C36      1.0000 0.66510  0.53972  0.85480  Biso   1.000  C
  C37      1.0000 0.16510  0.96028  0.35480  Biso   1.000  C
  C38      1.0000 0.66510  0.46028  0.35480  Biso   1.000  C
  C39      1.0000 0.83490  0.96028  0.14520  Biso   1.000  C
  C40      1.0000 0.33490  0.46028  0.14520  Biso   1.000  C
  H57      1.0000 0.83670  0.02970  0.58830  Biso   1.000  H
  H58      1.0000 0.33670  0.52970  0.58830  Biso   1.000  H
  H59      1.0000 0.16330  0.02970  0.91170  Biso   1.000  H
  H60      1.0000 0.66330  0.52970  0.91170  Biso   1.000  H
  H61      1.0000 0.16330  0.97030  0.41170  Biso   1.000  H
  H62      1.0000 0.66330  0.47030  0.41170  Biso   1.000  H
  H63      1.0000 0.83670  0.97030  0.08830  Biso   1.000  H
  H64      1.0000 0.33670  0.47030  0.08830  Biso   1.000  H
  C41      1.0000 0.92540  0.02977  0.91580  Biso   1.000  C
  C42      1.0000 0.42540  0.52977  0.91580  Biso   1.000  C
  C43      1.0000 0.07460  0.02977  0.58420  Biso   1.000  C
  C44      1.0000 0.57460  0.52977  0.58420  Biso   1.000  C
  C45      1.0000 0.07460  0.97023  0.08420  Biso   1.000  C
  C46      1.0000 0.57460  0.47023  0.08420  Biso   1.000  C
  C47      1.0000 0.92540  0.97023  0.41580  Biso   1.000  C
  C48      1.0000 0.42540  0.47023  0.41580  Biso   1.000  C
  H65      1.0000 0.92550  0.00900  0.91110  Biso   1.000  H
  H66      1.0000 0.42550  0.50900  0.91110  Biso   1.000  H
  H67      1.0000 0.07450  0.00900  0.58890  Biso   1.000  H
  H68      1.0000 0.57450  0.50900  0.58890  Biso   1.000  H
  H69      1.0000 0.07450  0.99100  0.08890  Biso   1.000  H
  H70      1.0000 0.57450  0.49100  0.08890  Biso   1.000  H
  H71      1.0000 0.92550  0.99100  0.41110  Biso   1.000  H
  H72      1.0000 0.42550  0.49100  0.41110  Biso   1.000  H
  H73      1.0000 0.99700  0.03610  0.93430  Biso   1.000  H
  H74      1.0000 0.49700  0.53610  0.93430  Biso   1.000  H
  H75      1.0000 0.00300  0.03610  0.56570  Biso   1.000  H
  H76      1.0000 0.50300  0.53610  0.56570  Biso   1.000  H
  H77      1.0000 0.00300  0.96390  0.06570  Biso   1.000  H
  H78      1.0000 0.50300  0.46390  0.06570  Biso   1.000  H
  H79      1.0000 0.99700  0.96390  0.43430  Biso   1.000  H
  H80      1.0000 0.49700  0.46390  0.43430  Biso   1.000  H
  N9       1.0000 0.87920  0.03775  0.99200  Biso   1.000  N
  N10      1.0000 0.37920  0.53775  0.99200  Biso   1.000  N
  N11      1.0000 0.12080  0.03775  0.50800  Biso   1.000  N
  N12      1.0000 0.62080  0.53775  0.50800  Biso   1.000  N
  N13      1.0000 0.12080  0.96225  0.00800  Biso   1.000  N
  N14      1.0000 0.62080  0.46225  0.00800  Biso   1.000  N
  N15      1.0000 0.87920  0.96225  0.49200  Biso   1.000  N
  N16      1.0000 0.37920  0.46225  0.49200  Biso   1.000  N
  H81      1.0000 0.91600  0.04770  0.04300  Biso   1.000  H
  H82      1.0000 0.41600  0.54770  0.04300  Biso   1.000  H
  H83      1.0000 0.08400  0.04770  0.45700  Biso   1.000  H
  H84      1.0000 0.58400  0.54770  0.45700  Biso   1.000  H
  H85      1.0000 0.08400  0.95230  0.95700  Biso   1.000  H
  H86      1.0000 0.58400  0.45230  0.95700  Biso   1.000  H
  H87      1.0000 0.91600  0.95230  0.54300  Biso   1.000  H
  H88      1.0000 0.41600  0.45230  0.54300  Biso   1.000  H
  C49      1.0000 0.78920  0.02662  0.99440  Biso   1.000  C
  C50      1.0000 0.28920  0.52662  0.99440  Biso   1.000  C
  C51      1.0000 0.21080  0.02662  0.50560  Biso   1.000  C
  C52      1.0000 0.71080  0.52662  0.50560  Biso   1.000  C
  C53      1.0000 0.21080  0.97338  0.00560  Biso   1.000  C
  C54      1.0000 0.71080  0.47338  0.00560  Biso   1.000  C
  C55      1.0000 0.78920  0.97338  0.49440  Biso   1.000  C
  C56      1.0000 0.28920  0.47338  0.49440  Biso   1.000  C
  O17      1.0000 0.73990  0.01072  0.92915  Biso   1.000  O
  O18      1.0000 0.23990  0.51072  0.92915  Biso   1.000  O
  O19      1.0000 0.26010  0.01072  0.57085  Biso   1.000  O
  O20      1.0000 0.76010  0.51072  0.57085  Biso   1.000  O
  O21      1.0000 0.26010  0.98928  0.07085  Biso   1.000  O
  O22      1.0000 0.76010  0.48928  0.07085  Biso   1.000  O
  O23      1.0000 0.73990  0.98928  0.42915  Biso   1.000  O
  O24      1.0000 0.23990  0.48928  0.42915  Biso   1.000  O
  N17      1.0000 0.75540  0.03410  0.07200  Biso   1.000  N
  N18      1.0000 0.25540  0.53410  0.07200  Biso   1.000  N
  N19      1.0000 0.24460  0.03410  0.42800  Biso   1.000  N
  N20      1.0000 0.74460  0.53410  0.42800  Biso   1.000  N
  N21      1.0000 0.24460  0.96590  0.92800  Biso   1.000  N
  N22      1.0000 0.74460  0.46590  0.92800  Biso   1.000  N
  N23      1.0000 0.75540  0.96590  0.57200  Biso   1.000  N
  N24      1.0000 0.25540  0.46590  0.57200  Biso   1.000  N
  H89      1.0000 0.79400  0.04600  0.11600  Biso   1.000  H
  H90      1.0000 0.29400  0.54600  0.11600  Biso   1.000  H
  H91      1.0000 0.20600  0.04600  0.38400  Biso   1.000  H
  H92      1.0000 0.70600  0.54600  0.38400  Biso   1.000  H
  H93      1.0000 0.20600  0.95400  0.88400  Biso   1.000  H
  H94      1.0000 0.70600  0.45400  0.88400  Biso   1.000  H
  H95      1.0000 0.79400  0.95400  0.61600  Biso   1.000  H
  H96      1.0000 0.29400  0.45400  0.61600  Biso   1.000  H
  C57      1.0000 0.67050  0.01901  0.09360  Biso   1.000  C
  C58      1.0000 0.17050  0.51901  0.09360  Biso   1.000  C
  C59      1.0000 0.32950  0.01901  0.40640  Biso   1.000  C
  C60      1.0000 0.82950  0.51901  0.40640  Biso   1.000  C
  C61      1.0000 0.32950  0.98099  0.90640  Biso   1.000  C
  C62      1.0000 0.82950  0.48099  0.90640  Biso   1.000  C
  C63      1.0000 0.67050  0.98099  0.59360  Biso   1.000  C
  C64      1.0000 0.17050  0.48099  0.59360  Biso   1.000  C
  H97      1.0000 0.68840  0.01480  0.16400  Biso   1.000  H
  H98      1.0000 0.18840  0.51480  0.16400  Biso   1.000  H
  H99      1.0000 0.31160  0.01480  0.33600  Biso   1.000  H
  H100     1.0000 0.81160  0.51480  0.33600  Biso   1.000  H
  H101     1.0000 0.31160  0.98520  0.83600  Biso   1.000  H
  H102     1.0000 0.81160  0.48520  0.83600  Biso   1.000  H
  H103     1.0000 0.68840  0.98520  0.66400  Biso   1.000  H
  H104     1.0000 0.18840  0.48520  0.66400  Biso   1.000  H
  H105     1.0000 0.66110  0.00090  0.05850  Biso   1.000  H
  H106     1.0000 0.16110  0.50090  0.05850  Biso   1.000  H
  H107     1.0000 0.33890  0.00090  0.44150  Biso   1.000  H
  H108     1.0000 0.83890  0.50090  0.44150  Biso   1.000  H
  H109     1.0000 0.33890  0.99910  0.94150  Biso   1.000  H
  H110     1.0000 0.83890  0.49910  0.94150  Biso   1.000  H
  H111     1.0000 0.66110  0.99910  0.55850  Biso   1.000  H
  H112     1.0000 0.16110  0.49910  0.55850  Biso   1.000  H
  C65      1.0000 0.57090  0.03491  0.06640  Biso   1.000  C
  C66      1.0000 0.07090  0.53491  0.06640  Biso   1.000  C
  C67      1.0000 0.42910  0.03491  0.43360  Biso   1.000  C
  C68      1.0000 0.92910  0.53491  0.43360  Biso   1.000  C
  C69      1.0000 0.42910  0.96509  0.93360  Biso   1.000  C
  C70      1.0000 0.92910  0.46509  0.93360  Biso   1.000  C
  C71      1.0000 0.57090  0.96509  0.56640  Biso   1.000  C
  C72      1.0000 0.07090  0.46509  0.56640  Biso   1.000  C
  C73      1.0000 0.54220  0.05344  0.98930  Biso   1.000  C
  C74      1.0000 0.04220  0.55344  0.98930  Biso   1.000  C
  C75      1.0000 0.45780  0.05344  0.51070  Biso   1.000  C
  C76      1.0000 0.95780  0.55344  0.51070  Biso   1.000  C
  C77      1.0000 0.45780  0.94656  0.01070  Biso   1.000  C
  C78      1.0000 0.95780  0.44656  0.01070  Biso   1.000  C
  C79      1.0000 0.54220  0.94656  0.48930  Biso   1.000  C
  C80      1.0000 0.04220  0.44656  0.48930  Biso   1.000  C
  H113     1.0000 0.58620  0.05730  0.94970  Biso   1.000  H
  H114     1.0000 0.08620  0.55730  0.94970  Biso   1.000  H
  H115     1.0000 0.41380  0.05730  0.55030  Biso   1.000  H
  H116     1.0000 0.91380  0.55730  0.55030  Biso   1.000  H
  H117     1.0000 0.41380  0.94270  0.05030  Biso   1.000  H
  H118     1.0000 0.91380  0.44270  0.05030  Biso   1.000  H
  H119     1.0000 0.58620  0.94270  0.44970  Biso   1.000  H
  H120     1.0000 0.08620  0.44270  0.44970  Biso   1.000  H
  C81      1.0000 0.44760  0.06645  0.97080  Biso   1.000  C
  C82      1.0000 0.94760  0.56645  0.97080  Biso   1.000  C
  C83      1.0000 0.55240  0.06645  0.52920  Biso   1.000  C
  C84      1.0000 0.05240  0.56645  0.52920  Biso   1.000  C
  C85      1.0000 0.55240  0.93355  0.02920  Biso   1.000  C
  C86      1.0000 0.05240  0.43355  0.02920  Biso   1.000  C
  C87      1.0000 0.44760  0.93355  0.47080  Biso   1.000  C
  C88      1.0000 0.94760  0.43355  0.47080  Biso   1.000  C
  H121     1.0000 0.42760  0.07870  0.91660  Biso   1.000  H
  H122     1.0000 0.92760  0.57870  0.91660  Biso   1.000  H
  H123     1.0000 0.57240  0.07870  0.58340  Biso   1.000  H
  H124     1.0000 0.07240  0.57870  0.58340  Biso   1.000  H
  H125     1.0000 0.57240  0.92130  0.08340  Biso   1.000  H
  H126     1.0000 0.07240  0.42130  0.08340  Biso   1.000  H
  H127     1.0000 0.42760  0.92130  0.41660  Biso   1.000  H
  H128     1.0000 0.92760  0.42130  0.41660  Biso   1.000  H
  N25      1.0000 0.61670  0.06245  0.47420  Biso   1.000  N
  N26      1.0000 0.11670  0.56245  0.47420  Biso   1.000  N
  N27      1.0000 0.38330  0.06245  0.02580  Biso   1.000  N
  N28      1.0000 0.88330  0.56245  0.02580  Biso   1.000  N
  N29      1.0000 0.38330  0.93755  0.52580  Biso   1.000  N
  N30      1.0000 0.88330  0.43755  0.52580  Biso   1.000  N
  N31      1.0000 0.61670  0.93755  0.97420  Biso   1.000  N
  N32      1.0000 0.11670  0.43755  0.97420  Biso   1.000  N
  C89      1.0000 0.58780  0.04422  0.39910  Biso   1.000  C
  C90      1.0000 0.08780  0.54422  0.39910  Biso   1.000  C
  C91      1.0000 0.41220  0.04422  0.10090  Biso   1.000  C
  C92      1.0000 0.91220  0.54422  0.10090  Biso   1.000  C
  C93      1.0000 0.41220  0.95578  0.60090  Biso   1.000  C
  C94      1.0000 0.91220  0.45578  0.60090  Biso   1.000  C
  C95      1.0000 0.58780  0.95578  0.89910  Biso   1.000  C
  C96      1.0000 0.08780  0.45578  0.89910  Biso   1.000  C
  H129     1.0000 0.63230  0.04110  0.35940  Biso   1.000  H
  H130     1.0000 0.13230  0.54110  0.35940  Biso   1.000  H
  H131     1.0000 0.36770  0.04110  0.14060  Biso   1.000  H
  H132     1.0000 0.86770  0.54110  0.14060  Biso   1.000  H
  H133     1.0000 0.36770  0.95890  0.64060  Biso   1.000  H
  H134     1.0000 0.86770  0.45890  0.64060  Biso   1.000  H
  H135     1.0000 0.63230  0.95890  0.85940  Biso   1.000  H
  H136     1.0000 0.13230  0.45890  0.85940  Biso   1.000  H
  C97      1.0000 0.50280  0.03004  0.12220  Biso   1.000  C
  C98      1.0000 0.00280  0.53004  0.12220  Biso   1.000  C
  C99      1.0000 0.49720  0.03004  0.37780  Biso   1.000  C
  C100     1.0000 0.99720  0.53004  0.37780  Biso   1.000  C
  C101     1.0000 0.49720  0.96996  0.87780  Biso   1.000  C
  C102     1.0000 0.99720  0.46996  0.87780  Biso   1.000  C
  C103     1.0000 0.50280  0.96996  0.62220  Biso   1.000  C
  C104     1.0000 0.00280  0.46996  0.62220  Biso   1.000  C
  H137     1.0000 0.51920  0.01700  0.17450  Biso   1.000  H
  H138     1.0000 0.01920  0.51700  0.17450  Biso   1.000  H
  H139     1.0000 0.48080  0.01700  0.32550  Biso   1.000  H
  H140     1.0000 0.98080  0.51700  0.32550  Biso   1.000  H
  H141     1.0000 0.48080  0.98300  0.82550  Biso   1.000  H
  H142     1.0000 0.98080  0.48300  0.82550  Biso   1.000  H
  H143     1.0000 0.51920  0.98300  0.67450  Biso   1.000  H
  H144     1.0000 0.01920  0.48300  0.67450  Biso   1.000  H
  N33      1.0000 0.70710  0.10118  0.36530  Biso   1.000  N
  N34      1.0000 0.20710  0.60118  0.36530  Biso   1.000  N
  N35      1.0000 0.29290  0.10118  0.13470  Biso   1.000  N
  N36      1.0000 0.79290  0.60118  0.13470  Biso   1.000  N
  N37      1.0000 0.29290  0.89882  0.63470  Biso   1.000  N
  N38      1.0000 0.79290  0.39882  0.63470  Biso   1.000  N
  N39      1.0000 0.70710  0.89882  0.86530  Biso   1.000  N
  N40      1.0000 0.20710  0.39882  0.86530  Biso   1.000  N
  C105     1.0000 0.71340  0.08796  0.28390  Biso   1.000  C
  C106     1.0000 0.21340  0.58796  0.28390  Biso   1.000  C
  C107     1.0000 0.28660  0.08796  0.21610  Biso   1.000  C
  C108     1.0000 0.78660  0.58796  0.21610  Biso   1.000  C
  C109     1.0000 0.28660  0.91204  0.71610  Biso   1.000  C
  C110     1.0000 0.78660  0.41204  0.71610  Biso   1.000  C
  C111     1.0000 0.71340  0.91204  0.78390  Biso   1.000  C
  C112     1.0000 0.21340  0.41204  0.78390  Biso   1.000  C
  H145     1.0000 0.74580  0.07020  0.28930  Biso   1.000  H
  H146     1.0000 0.24580  0.57020  0.28930  Biso   1.000  H
  H147     1.0000 0.25420  0.07020  0.21070  Biso   1.000  H
  H148     1.0000 0.75420  0.57020  0.21070  Biso   1.000  H
  H149     1.0000 0.25420  0.92980  0.71070  Biso   1.000  H
  H150     1.0000 0.75420  0.42980  0.71070  Biso   1.000  H
  H151     1.0000 0.74580  0.92980  0.78930  Biso   1.000  H
  H152     1.0000 0.24580  0.42980  0.78930  Biso   1.000  H
  C113     1.0000 0.67400  0.09958  0.19200  Biso   1.000  C
  C114     1.0000 0.17400  0.59958  0.19200  Biso   1.000  C
  C115     1.0000 0.32600  0.09958  0.30800  Biso   1.000  C
  C116     1.0000 0.82600  0.59958  0.30800  Biso   1.000  C
  C117     1.0000 0.32600  0.90042  0.80800  Biso   1.000  C
  C118     1.0000 0.82600  0.40042  0.80800  Biso   1.000  C
  C119     1.0000 0.67400  0.90042  0.69200  Biso   1.000  C
  C120     1.0000 0.17400  0.40042  0.69200  Biso   1.000  C
  H153     1.0000 0.67980  0.08980  0.13590  Biso   1.000  H
  H154     1.0000 0.17980  0.58980  0.13590  Biso   1.000  H
  H155     1.0000 0.32020  0.08980  0.36410  Biso   1.000  H
  H156     1.0000 0.82020  0.58980  0.36410  Biso   1.000  H
  H157     1.0000 0.32020  0.91020  0.86410  Biso   1.000  H
  H158     1.0000 0.82020  0.41020  0.86410  Biso   1.000  H
  H159     1.0000 0.67980  0.91020  0.63590  Biso   1.000  H
  H160     1.0000 0.17980  0.41020  0.63590  Biso   1.000  H
  C121     1.0000 0.62660  0.12545  0.18300  Biso   1.000  C
  C122     1.0000 0.12660  0.62545  0.18300  Biso   1.000  C
  C123     1.0000 0.37340  0.12545  0.31700  Biso   1.000  C
  C124     1.0000 0.87340  0.62545  0.31700  Biso   1.000  C
  C125     1.0000 0.37340  0.87455  0.81700  Biso   1.000  C
  C126     1.0000 0.87340  0.37455  0.81700  Biso   1.000  C
  C127     1.0000 0.62660  0.87455  0.68300  Biso   1.000  C
  C128     1.0000 0.12660  0.37455  0.68300  Biso   1.000  C
  C129     1.0000 0.62330  0.13922  0.26590  Biso   1.000  C
  C130     1.0000 0.12330  0.63922  0.26590  Biso   1.000  C
  C131     1.0000 0.37670  0.13922  0.23410  Biso   1.000  C
  C132     1.0000 0.87670  0.63922  0.23410  Biso   1.000  C
  C133     1.0000 0.37670  0.86078  0.73410  Biso   1.000  C
  C134     1.0000 0.87670  0.36078  0.73410  Biso   1.000  C
  C135     1.0000 0.62330  0.86078  0.76590  Biso   1.000  C
  C136     1.0000 0.12330  0.36078  0.76590  Biso   1.000  C
  H161     1.0000 0.59250  0.15720  0.26220  Biso   1.000  H
  H162     1.0000 0.09250  0.65720  0.26220  Biso   1.000  H
  H163     1.0000 0.40750  0.15720  0.23780  Biso   1.000  H
  H164     1.0000 0.90750  0.65720  0.23780  Biso   1.000  H
  H165     1.0000 0.40750  0.84280  0.73780  Biso   1.000  H
  H166     1.0000 0.90750  0.34280  0.73780  Biso   1.000  H
  H167     1.0000 0.59250  0.84280  0.76220  Biso   1.000  H
  H168     1.0000 0.09250  0.34280  0.76220  Biso   1.000  H
  C137     1.0000 0.66510  0.12678  0.35530  Biso   1.000  C
  C138     1.0000 0.16510  0.62678  0.35530  Biso   1.000  C
  C139     1.0000 0.33490  0.12678  0.14470  Biso   1.000  C
  C140     1.0000 0.83490  0.62678  0.14470  Biso   1.000  C
  C141     1.0000 0.33490  0.87322  0.64470  Biso   1.000  C
  C142     1.0000 0.83490  0.37322  0.64470  Biso   1.000  C
  C143     1.0000 0.66510  0.87322  0.85530  Biso   1.000  C
  C144     1.0000 0.16510  0.37322  0.85530  Biso   1.000  C
  H169     1.0000 0.66390  0.13690  0.41220  Biso   1.000  H
  H170     1.0000 0.16390  0.63690  0.41220  Biso   1.000  H
  H171     1.0000 0.33610  0.13690  0.08780  Biso   1.000  H
  H172     1.0000 0.83610  0.63690  0.08780  Biso   1.000  H
  H173     1.0000 0.33610  0.86310  0.58780  Biso   1.000  H
  H174     1.0000 0.83610  0.36310  0.58780  Biso   1.000  H
  H175     1.0000 0.66390  0.86310  0.91220  Biso   1.000  H
  H176     1.0000 0.16390  0.36310  0.91220  Biso   1.000  H
  C145     1.0000 0.57310  0.13703  0.08340  Biso   1.000  C
  C146     1.0000 0.07310  0.63703  0.08340  Biso   1.000  C
  C147     1.0000 0.42690  0.13703  0.41660  Biso   1.000  C
  C148     1.0000 0.92690  0.63703  0.41660  Biso   1.000  C
  C149     1.0000 0.42690  0.86297  0.91660  Biso   1.000  C
  C150     1.0000 0.92690  0.36297  0.91660  Biso   1.000  C
  C151     1.0000 0.57310  0.86297  0.58340  Biso   1.000  C
  C152     1.0000 0.07310  0.36297  0.58340  Biso   1.000  C
  H177     1.0000 0.50210  0.13030  0.06510  Biso   1.000  H
  H178     1.0000 0.00210  0.63030  0.06510  Biso   1.000  H
  H179     1.0000 0.49790  0.13030  0.43490  Biso   1.000  H
  H180     1.0000 0.99790  0.63030  0.43490  Biso   1.000  H
  H181     1.0000 0.49790  0.86970  0.93490  Biso   1.000  H
  H182     1.0000 0.99790  0.36970  0.93490  Biso   1.000  H
  H183     1.0000 0.50210  0.86970  0.56510  Biso   1.000  H
  H184     1.0000 0.00210  0.36970  0.56510  Biso   1.000  H
  H185     1.0000 0.57150  0.15780  0.08750  Biso   1.000  H
  H186     1.0000 0.07150  0.65780  0.08750  Biso   1.000  H
  H187     1.0000 0.42850  0.15780  0.41250  Biso   1.000  H
  H188     1.0000 0.92850  0.65780  0.41250  Biso   1.000  H
  H189     1.0000 0.42850  0.84220  0.91250  Biso   1.000  H
  H190     1.0000 0.92850  0.34220  0.91250  Biso   1.000  H
  H191     1.0000 0.57150  0.84220  0.58750  Biso   1.000  H
  H192     1.0000 0.07150  0.34220  0.58750  Biso   1.000  H
  N41      1.0000 0.61990  0.12925  0.00760  Biso   1.000  N
  N42      1.0000 0.11990  0.62925  0.00760  Biso   1.000  N
  N43      1.0000 0.38010  0.12925  0.49240  Biso   1.000  N
  N44      1.0000 0.88010  0.62925  0.49240  Biso   1.000  N
  N45      1.0000 0.38010  0.87075  0.99240  Biso   1.000  N
  N46      1.0000 0.88010  0.37075  0.99240  Biso   1.000  N
  N47      1.0000 0.61990  0.87075  0.50760  Biso   1.000  N
  N48      1.0000 0.11990  0.37075  0.50760  Biso   1.000  N
  H193     1.0000 0.58100  0.12220  0.95140  Biso   1.000  H
  H194     1.0000 0.08100  0.62220  0.95140  Biso   1.000  H
  H195     1.0000 0.41900  0.12220  0.54860  Biso   1.000  H
  H196     1.0000 0.91900  0.62220  0.54860  Biso   1.000  H
  H197     1.0000 0.41900  0.87780  0.04860  Biso   1.000  H
  H198     1.0000 0.91900  0.37780  0.04860  Biso   1.000  H
  H199     1.0000 0.58100  0.87780  0.45140  Biso   1.000  H
  H200     1.0000 0.08100  0.37780  0.45140  Biso   1.000  H
  C153     1.0000 0.70990  0.14033  0.00490  Biso   1.000  C
  C154     1.0000 0.20990  0.64033  0.00490  Biso   1.000  C
  C155     1.0000 0.29010  0.14033  0.49510  Biso   1.000  C
  C156     1.0000 0.79010  0.64033  0.49510  Biso   1.000  C
  C157     1.0000 0.29010  0.85967  0.99510  Biso   1.000  C
  C158     1.0000 0.79010  0.35967  0.99510  Biso   1.000  C
  C159     1.0000 0.70990  0.85967  0.50490  Biso   1.000  C
  C160     1.0000 0.20990  0.35967  0.50490  Biso   1.000  C
  O25      1.0000 0.76007  0.15597  0.07153  Biso   1.000  O
  O26      1.0000 0.26007  0.65597  0.07153  Biso   1.000  O
  O27      1.0000 0.23993  0.15597  0.42847  Biso   1.000  O
  O28      1.0000 0.73993  0.65597  0.42847  Biso   1.000  O
  O29      1.0000 0.23993  0.84403  0.92847  Biso   1.000  O
  O30      1.0000 0.73993  0.34403  0.92847  Biso   1.000  O
  O31      1.0000 0.76007  0.84403  0.57153  Biso   1.000  O
  O32      1.0000 0.26007  0.34403  0.57153  Biso   1.000  O
  N49      1.0000 0.74440  0.13288  0.92880  Biso   1.000  N
  N50      1.0000 0.24440  0.63288  0.92880  Biso   1.000  N
  N51      1.0000 0.25560  0.13288  0.57120  Biso   1.000  N
  N52      1.0000 0.75560  0.63288  0.57120  Biso   1.000  N
  N53      1.0000 0.25560  0.86712  0.07120  Biso   1.000  N
  N54      1.0000 0.75560  0.36712  0.07120  Biso   1.000  N
  N55      1.0000 0.74440  0.86712  0.42880  Biso   1.000  N
  N56      1.0000 0.24440  0.36712  0.42880  Biso   1.000  N
  H201     1.0000 0.71400  0.12010  0.88400  Biso   1.000  H
  H202     1.0000 0.21400  0.62010  0.88400  Biso   1.000  H
  H203     1.0000 0.28600  0.12010  0.61600  Biso   1.000  H
  H204     1.0000 0.78600  0.62010  0.61600  Biso   1.000  H
  H205     1.0000 0.28600  0.87990  0.11600  Biso   1.000  H
  H206     1.0000 0.78600  0.37990  0.11600  Biso   1.000  H
  H207     1.0000 0.71400  0.87990  0.38400  Biso   1.000  H
  H208     1.0000 0.21400  0.37990  0.38400  Biso   1.000  H
  C161     1.0000 0.82720  0.14774  0.90610  Biso   1.000  C
  C162     1.0000 0.32720  0.64774  0.90610  Biso   1.000  C
  C163     1.0000 0.17280  0.14774  0.59390  Biso   1.000  C
  C164     1.0000 0.67280  0.64774  0.59390  Biso   1.000  C
  C165     1.0000 0.17280  0.85226  0.09390  Biso   1.000  C
  C166     1.0000 0.67280  0.35226  0.09390  Biso   1.000  C
  C167     1.0000 0.82720  0.85226  0.40610  Biso   1.000  C
  C168     1.0000 0.32720  0.35226  0.40610  Biso   1.000  C
  H209     1.0000 0.83660  0.16590  0.94090  Biso   1.000  H
  H210     1.0000 0.33660  0.66590  0.94090  Biso   1.000  H
  H211     1.0000 0.16340  0.16590  0.55910  Biso   1.000  H
  H212     1.0000 0.66340  0.66590  0.55910  Biso   1.000  H
  H213     1.0000 0.16340  0.83410  0.05910  Biso   1.000  H
  H214     1.0000 0.66340  0.33410  0.05910  Biso   1.000  H
  H215     1.0000 0.83660  0.83410  0.44090  Biso   1.000  H
  H216     1.0000 0.33660  0.33410  0.44090  Biso   1.000  H
  H217     1.0000 0.80820  0.15180  0.83570  Biso   1.000  H
  H218     1.0000 0.30820  0.65180  0.83570  Biso   1.000  H
  H219     1.0000 0.19180  0.15180  0.66430  Biso   1.000  H
  H220     1.0000 0.69180  0.65180  0.66430  Biso   1.000  H
  H221     1.0000 0.19180  0.84820  0.16430  Biso   1.000  H
  H222     1.0000 0.69180  0.34820  0.16430  Biso   1.000  H
  H223     1.0000 0.80820  0.84820  0.33570  Biso   1.000  H
  H224     1.0000 0.30820  0.34820  0.33570  Biso   1.000  H
  C169     1.0000 0.92770  0.13207  0.93230  Biso   1.000  C
  C170     1.0000 0.42770  0.63207  0.93230  Biso   1.000  C
  C171     1.0000 0.07230  0.13207  0.56770  Biso   1.000  C
  C172     1.0000 0.57230  0.63207  0.56770  Biso   1.000  C
  C173     1.0000 0.07230  0.86793  0.06770  Biso   1.000  C
  C174     1.0000 0.57230  0.36793  0.06770  Biso   1.000  C
  C175     1.0000 0.92770  0.86793  0.43230  Biso   1.000  C
  C176     1.0000 0.42770  0.36793  0.43230  Biso   1.000  C
  C177     1.0000 0.95520  0.11382  0.00970  Biso   1.000  C
  C178     1.0000 0.45520  0.61382  0.00970  Biso   1.000  C
  C179     1.0000 0.04480  0.11382  0.49030  Biso   1.000  C
  C180     1.0000 0.54480  0.61382  0.49030  Biso   1.000  C
  C181     1.0000 0.04480  0.88618  0.99030  Biso   1.000  C
  C182     1.0000 0.54480  0.38618  0.99030  Biso   1.000  C
  C183     1.0000 0.95520  0.88618  0.50970  Biso   1.000  C
  C184     1.0000 0.45520  0.38618  0.50970  Biso   1.000  C
  H225     1.0000 0.91120  0.11030  0.04960  Biso   1.000  H
  H226     1.0000 0.41120  0.61030  0.04960  Biso   1.000  H
  H227     1.0000 0.08880  0.11030  0.45040  Biso   1.000  H
  H228     1.0000 0.58880  0.61030  0.45040  Biso   1.000  H
  H229     1.0000 0.08880  0.88970  0.95040  Biso   1.000  H
  H230     1.0000 0.58880  0.38970  0.95040  Biso   1.000  H
  H231     1.0000 0.91120  0.88970  0.54960  Biso   1.000  H
  H232     1.0000 0.41120  0.38970  0.54960  Biso   1.000  H
  C185     1.0000 0.04980  0.10062  0.02770  Biso   1.000  C
  C186     1.0000 0.54980  0.60062  0.02770  Biso   1.000  C
  C187     1.0000 0.95020  0.10062  0.47230  Biso   1.000  C
  C188     1.0000 0.45020  0.60062  0.47230  Biso   1.000  C
  C189     1.0000 0.95020  0.89938  0.97230  Biso   1.000  C
  C190     1.0000 0.45020  0.39938  0.97230  Biso   1.000  C
  C191     1.0000 0.04980  0.89938  0.52770  Biso   1.000  C
  C192     1.0000 0.54980  0.39938  0.52770  Biso   1.000  C
  H233     1.0000 0.06930  0.08840  0.08200  Biso   1.000  H
  H234     1.0000 0.56930  0.58840  0.08200  Biso   1.000  H
  H235     1.0000 0.93070  0.08840  0.41800  Biso   1.000  H
  H236     1.0000 0.43070  0.58840  0.41800  Biso   1.000  H
  H237     1.0000 0.93070  0.91160  0.91800  Biso   1.000  H
  H238     1.0000 0.43070  0.41160  0.91800  Biso   1.000  H
  H239     1.0000 0.06930  0.91160  0.58200  Biso   1.000  H
  H240     1.0000 0.56930  0.41160  0.58200  Biso   1.000  H
  N57      1.0000 0.88570  0.10413  0.52600  Biso   1.000  N
  N58      1.0000 0.38570  0.60413  0.52600  Biso   1.000  N
  N59      1.0000 0.11430  0.10413  0.97400  Biso   1.000  N
  N60      1.0000 0.61430  0.60413  0.97400  Biso   1.000  N
  N61      1.0000 0.11430  0.89587  0.47400  Biso   1.000  N
  N62      1.0000 0.61430  0.39587  0.47400  Biso   1.000  N
  N63      1.0000 0.88570  0.89587  0.02600  Biso   1.000  N
  N64      1.0000 0.38570  0.39587  0.02600  Biso   1.000  N
  C193     1.0000 0.91330  0.12210  0.60150  Biso   1.000  C
  C194     1.0000 0.41330  0.62210  0.60150  Biso   1.000  C
  C195     1.0000 0.08670  0.12210  0.89850  Biso   1.000  C
  C196     1.0000 0.58670  0.62210  0.89850  Biso   1.000  C
  C197     1.0000 0.08670  0.87790  0.39850  Biso   1.000  C
  C198     1.0000 0.58670  0.37790  0.39850  Biso   1.000  C
  C199     1.0000 0.91330  0.87790  0.10150  Biso   1.000  C
  C200     1.0000 0.41330  0.37790  0.10150  Biso   1.000  C
  H241     1.0000 0.86900  0.12480  0.64150  Biso   1.000  H
  H242     1.0000 0.36900  0.62480  0.64150  Biso   1.000  H
  H243     1.0000 0.13100  0.12480  0.85850  Biso   1.000  H
  H244     1.0000 0.63100  0.62480  0.85850  Biso   1.000  H
  H245     1.0000 0.13100  0.87520  0.35850  Biso   1.000  H
  H246     1.0000 0.63100  0.37520  0.35850  Biso   1.000  H
  H247     1.0000 0.86900  0.87520  0.14150  Biso   1.000  H
  H248     1.0000 0.36900  0.37520  0.14150  Biso   1.000  H
  C201     1.0000 0.99520  0.13683  0.87740  Biso   1.000  C
  C202     1.0000 0.49520  0.63683  0.87740  Biso   1.000  C
  C203     1.0000 0.00480  0.13683  0.62260  Biso   1.000  C
  C204     1.0000 0.50480  0.63683  0.62260  Biso   1.000  C
  C205     1.0000 0.00480  0.86317  0.12260  Biso   1.000  C
  C206     1.0000 0.50480  0.36317  0.12260  Biso   1.000  C
  C207     1.0000 0.99520  0.86317  0.37740  Biso   1.000  C
  C208     1.0000 0.49520  0.36317  0.37740  Biso   1.000  C
  H249     1.0000 0.97940  0.15000  0.82570  Biso   1.000  H
  H250     1.0000 0.47940  0.65000  0.82570  Biso   1.000  H
  H251     1.0000 0.02060  0.15000  0.67430  Biso   1.000  H
  H252     1.0000 0.52060  0.65000  0.67430  Biso   1.000  H
  H253     1.0000 0.02060  0.85000  0.17430  Biso   1.000  H
  H254     1.0000 0.52060  0.35000  0.17430  Biso   1.000  H
  H255     1.0000 0.97940  0.85000  0.32570  Biso   1.000  H
  H256     1.0000 0.47940  0.35000  0.32570  Biso   1.000  H
  Cu9      1.0000 0.25000  0.25000  0.50000  Biso   1.000  Cu
  Cu10     1.0000 0.75000  0.75000  0.50000  Biso   1.000  Cu
  Cu11     1.0000 0.75000  0.25000  0.00000  Biso   1.000  Cu
  Cu12     1.0000 0.25000  0.75000  0.00000  Biso   1.000  Cu
  O33      1.0000 0.17368  0.29200  0.57893  Biso   1.000  O
  O34      1.0000 0.67368  0.79200  0.57893  Biso   1.000  O
  O35      1.0000 0.82632  0.29200  0.92107  Biso   1.000  O
  O36      1.0000 0.32632  0.79200  0.92107  Biso   1.000  O
  O37      1.0000 0.82632  0.70800  0.42107  Biso   1.000  O
  O38      1.0000 0.32632  0.20800  0.42107  Biso   1.000  O
  O39      1.0000 0.17368  0.70800  0.07893  Biso   1.000  O
  O40      1.0000 0.67368  0.20800  0.07893  Biso   1.000  O
  H257     1.0000 0.19900  0.30960  0.58300  Biso   1.000  H
  H258     1.0000 0.69900  0.80960  0.58300  Biso   1.000  H
  H259     1.0000 0.80100  0.30960  0.91700  Biso   1.000  H
  H260     1.0000 0.30100  0.80960  0.91700  Biso   1.000  H
  H261     1.0000 0.80100  0.69040  0.41700  Biso   1.000  H
  H262     1.0000 0.30100  0.19040  0.41700  Biso   1.000  H
  H263     1.0000 0.19900  0.69040  0.08300  Biso   1.000  H
  H264     1.0000 0.69900  0.19040  0.08300  Biso   1.000  H
  H265     1.0000 0.13000  0.29620  0.61400  Biso   1.000  H
  H266     1.0000 0.63000  0.79620  0.61400  Biso   1.000  H
  H267     1.0000 0.87000  0.29620  0.88600  Biso   1.000  H
  H268     1.0000 0.37000  0.79620  0.88600  Biso   1.000  H
  H269     1.0000 0.87000  0.70380  0.38600  Biso   1.000  H
  H270     1.0000 0.37000  0.20380  0.38600  Biso   1.000  H
  H271     1.0000 0.13000  0.70380  0.11400  Biso   1.000  H
  H272     1.0000 0.63000  0.20380  0.11400  Biso   1.000  H
  N65      1.0000 0.29327  0.23213  0.63495  Biso   1.000  N
  N66      1.0000 0.79327  0.73213  0.63495  Biso   1.000  N
  N67      1.0000 0.70673  0.23213  0.86505  Biso   1.000  N
  N68      1.0000 0.20673  0.73213  0.86505  Biso   1.000  N
  N69      1.0000 0.70673  0.76787  0.36505  Biso   1.000  N
  N70      1.0000 0.20673  0.26787  0.36505  Biso   1.000  N
  N71      1.0000 0.29327  0.76787  0.13495  Biso   1.000  N
  N72      1.0000 0.79327  0.26787  0.13495  Biso   1.000  N
  C209     1.0000 0.28650  0.24530  0.71570  Biso   1.000  C
  C210     1.0000 0.78650  0.74530  0.71570  Biso   1.000  C
  C211     1.0000 0.71350  0.24530  0.78430  Biso   1.000  C
  C212     1.0000 0.21350  0.74530  0.78430  Biso   1.000  C
  C213     1.0000 0.71350  0.75470  0.28430  Biso   1.000  C
  C214     1.0000 0.21350  0.25470  0.28430  Biso   1.000  C
  C215     1.0000 0.28650  0.75470  0.21570  Biso   1.000  C
  C216     1.0000 0.78650  0.25470  0.21570  Biso   1.000  C
  H273     1.0000 0.25400  0.26310  0.70970  Biso   1.000  H
  H274     1.0000 0.75400  0.76310  0.70970  Biso   1.000  H
  H275     1.0000 0.74600  0.26310  0.79030  Biso   1.000  H
  H276     1.0000 0.24600  0.76310  0.79030  Biso   1.000  H
  H277     1.0000 0.74600  0.73690  0.29030  Biso   1.000  H
  H278     1.0000 0.24600  0.23690  0.29030  Biso   1.000  H
  H279     1.0000 0.25400  0.73690  0.20970  Biso   1.000  H
  H280     1.0000 0.75400  0.23690  0.20970  Biso   1.000  H
  C217     1.0000 0.32480  0.23407  0.80733  Biso   1.000  C
  C218     1.0000 0.82480  0.73407  0.80733  Biso   1.000  C
  C219     1.0000 0.67520  0.23407  0.69267  Biso   1.000  C
  C220     1.0000 0.17520  0.73407  0.69267  Biso   1.000  C
  C221     1.0000 0.67520  0.76593  0.19267  Biso   1.000  C
  C222     1.0000 0.17520  0.26593  0.19267  Biso   1.000  C
  C223     1.0000 0.32480  0.76593  0.30733  Biso   1.000  C
  C224     1.0000 0.82480  0.26593  0.30733  Biso   1.000  C
  H281     1.0000 0.31760  0.24390  0.86280  Biso   1.000  H
  H282     1.0000 0.81760  0.74390  0.86280  Biso   1.000  H
  H283     1.0000 0.68240  0.24390  0.63720  Biso   1.000  H
  H284     1.0000 0.18240  0.74390  0.63720  Biso   1.000  H
  H285     1.0000 0.68240  0.75610  0.13720  Biso   1.000  H
  H286     1.0000 0.18240  0.25610  0.13720  Biso   1.000  H
  H287     1.0000 0.31760  0.75610  0.36280  Biso   1.000  H
  H288     1.0000 0.81760  0.25610  0.36280  Biso   1.000  H
  C225     1.0000 0.37410  0.20822  0.81763  Biso   1.000  C
  C226     1.0000 0.87410  0.70822  0.81763  Biso   1.000  C
  C227     1.0000 0.62590  0.20822  0.68237  Biso   1.000  C
  C228     1.0000 0.12590  0.70822  0.68237  Biso   1.000  C
  C229     1.0000 0.62590  0.79178  0.18237  Biso   1.000  C
  C230     1.0000 0.12590  0.29178  0.18237  Biso   1.000  C
  C231     1.0000 0.37410  0.79178  0.31763  Biso   1.000  C
  C232     1.0000 0.87410  0.29178  0.31763  Biso   1.000  C
  C233     1.0000 0.37640  0.19405  0.73371  Biso   1.000  C
  C234     1.0000 0.87640  0.69405  0.73371  Biso   1.000  C
  C235     1.0000 0.62360  0.19405  0.76629  Biso   1.000  C
  C236     1.0000 0.12360  0.69405  0.76629  Biso   1.000  C
  C237     1.0000 0.62360  0.80595  0.26629  Biso   1.000  C
  C238     1.0000 0.12360  0.30595  0.26629  Biso   1.000  C
  C239     1.0000 0.37640  0.80595  0.23371  Biso   1.000  C
  C240     1.0000 0.87640  0.30595  0.23371  Biso   1.000  C
  H289     1.0000 0.40630  0.17590  0.73740  Biso   1.000  H
  H290     1.0000 0.90630  0.67590  0.73740  Biso   1.000  H
  H291     1.0000 0.59370  0.17590  0.76260  Biso   1.000  H
  H292     1.0000 0.09370  0.67590  0.76260  Biso   1.000  H
  H293     1.0000 0.59370  0.82410  0.26260  Biso   1.000  H
  H294     1.0000 0.09370  0.32410  0.26260  Biso   1.000  H
  H295     1.0000 0.40630  0.82410  0.23740  Biso   1.000  H
  H296     1.0000 0.90630  0.32410  0.23740  Biso   1.000  H
  C241     1.0000 0.33480  0.20649  0.64450  Biso   1.000  C
  C242     1.0000 0.83480  0.70649  0.64450  Biso   1.000  C
  C243     1.0000 0.66520  0.20649  0.85550  Biso   1.000  C
  C244     1.0000 0.16520  0.70649  0.85550  Biso   1.000  C
  C245     1.0000 0.66520  0.79351  0.35550  Biso   1.000  C
  C246     1.0000 0.16520  0.29351  0.35550  Biso   1.000  C
  C247     1.0000 0.33480  0.79351  0.14450  Biso   1.000  C
  C248     1.0000 0.83480  0.29351  0.14450  Biso   1.000  C
  H297     1.0000 0.33570  0.19640  0.58750  Biso   1.000  H
  H298     1.0000 0.83570  0.69640  0.58750  Biso   1.000  H
  H299     1.0000 0.66430  0.19640  0.91250  Biso   1.000  H
  H300     1.0000 0.16430  0.69640  0.91250  Biso   1.000  H
  H301     1.0000 0.66430  0.80360  0.41250  Biso   1.000  H
  H302     1.0000 0.16430  0.30360  0.41250  Biso   1.000  H
  H303     1.0000 0.33570  0.80360  0.08750  Biso   1.000  H
  H304     1.0000 0.83570  0.30360  0.08750  Biso   1.000  H
  C249     1.0000 0.42630  0.19628  0.91688  Biso   1.000  C
  C250     1.0000 0.92630  0.69628  0.91688  Biso   1.000  C
  C251     1.0000 0.57370  0.19628  0.58312  Biso   1.000  C
  C252     1.0000 0.07370  0.69628  0.58312  Biso   1.000  C
  C253     1.0000 0.57370  0.80372  0.08312  Biso   1.000  C
  C254     1.0000 0.07370  0.30372  0.08312  Biso   1.000  C
  C255     1.0000 0.42630  0.80372  0.41688  Biso   1.000  C
  C256     1.0000 0.92630  0.30372  0.41688  Biso   1.000  C
  H305     1.0000 0.42640  0.17550  0.91240  Biso   1.000  H
  H306     1.0000 0.92640  0.67550  0.91240  Biso   1.000  H
  H307     1.0000 0.57360  0.17550  0.58760  Biso   1.000  H
  H308     1.0000 0.07360  0.67550  0.58760  Biso   1.000  H
  H309     1.0000 0.57360  0.82450  0.08760  Biso   1.000  H
  H310     1.0000 0.07360  0.32450  0.08760  Biso   1.000  H
  H311     1.0000 0.42640  0.82450  0.41240  Biso   1.000  H
  H312     1.0000 0.92640  0.32450  0.41240  Biso   1.000  H
  H313     1.0000 0.49780  0.20260  0.93580  Biso   1.000  H
  H314     1.0000 0.99780  0.70260  0.93580  Biso   1.000  H
  H315     1.0000 0.50220  0.20260  0.56420  Biso   1.000  H
  H316     1.0000 0.00220  0.70260  0.56420  Biso   1.000  H
  H317     1.0000 0.50220  0.79740  0.06420  Biso   1.000  H
  H318     1.0000 0.00220  0.29740  0.06420  Biso   1.000  H
  H319     1.0000 0.49780  0.79740  0.43580  Biso   1.000  H
  H320     1.0000 0.99780  0.29740  0.43580  Biso   1.000  H
  N73      1.0000 0.37920  0.20434  0.99200  Biso   1.000  N
  N74      1.0000 0.87920  0.70434  0.99200  Biso   1.000  N
  N75      1.0000 0.62080  0.20434  0.50800  Biso   1.000  N
  N76      1.0000 0.12080  0.70434  0.50800  Biso   1.000  N
  N77      1.0000 0.62080  0.79566  0.00800  Biso   1.000  N
  N78      1.0000 0.12080  0.29566  0.00800  Biso   1.000  N
  N79      1.0000 0.37920  0.79566  0.49200  Biso   1.000  N
  N80      1.0000 0.87920  0.29566  0.49200  Biso   1.000  N
  H321     1.0000 0.42300  0.21160  0.04490  Biso   1.000  H
  H322     1.0000 0.92300  0.71160  0.04490  Biso   1.000  H
  H323     1.0000 0.57700  0.21160  0.45510  Biso   1.000  H
  H324     1.0000 0.07700  0.71160  0.45510  Biso   1.000  H
  H325     1.0000 0.57700  0.78840  0.95510  Biso   1.000  H
  H326     1.0000 0.07700  0.28840  0.95510  Biso   1.000  H
  H327     1.0000 0.42300  0.78840  0.54490  Biso   1.000  H
  H328     1.0000 0.92300  0.28840  0.54490  Biso   1.000  H
  C257     1.0000 0.28880  0.19312  0.99427  Biso   1.000  C
  C258     1.0000 0.78880  0.69312  0.99427  Biso   1.000  C
  C259     1.0000 0.71120  0.19312  0.50573  Biso   1.000  C
  C260     1.0000 0.21120  0.69312  0.50573  Biso   1.000  C
  C261     1.0000 0.71120  0.80688  0.00573  Biso   1.000  C
  C262     1.0000 0.21120  0.30688  0.00573  Biso   1.000  C
  C263     1.0000 0.28880  0.80688  0.49427  Biso   1.000  C
  C264     1.0000 0.78880  0.30688  0.49427  Biso   1.000  C
  O41      1.0000 0.23972  0.17765  0.92858  Biso   1.000  O
  O42      1.0000 0.73972  0.67765  0.92858  Biso   1.000  O
  O43      1.0000 0.76028  0.17765  0.57142  Biso   1.000  O
  O44      1.0000 0.26028  0.67765  0.57142  Biso   1.000  O
  O45      1.0000 0.76028  0.82235  0.07142  Biso   1.000  O
  O46      1.0000 0.26028  0.32235  0.07142  Biso   1.000  O
  O47      1.0000 0.23972  0.82235  0.42858  Biso   1.000  O
  O48      1.0000 0.73972  0.32235  0.42858  Biso   1.000  O
  N81      1.0000 0.25620  0.20052  0.07188  Biso   1.000  N
  N82      1.0000 0.75620  0.70052  0.07188  Biso   1.000  N
  N83      1.0000 0.74380  0.20052  0.42812  Biso   1.000  N
  N84      1.0000 0.24380  0.70052  0.42812  Biso   1.000  N
  N85      1.0000 0.74380  0.79948  0.92812  Biso   1.000  N
  N86      1.0000 0.24380  0.29948  0.92812  Biso   1.000  N
  N87      1.0000 0.25620  0.79948  0.57188  Biso   1.000  N
  N88      1.0000 0.75620  0.29948  0.57188  Biso   1.000  N
  H329     1.0000 0.29620  0.21010  0.12210  Biso   1.000  H
  H330     1.0000 0.79620  0.71010  0.12210  Biso   1.000  H
  H331     1.0000 0.70380  0.21010  0.37790  Biso   1.000  H
  H332     1.0000 0.20380  0.71010  0.37790  Biso   1.000  H
  H333     1.0000 0.70380  0.78990  0.87790  Biso   1.000  H
  H334     1.0000 0.20380  0.28990  0.87790  Biso   1.000  H
  H335     1.0000 0.29620  0.78990  0.62210  Biso   1.000  H
  H336     1.0000 0.79620  0.28990  0.62210  Biso   1.000  H
  C265     1.0000 0.17180  0.18568  0.09340  Biso   1.000  C
  C266     1.0000 0.67180  0.68568  0.09340  Biso   1.000  C
  C267     1.0000 0.82820  0.18568  0.40660  Biso   1.000  C
  C268     1.0000 0.32820  0.68568  0.40660  Biso   1.000  C
  C269     1.0000 0.82820  0.81432  0.90660  Biso   1.000  C
  C270     1.0000 0.32820  0.31432  0.90660  Biso   1.000  C
  C271     1.0000 0.17180  0.81432  0.59340  Biso   1.000  C
  C272     1.0000 0.67180  0.31432  0.59340  Biso   1.000  C
  H337     1.0000 0.19030  0.18130  0.16370  Biso   1.000  H
  H338     1.0000 0.69030  0.68130  0.16370  Biso   1.000  H
  H339     1.0000 0.80970  0.18130  0.33630  Biso   1.000  H
  H340     1.0000 0.30970  0.68130  0.33630  Biso   1.000  H
  H341     1.0000 0.80970  0.81870  0.83630  Biso   1.000  H
  H342     1.0000 0.30970  0.31870  0.83630  Biso   1.000  H
  H343     1.0000 0.19030  0.81870  0.66370  Biso   1.000  H
  H344     1.0000 0.69030  0.31870  0.66370  Biso   1.000  H
  H345     1.0000 0.16230  0.16760  0.05800  Biso   1.000  H
  H346     1.0000 0.66230  0.66760  0.05800  Biso   1.000  H
  H347     1.0000 0.83770  0.16760  0.44200  Biso   1.000  H
  H348     1.0000 0.33770  0.66760  0.44200  Biso   1.000  H
  H349     1.0000 0.83770  0.83240  0.94200  Biso   1.000  H
  H350     1.0000 0.33770  0.33240  0.94200  Biso   1.000  H
  H351     1.0000 0.16230  0.83240  0.55800  Biso   1.000  H
  H352     1.0000 0.66230  0.33240  0.55800  Biso   1.000  H
  C273     1.0000 0.07170  0.20124  0.06763  Biso   1.000  C
  C274     1.0000 0.57170  0.70124  0.06763  Biso   1.000  C
  C275     1.0000 0.92830  0.20124  0.43237  Biso   1.000  C
  C276     1.0000 0.42830  0.70124  0.43237  Biso   1.000  C
  C277     1.0000 0.92830  0.79876  0.93237  Biso   1.000  C
  C278     1.0000 0.42830  0.29876  0.93237  Biso   1.000  C
  C279     1.0000 0.07170  0.79876  0.56763  Biso   1.000  C
  C280     1.0000 0.57170  0.29876  0.56763  Biso   1.000  C
  C281     1.0000 0.04200  0.21982  0.98975  Biso   1.000  C
  C282     1.0000 0.54200  0.71982  0.98975  Biso   1.000  C
  C283     1.0000 0.95800  0.21982  0.51025  Biso   1.000  C
  C284     1.0000 0.45800  0.71982  0.51025  Biso   1.000  C
  C285     1.0000 0.95800  0.78018  0.01025  Biso   1.000  C
  C286     1.0000 0.45800  0.28018  0.01025  Biso   1.000  C
  C287     1.0000 0.04200  0.78018  0.48975  Biso   1.000  C
  C288     1.0000 0.54200  0.28018  0.48975  Biso   1.000  C
  H353     1.0000 0.08580  0.22360  0.95000  Biso   1.000  H
  H354     1.0000 0.58580  0.72360  0.95000  Biso   1.000  H
  H355     1.0000 0.91420  0.22360  0.55000  Biso   1.000  H
  H356     1.0000 0.41420  0.72360  0.55000  Biso   1.000  H
  H357     1.0000 0.91420  0.77640  0.05000  Biso   1.000  H
  H358     1.0000 0.41420  0.27640  0.05000  Biso   1.000  H
  H359     1.0000 0.08580  0.77640  0.45000  Biso   1.000  H
  H360     1.0000 0.58580  0.27640  0.45000  Biso   1.000  H
  C289     1.0000 0.94780  0.23280  0.97071  Biso   1.000  C
  C290     1.0000 0.44780  0.73280  0.97071  Biso   1.000  C
  C291     1.0000 0.05220  0.23280  0.52929  Biso   1.000  C
  C292     1.0000 0.55220  0.73280  0.52929  Biso   1.000  C
  C293     1.0000 0.05220  0.76720  0.02929  Biso   1.000  C
  C294     1.0000 0.55220  0.26720  0.02929  Biso   1.000  C
  C295     1.0000 0.94780  0.76720  0.47071  Biso   1.000  C
  C296     1.0000 0.44780  0.26720  0.47071  Biso   1.000  C
  H361     1.0000 0.92700  0.24470  0.91550  Biso   1.000  H
  H362     1.0000 0.42700  0.74470  0.91550  Biso   1.000  H
  H363     1.0000 0.07300  0.24470  0.58450  Biso   1.000  H
  H364     1.0000 0.57300  0.74470  0.58450  Biso   1.000  H
  H365     1.0000 0.07300  0.75530  0.08450  Biso   1.000  H
  H366     1.0000 0.57300  0.25530  0.08450  Biso   1.000  H
  H367     1.0000 0.92700  0.75530  0.41550  Biso   1.000  H
  H368     1.0000 0.42700  0.25530  0.41550  Biso   1.000  H
  N89      1.0000 0.38583  0.27074  0.52669  Biso   1.000  N
  N90      1.0000 0.88583  0.77074  0.52669  Biso   1.000  N
  N91      1.0000 0.61417  0.27074  0.97331  Biso   1.000  N
  N92      1.0000 0.11417  0.77074  0.97331  Biso   1.000  N
  N93      1.0000 0.61417  0.72926  0.47331  Biso   1.000  N
  N94      1.0000 0.11417  0.22926  0.47331  Biso   1.000  N
  N95      1.0000 0.38583  0.72926  0.02669  Biso   1.000  N
  N96      1.0000 0.88583  0.22926  0.02669  Biso   1.000  N
  C297     1.0000 0.41320  0.28872  0.60130  Biso   1.000  C
  C298     1.0000 0.91320  0.78872  0.60130  Biso   1.000  C
  C299     1.0000 0.58680  0.28872  0.89870  Biso   1.000  C
  C300     1.0000 0.08680  0.78872  0.89870  Biso   1.000  C
  C301     1.0000 0.58680  0.71128  0.39870  Biso   1.000  C
  C302     1.0000 0.08680  0.21128  0.39870  Biso   1.000  C
  C303     1.0000 0.41320  0.71128  0.10130  Biso   1.000  C
  C304     1.0000 0.91320  0.21128  0.10130  Biso   1.000  C
  H369     1.0000 0.36860  0.29160  0.64100  Biso   1.000  H
  H370     1.0000 0.86860  0.79160  0.64100  Biso   1.000  H
  H371     1.0000 0.63140  0.29160  0.85900  Biso   1.000  H
  H372     1.0000 0.13140  0.79160  0.85900  Biso   1.000  H
  H373     1.0000 0.63140  0.70840  0.35900  Biso   1.000  H
  H374     1.0000 0.13140  0.20840  0.35900  Biso   1.000  H
  H375     1.0000 0.36860  0.70840  0.14100  Biso   1.000  H
  H376     1.0000 0.86860  0.20840  0.14100  Biso   1.000  H
  C305     1.0000 0.00400  0.19685  0.12240  Biso   1.000  C
  C306     1.0000 0.50400  0.69685  0.12240  Biso   1.000  C
  C307     1.0000 0.99600  0.19685  0.37760  Biso   1.000  C
  C308     1.0000 0.49600  0.69685  0.37760  Biso   1.000  C
  C309     1.0000 0.99600  0.80315  0.87760  Biso   1.000  C
  C310     1.0000 0.49600  0.30315  0.87760  Biso   1.000  C
  C311     1.0000 0.00400  0.80315  0.62240  Biso   1.000  C
  C312     1.0000 0.50400  0.30315  0.62240  Biso   1.000  C
  H377     1.0000 0.02000  0.18390  0.17470  Biso   1.000  H
  H378     1.0000 0.52000  0.68390  0.17470  Biso   1.000  H
  H379     1.0000 0.98000  0.18390  0.32530  Biso   1.000  H
  H380     1.0000 0.48000  0.68390  0.32530  Biso   1.000  H
  H381     1.0000 0.98000  0.81610  0.82530  Biso   1.000  H
  H382     1.0000 0.48000  0.31610  0.82530  Biso   1.000  H
  H383     1.0000 0.02000  0.81610  0.67470  Biso   1.000  H
  H384     1.0000 0.52000  0.31610  0.67470  Biso   1.000  H
  S1       1.0000 0.50000  0.22136  0.25000  Biso   1.000  S
  S2       1.0000 0.00000  0.72136  0.25000  Biso   1.000  S
  S3       1.0000 0.50000  0.77864  0.75000  Biso   1.000  S
  S4       1.0000 0.00000  0.27864  0.75000  Biso   1.000  S
  O49      1.0000 0.58510  0.23856  0.30443  Biso   1.000  O
  O50      1.0000 0.08510  0.73856  0.30443  Biso   1.000  O
  O51      1.0000 0.41490  0.23856  0.19557  Biso   1.000  O
  O52      1.0000 0.91490  0.73856  0.19557  Biso   1.000  O
  O53      1.0000 0.41490  0.76144  0.69557  Biso   1.000  O
  O54      1.0000 0.91490  0.26144  0.69557  Biso   1.000  O
  O55      1.0000 0.58510  0.76144  0.80443  Biso   1.000  O
  O56      1.0000 0.08510  0.26144  0.80443  Biso   1.000  O
  O57      1.0000 0.46760  0.20320  0.31906  Biso   1.000  O
  O58      1.0000 0.96760  0.70320  0.31906  Biso   1.000  O
  O59      1.0000 0.53240  0.20320  0.18094  Biso   1.000  O
  O60      1.0000 0.03240  0.70320  0.18094  Biso   1.000  O
  O61      1.0000 0.53240  0.79680  0.68094  Biso   1.000  O
  O62      1.0000 0.03240  0.29680  0.68094  Biso   1.000  O
  O63      1.0000 0.46760  0.79680  0.81906  Biso   1.000  O
  O64      1.0000 0.96760  0.29680  0.81906  Biso   1.000  O
  S5       1.0000 0.00000  0.05496  0.25000  Biso   1.000  S
  S6       1.0000 0.50000  0.55496  0.25000  Biso   1.000  S
  S7       1.0000 0.00000  0.94504  0.75000  Biso   1.000  S
  S8       1.0000 0.50000  0.44504  0.75000  Biso   1.000  S
  O65      1.0000 0.08440  0.07215  0.30410  Biso   1.000  O
  O66      1.0000 0.58440  0.57215  0.30410  Biso   1.000  O
  O67      1.0000 0.91560  0.07215  0.19590  Biso   1.000  O
  O68      1.0000 0.41560  0.57215  0.19590  Biso   1.000  O
  O69      1.0000 0.91560  0.92785  0.69590  Biso   1.000  O
  O70      1.0000 0.41560  0.42785  0.69590  Biso   1.000  O
  O71      1.0000 0.08440  0.92785  0.80410  Biso   1.000  O
  O72      1.0000 0.58440  0.42785  0.80410  Biso   1.000  O
  O73      1.0000 0.96660  0.03631  0.31830  Biso   1.000  O
  O74      1.0000 0.46660  0.53631  0.31830  Biso   1.000  O
  O75      1.0000 0.03340  0.03631  0.18170  Biso   1.000  O
  O76      1.0000 0.53340  0.53631  0.18170  Biso   1.000  O
  O77      1.0000 0.03340  0.96369  0.68170  Biso   1.000  O
  O78      1.0000 0.53340  0.46369  0.68170  Biso   1.000  O
  O79      1.0000 0.96660  0.96369  0.81830  Biso   1.000  O
  O80      1.0000 0.46660  0.46369  0.81830  Biso   1.000  O
  S9       1.0000 0.50000  0.11203  0.75000  Biso   1.000  S
  S10      1.0000 0.00000  0.61203  0.75000  Biso   1.000  S
  S11      1.0000 0.50000  0.88797  0.25000  Biso   1.000  S
  S12      1.0000 0.00000  0.38797  0.25000  Biso   1.000  S
  O81      1.0000 0.41630  0.09446  0.69650  Biso   1.000  O
  O82      1.0000 0.91630  0.59446  0.69650  Biso   1.000  O
  O83      1.0000 0.58370  0.09446  0.80350  Biso   1.000  O
  O84      1.0000 0.08370  0.59446  0.80350  Biso   1.000  O
  O85      1.0000 0.58370  0.90554  0.30350  Biso   1.000  O
  O86      1.0000 0.08370  0.40554  0.30350  Biso   1.000  O
  O87      1.0000 0.41630  0.90554  0.19650  Biso   1.000  O
  O88      1.0000 0.91630  0.40554  0.19650  Biso   1.000  O
  O89      1.0000 0.53120  0.13002  0.68060  Biso   1.000  O
  O90      1.0000 0.03120  0.63002  0.68060  Biso   1.000  O
  O91      1.0000 0.46880  0.13002  0.81940  Biso   1.000  O
  O92      1.0000 0.96880  0.63002  0.81940  Biso   1.000  O
  O93      1.0000 0.46880  0.86998  0.31940  Biso   1.000  O
  O94      1.0000 0.96880  0.36998  0.31940  Biso   1.000  O
  O95      1.0000 0.53120  0.86998  0.18060  Biso   1.000  O
  O96      1.0000 0.03120  0.36998  0.18060  Biso   1.000  O
  O97      1.0000 0.89860  0.13869  0.25030  Biso   1.000  O
  O98      1.0000 0.39860  0.63869  0.25030  Biso   1.000  O
  O99      1.0000 0.10140  0.13869  0.24970  Biso   1.000  O
  O100     1.0000 0.60140  0.63869  0.24970  Biso   1.000  O
  O101     1.0000 0.10140  0.86131  0.74970  Biso   1.000  O
  O102     1.0000 0.60140  0.36131  0.74970  Biso   1.000  O
  O103     1.0000 0.89860  0.86131  0.75030  Biso   1.000  O
  O104     1.0000 0.39860  0.36131  0.75030  Biso   1.000  O
  O105     1.0000 0.08940  0.20210  0.75750  Biso   1.000  O
  O106     1.0000 0.58940  0.70210  0.75750  Biso   1.000  O
  O107     1.0000 0.91060  0.20210  0.74250  Biso   1.000  O
  O108     1.0000 0.41060  0.70210  0.74250  Biso   1.000  O
  O109     1.0000 0.91060  0.79790  0.24250  Biso   1.000  O
  O110     1.0000 0.41060  0.29790  0.24250  Biso   1.000  O
  O111     1.0000 0.08940  0.79790  0.25750  Biso   1.000  O
  O112     1.0000 0.58940  0.29790  0.25750  Biso   1.000  O
  O113     1.0000 0.11470  0.18650  0.74130  Biso   1.000  O
  O114     1.0000 0.61470  0.68650  0.74130  Biso   1.000  O
  O115     1.0000 0.88530  0.18650  0.75870  Biso   1.000  O
  O116     1.0000 0.38530  0.68650  0.75870  Biso   1.000  O
  O117     1.0000 0.88530  0.81350  0.25870  Biso   1.000  O
  O118     1.0000 0.38530  0.31350  0.25870  Biso   1.000  O
  O119     1.0000 0.11470  0.81350  0.24130  Biso   1.000  O
  O120     1.0000 0.61470  0.31350  0.24130  Biso   1.000  O
  O121     1.0000 0.38630  0.02130  0.75840  Biso   1.000  O
  O122     1.0000 0.88630  0.52130  0.75840  Biso   1.000  O
  O123     1.0000 0.61370  0.02130  0.74160  Biso   1.000  O
  O124     1.0000 0.11370  0.52130  0.74160  Biso   1.000  O
  O125     1.0000 0.61370  0.97870  0.24160  Biso   1.000  O
  O126     1.0000 0.11370  0.47870  0.24160  Biso   1.000  O
  O127     1.0000 0.38630  0.97870  0.25840  Biso   1.000  O
  O128     1.0000 0.88630  0.47870  0.25840  Biso   1.000  O
  O129     1.0000 0.41350  0.03610  0.73810  Biso   1.000  O
  O130     1.0000 0.91350  0.53610  0.73810  Biso   1.000  O
  O131     1.0000 0.58650  0.03610  0.76190  Biso   1.000  O
  O132     1.0000 0.08650  0.53610  0.76190  Biso   1.000  O
  O133     1.0000 0.58650  0.96390  0.26190  Biso   1.000  O
  O134     1.0000 0.08650  0.46390  0.26190  Biso   1.000  O
  O135     1.0000 0.41350  0.96390  0.23810  Biso   1.000  O
  O136     1.0000 0.91350  0.46390  0.23810  Biso   1.000  O
