data_image0
_cell_length_a       24.439
_cell_length_b       27.623
_cell_length_c       31.467
_cell_angle_alpha    90
_cell_angle_beta     90
_cell_angle_gamma    90

_symmetry_space_group_name_H-M    "P 1"
_symmetry_int_tables_number       1

loop_
  _symmetry_equiv_pos_as_xyz
  'x, y, z'

loop_
  _atom_site_label
  _atom_site_occupancy
  _atom_site_fract_x
  _atom_site_fract_y
  _atom_site_fract_z
  _atom_site_thermal_displace_type
  _atom_site_B_iso_or_equiv
  _atom_site_type_symbol
  Cu1      1.0000 0.68808  0.82524  0.00000  Biso   1.000  Cu
  Cu2      1.0000 0.31192  0.17476  0.00000  Biso   1.000  Cu
  Cu3      1.0000 0.81192  0.32524  0.00000  Biso   1.000  Cu
  Cu4      1.0000 0.18808  0.67476  0.00000  Biso   1.000  Cu
  Cu5      1.0000 0.77655  0.76873  0.00000  Biso   1.000  Cu
  Cu6      1.0000 0.22345  0.23127  0.00000  Biso   1.000  Cu
  Cu7      1.0000 0.72345  0.26873  0.00000  Biso   1.000  Cu
  Cu8      1.0000 0.27655  0.73127  0.00000  Biso   1.000  Cu
  Cu9      1.0000 0.69921  0.76875  0.50000  Biso   1.000  Cu
  Cu10     1.0000 0.30079  0.23125  0.50000  Biso   1.000  Cu
  Cu11     1.0000 0.80079  0.26875  0.50000  Biso   1.000  Cu
  Cu12     1.0000 0.19921  0.73125  0.50000  Biso   1.000  Cu
  Cu13     1.0000 0.77939  0.83456  0.50000  Biso   1.000  Cu
  Cu14     1.0000 0.22061  0.16544  0.50000  Biso   1.000  Cu
  Cu15     1.0000 0.72061  0.33456  0.50000  Biso   1.000  Cu
  Cu16     1.0000 0.27939  0.66544  0.50000  Biso   1.000  Cu
  Cu17     1.0000 0.48857  0.73622  0.75041  Biso   1.000  Cu
  Cu18     1.0000 0.51143  0.26378  0.75041  Biso   1.000  Cu
  Cu19     1.0000 0.01143  0.23622  0.24959  Biso   1.000  Cu
  Cu20     1.0000 0.98857  0.76378  0.24959  Biso   1.000  Cu
  Cu21     1.0000 0.51143  0.26378  0.24959  Biso   1.000  Cu
  Cu22     1.0000 0.48857  0.73622  0.24959  Biso   1.000  Cu
  Cu23     1.0000 0.98857  0.76378  0.75041  Biso   1.000  Cu
  Cu24     1.0000 0.01143  0.23622  0.75041  Biso   1.000  Cu
  Cu25     1.0000 0.76162  0.52143  0.74910  Biso   1.000  Cu
  Cu26     1.0000 0.23838  0.47857  0.74910  Biso   1.000  Cu
  Cu27     1.0000 0.73838  0.02143  0.25090  Biso   1.000  Cu
  Cu28     1.0000 0.26162  0.97857  0.25090  Biso   1.000  Cu
  Cu29     1.0000 0.23838  0.47857  0.25090  Biso   1.000  Cu
  Cu30     1.0000 0.76162  0.52143  0.25090  Biso   1.000  Cu
  Cu31     1.0000 0.26162  0.97857  0.74910  Biso   1.000  Cu
  Cu32     1.0000 0.73838  0.02143  0.74910  Biso   1.000  Cu
  O1       1.0000 0.66050  0.78210  0.95565  Biso   1.000  O
  O2       1.0000 0.33950  0.21790  0.95565  Biso   1.000  O
  O3       1.0000 0.83950  0.28210  0.04435  Biso   1.000  O
  O4       1.0000 0.16050  0.71790  0.04435  Biso   1.000  O
  O5       1.0000 0.33950  0.21790  0.04435  Biso   1.000  O
  O6       1.0000 0.66050  0.78210  0.04435  Biso   1.000  O
  O7       1.0000 0.16050  0.71790  0.95565  Biso   1.000  O
  O8       1.0000 0.83950  0.28210  0.95565  Biso   1.000  O
  O9       1.0000 0.73530  0.73570  0.95575  Biso   1.000  O
  O10      1.0000 0.26470  0.26430  0.95575  Biso   1.000  O
  O11      1.0000 0.76470  0.23570  0.04425  Biso   1.000  O
  O12      1.0000 0.23530  0.76430  0.04425  Biso   1.000  O
  O13      1.0000 0.26470  0.26430  0.04425  Biso   1.000  O
  O14      1.0000 0.73530  0.73570  0.04425  Biso   1.000  O
  O15      1.0000 0.23530  0.76430  0.95575  Biso   1.000  O
  O16      1.0000 0.76470  0.23570  0.95575  Biso   1.000  O
  O17      1.0000 0.55570  0.72730  0.77941  Biso   1.000  O
  O18      1.0000 0.44430  0.27270  0.77941  Biso   1.000  O
  O19      1.0000 0.94430  0.22730  0.22059  Biso   1.000  O
  O20      1.0000 0.05570  0.77270  0.22059  Biso   1.000  O
  O21      1.0000 0.44430  0.27270  0.22059  Biso   1.000  O
  O22      1.0000 0.55570  0.72730  0.22059  Biso   1.000  O
  O23      1.0000 0.05570  0.77270  0.77941  Biso   1.000  O
  O24      1.0000 0.94430  0.22730  0.77941  Biso   1.000  O
  O25      1.0000 0.52500  0.76160  0.83837  Biso   1.000  O
  O26      1.0000 0.47500  0.23840  0.83837  Biso   1.000  O
  O27      1.0000 0.97500  0.26160  0.16163  Biso   1.000  O
  O28      1.0000 0.02500  0.73840  0.16163  Biso   1.000  O
  O29      1.0000 0.47500  0.23840  0.16163  Biso   1.000  O
  O30      1.0000 0.52500  0.76160  0.16163  Biso   1.000  O
  O31      1.0000 0.02500  0.73840  0.83837  Biso   1.000  O
  O32      1.0000 0.97500  0.26160  0.83837  Biso   1.000  O
  O33      1.0000 0.72770  0.85910  0.95675  Biso   1.000  O
  O34      1.0000 0.27230  0.14090  0.95675  Biso   1.000  O
  O35      1.0000 0.77230  0.35910  0.04325  Biso   1.000  O
  O36      1.0000 0.22770  0.64090  0.04325  Biso   1.000  O
  O37      1.0000 0.27230  0.14090  0.04325  Biso   1.000  O
  O38      1.0000 0.72770  0.85910  0.04325  Biso   1.000  O
  O39      1.0000 0.22770  0.64090  0.95675  Biso   1.000  O
  O40      1.0000 0.77230  0.35910  0.95675  Biso   1.000  O
  O41      1.0000 0.80460  0.81100  0.95651  Biso   1.000  O
  O42      1.0000 0.19540  0.18900  0.95651  Biso   1.000  O
  O43      1.0000 0.69540  0.31100  0.04349  Biso   1.000  O
  O44      1.0000 0.30460  0.68900  0.04349  Biso   1.000  O
  O45      1.0000 0.19540  0.18900  0.04349  Biso   1.000  O
  O46      1.0000 0.80460  0.81100  0.04349  Biso   1.000  O
  O47      1.0000 0.30460  0.68900  0.95651  Biso   1.000  O
  O48      1.0000 0.69540  0.31100  0.95651  Biso   1.000  O
  O49      1.0000 0.74260  0.97070  0.78847  Biso   1.000  O
  O50      1.0000 0.25740  0.02930  0.78847  Biso   1.000  O
  O51      1.0000 0.75740  0.47070  0.21153  Biso   1.000  O
  O52      1.0000 0.24260  0.52930  0.21153  Biso   1.000  O
  O53      1.0000 0.25740  0.02930  0.21153  Biso   1.000  O
  O54      1.0000 0.74260  0.97070  0.21153  Biso   1.000  O
  O55      1.0000 0.24260  0.52930  0.78847  Biso   1.000  O
  O56      1.0000 0.75740  0.47070  0.78847  Biso   1.000  O
  O57      1.0000 0.70860  0.99170  0.85210  Biso   1.000  O
  O58      1.0000 0.29140  0.00830  0.85210  Biso   1.000  O
  O59      1.0000 0.79140  0.49170  0.14790  Biso   1.000  O
  O60      1.0000 0.20860  0.50830  0.14790  Biso   1.000  O
  O61      1.0000 0.29140  0.00830  0.14790  Biso   1.000  O
  O62      1.0000 0.70860  0.99170  0.14790  Biso   1.000  O
  O63      1.0000 0.20860  0.50830  0.85210  Biso   1.000  O
  O64      1.0000 0.79140  0.49170  0.85210  Biso   1.000  O
  O65      1.0000 0.66510  0.80870  0.54492  Biso   1.000  O
  O66      1.0000 0.33490  0.19130  0.54492  Biso   1.000  O
  O67      1.0000 0.83490  0.30870  0.45508  Biso   1.000  O
  O68      1.0000 0.16510  0.69130  0.45508  Biso   1.000  O
  O69      1.0000 0.33490  0.19130  0.45508  Biso   1.000  O
  O70      1.0000 0.66510  0.80870  0.45508  Biso   1.000  O
  O71      1.0000 0.16510  0.69130  0.54492  Biso   1.000  O
  O72      1.0000 0.83490  0.30870  0.54492  Biso   1.000  O
  O73      1.0000 0.73470  0.86270  0.54415  Biso   1.000  O
  O74      1.0000 0.26530  0.13730  0.54415  Biso   1.000  O
  O75      1.0000 0.76530  0.36270  0.45585  Biso   1.000  O
  O76      1.0000 0.23470  0.63730  0.45585  Biso   1.000  O
  O77      1.0000 0.26530  0.13730  0.45585  Biso   1.000  O
  O78      1.0000 0.73470  0.86270  0.45585  Biso   1.000  O
  O79      1.0000 0.23470  0.63730  0.54415  Biso   1.000  O
  O80      1.0000 0.76530  0.36270  0.54415  Biso   1.000  O
  O81      1.0000 0.70070  0.97760  0.71221  Biso   1.000  O
  O82      1.0000 0.29930  0.02240  0.71221  Biso   1.000  O
  O83      1.0000 0.79930  0.47760  0.28779  Biso   1.000  O
  O84      1.0000 0.20070  0.52240  0.28779  Biso   1.000  O
  O85      1.0000 0.29930  0.02240  0.28779  Biso   1.000  O
  O86      1.0000 0.70070  0.97760  0.28779  Biso   1.000  O
  O87      1.0000 0.20070  0.52240  0.71221  Biso   1.000  O
  O88      1.0000 0.79930  0.47760  0.71221  Biso   1.000  O
  O89      1.0000 0.76200  0.97220  0.66110  Biso   1.000  O
  O90      1.0000 0.23800  0.02780  0.66110  Biso   1.000  O
  O91      1.0000 0.73800  0.47220  0.33890  Biso   1.000  O
  O92      1.0000 0.26200  0.52780  0.33890  Biso   1.000  O
  O93      1.0000 0.23800  0.02780  0.33890  Biso   1.000  O
  O94      1.0000 0.76200  0.97220  0.33890  Biso   1.000  O
  O95      1.0000 0.26200  0.52780  0.66110  Biso   1.000  O
  O96      1.0000 0.73800  0.47220  0.66110  Biso   1.000  O
  O97      1.0000 0.74380  0.73930  0.54389  Biso   1.000  O
  O98      1.0000 0.25620  0.26070  0.54389  Biso   1.000  O
  O99      1.0000 0.75620  0.23930  0.45611  Biso   1.000  O
  O100     1.0000 0.24380  0.76070  0.45611  Biso   1.000  O
  O101     1.0000 0.25620  0.26070  0.45611  Biso   1.000  O
  O102     1.0000 0.74380  0.73930  0.45611  Biso   1.000  O
  O103     1.0000 0.24380  0.76070  0.54389  Biso   1.000  O
  O104     1.0000 0.75620  0.23930  0.54389  Biso   1.000  O
  O105     1.0000 0.81180  0.79490  0.54376  Biso   1.000  O
  O106     1.0000 0.18820  0.20510  0.54376  Biso   1.000  O
  O107     1.0000 0.68820  0.29490  0.45624  Biso   1.000  O
  O108     1.0000 0.31180  0.70510  0.45624  Biso   1.000  O
  O109     1.0000 0.18820  0.20510  0.45624  Biso   1.000  O
  O110     1.0000 0.81180  0.79490  0.45624  Biso   1.000  O
  O111     1.0000 0.31180  0.70510  0.54376  Biso   1.000  O
  O112     1.0000 0.68820  0.29490  0.54376  Biso   1.000  O
  O113     1.0000 0.92350  0.75810  0.72002  Biso   1.000  O
  O114     1.0000 0.07650  0.24190  0.72002  Biso   1.000  O
  O115     1.0000 0.57650  0.25810  0.27998  Biso   1.000  O
  O116     1.0000 0.42350  0.74190  0.27998  Biso   1.000  O
  O117     1.0000 0.07650  0.24190  0.27998  Biso   1.000  O
  O118     1.0000 0.92350  0.75810  0.27998  Biso   1.000  O
  O119     1.0000 0.42350  0.74190  0.72002  Biso   1.000  O
  O120     1.0000 0.57650  0.25810  0.72002  Biso   1.000  O
  O121     1.0000 0.95900  0.78270  0.65744  Biso   1.000  O
  O122     1.0000 0.04100  0.21730  0.65744  Biso   1.000  O
  O123     1.0000 0.54100  0.28270  0.34256  Biso   1.000  O
  O124     1.0000 0.45900  0.71730  0.34256  Biso   1.000  O
  O125     1.0000 0.04100  0.21730  0.34256  Biso   1.000  O
  O126     1.0000 0.95900  0.78270  0.34256  Biso   1.000  O
  O127     1.0000 0.45900  0.71730  0.65744  Biso   1.000  O
  O128     1.0000 0.54100  0.28270  0.65744  Biso   1.000  O
  O129     1.0000 0.61810  0.87340  0.00000  Biso   1.000  O
  O130     1.0000 0.38190  0.12660  0.00000  Biso   1.000  O
  O131     1.0000 0.88190  0.37340  0.00000  Biso   1.000  O
  O132     1.0000 0.11810  0.62660  0.00000  Biso   1.000  O
  O133     1.0000 0.84190  0.71830  0.00000  Biso   1.000  O
  O134     1.0000 0.15810  0.28170  0.00000  Biso   1.000  O
  O135     1.0000 0.65810  0.21830  0.00000  Biso   1.000  O
  O136     1.0000 0.34190  0.78170  0.00000  Biso   1.000  O
  O137     1.0000 0.64060  0.71290  0.50000  Biso   1.000  O
  O138     1.0000 0.35940  0.28710  0.50000  Biso   1.000  O
  O139     1.0000 0.85940  0.21290  0.50000  Biso   1.000  O
  O140     1.0000 0.14060  0.78710  0.50000  Biso   1.000  O
  O141     1.0000 0.84110  0.88830  0.50000  Biso   1.000  O
  O142     1.0000 0.15890  0.11170  0.50000  Biso   1.000  O
  O143     1.0000 0.65890  0.38830  0.50000  Biso   1.000  O
  O144     1.0000 0.34110  0.61170  0.50000  Biso   1.000  O
  N1       1.0000 0.79600  0.60870  0.78800  Biso   1.000  N
  N2       1.0000 0.20400  0.39130  0.78800  Biso   1.000  N
  N3       1.0000 0.70400  0.10870  0.21200  Biso   1.000  N
  N4       1.0000 0.29600  0.89130  0.21200  Biso   1.000  N
  N5       1.0000 0.20400  0.39130  0.21200  Biso   1.000  N
  N6       1.0000 0.79600  0.60870  0.21200  Biso   1.000  N
  N7       1.0000 0.29600  0.89130  0.78800  Biso   1.000  N
  N8       1.0000 0.70400  0.10870  0.78800  Biso   1.000  N
  N9       1.0000 0.75330  0.57460  0.79040  Biso   1.000  N
  N10      1.0000 0.24670  0.42540  0.79040  Biso   1.000  N
  N11      1.0000 0.74670  0.07460  0.20960  Biso   1.000  N
  N12      1.0000 0.25330  0.92540  0.20960  Biso   1.000  N
  N13      1.0000 0.24670  0.42540  0.20960  Biso   1.000  N
  N14      1.0000 0.75330  0.57460  0.20960  Biso   1.000  N
  N15      1.0000 0.25330  0.92540  0.79040  Biso   1.000  N
  N16      1.0000 0.74670  0.07460  0.79040  Biso   1.000  N
  N17      1.0000 0.72460  0.63990  0.82032  Biso   1.000  N
  N18      1.0000 0.27540  0.36010  0.82032  Biso   1.000  N
  N19      1.0000 0.77540  0.13990  0.17968  Biso   1.000  N
  N20      1.0000 0.22460  0.86010  0.17968  Biso   1.000  N
  N21      1.0000 0.27540  0.36010  0.17968  Biso   1.000  N
  N22      1.0000 0.72460  0.63990  0.17968  Biso   1.000  N
  N23      1.0000 0.22460  0.86010  0.82032  Biso   1.000  N
  N24      1.0000 0.77540  0.13990  0.82032  Biso   1.000  N
  N25      1.0000 0.95570  0.81670  0.78387  Biso   1.000  N
  N26      1.0000 0.04430  0.18330  0.78387  Biso   1.000  N
  N27      1.0000 0.54430  0.31670  0.21613  Biso   1.000  N
  N28      1.0000 0.45570  0.68330  0.21613  Biso   1.000  N
  N29      1.0000 0.04430  0.18330  0.21613  Biso   1.000  N
  N30      1.0000 0.95570  0.81670  0.21613  Biso   1.000  N
  N31      1.0000 0.45570  0.68330  0.78387  Biso   1.000  N
  N32      1.0000 0.54430  0.31670  0.78387  Biso   1.000  N
  N33      1.0000 0.98040  0.86180  0.78750  Biso   1.000  N
  N34      1.0000 0.01960  0.13820  0.78750  Biso   1.000  N
  N35      1.0000 0.51960  0.36180  0.21250  Biso   1.000  N
  N36      1.0000 0.48040  0.63820  0.21250  Biso   1.000  N
  N37      1.0000 0.01960  0.13820  0.21250  Biso   1.000  N
  N38      1.0000 0.98040  0.86180  0.21250  Biso   1.000  N
  N39      1.0000 0.48040  0.63820  0.78750  Biso   1.000  N
  N40      1.0000 0.51960  0.36180  0.78750  Biso   1.000  N
  N41      1.0000 0.90040  0.86290  0.81970  Biso   1.000  N
  N42      1.0000 0.09960  0.13710  0.81970  Biso   1.000  N
  N43      1.0000 0.59960  0.36290  0.18030  Biso   1.000  N
  N44      1.0000 0.40040  0.63710  0.18030  Biso   1.000  N
  N45      1.0000 0.09960  0.13710  0.18030  Biso   1.000  N
  N46      1.0000 0.90040  0.86290  0.18030  Biso   1.000  N
  N47      1.0000 0.40040  0.63710  0.81970  Biso   1.000  N
  N48      1.0000 0.59960  0.36290  0.81970  Biso   1.000  N
  N49      1.0000 0.51760  0.79360  0.72092  Biso   1.000  N
  N50      1.0000 0.48240  0.20640  0.72092  Biso   1.000  N
  N51      1.0000 0.98240  0.29360  0.27908  Biso   1.000  N
  N52      1.0000 0.01760  0.70640  0.27908  Biso   1.000  N
  N53      1.0000 0.48240  0.20640  0.27908  Biso   1.000  N
  N54      1.0000 0.51760  0.79360  0.27908  Biso   1.000  N
  N55      1.0000 0.01760  0.70640  0.72092  Biso   1.000  N
  N56      1.0000 0.98240  0.29360  0.72092  Biso   1.000  N
  N57      1.0000 0.48790  0.83600  0.71740  Biso   1.000  N
  N58      1.0000 0.51210  0.16400  0.71740  Biso   1.000  N
  N59      1.0000 0.01210  0.33600  0.28260  Biso   1.000  N
  N60      1.0000 0.98790  0.66400  0.28260  Biso   1.000  N
  N61      1.0000 0.51210  0.16400  0.28260  Biso   1.000  N
  N62      1.0000 0.48790  0.83600  0.28260  Biso   1.000  N
  N63      1.0000 0.98790  0.66400  0.71740  Biso   1.000  N
  N64      1.0000 0.01210  0.33600  0.71740  Biso   1.000  N
  N65      1.0000 0.56870  0.84390  0.68397  Biso   1.000  N
  N66      1.0000 0.43130  0.15610  0.68397  Biso   1.000  N
  N67      1.0000 0.93130  0.34390  0.31603  Biso   1.000  N
  N68      1.0000 0.06870  0.65610  0.31603  Biso   1.000  N
  N69      1.0000 0.43130  0.15610  0.31603  Biso   1.000  N
  N70      1.0000 0.56870  0.84390  0.31603  Biso   1.000  N
  N71      1.0000 0.06870  0.65610  0.68397  Biso   1.000  N
  N72      1.0000 0.93130  0.34390  0.68397  Biso   1.000  N
  N73      1.0000 0.70790  0.60270  0.70890  Biso   1.000  N
  N74      1.0000 0.29210  0.39730  0.70890  Biso   1.000  N
  N75      1.0000 0.79210  0.10270  0.29110  Biso   1.000  N
  N76      1.0000 0.20790  0.89730  0.29110  Biso   1.000  N
  N77      1.0000 0.29210  0.39730  0.29110  Biso   1.000  N
  N78      1.0000 0.70790  0.60270  0.29110  Biso   1.000  N
  N79      1.0000 0.20790  0.89730  0.70890  Biso   1.000  N
  N80      1.0000 0.79210  0.10270  0.70890  Biso   1.000  N
  N81      1.0000 0.75480  0.57420  0.70584  Biso   1.000  N
  N82      1.0000 0.24520  0.42580  0.70584  Biso   1.000  N
  N83      1.0000 0.74520  0.07420  0.29416  Biso   1.000  N
  N84      1.0000 0.25480  0.92580  0.29416  Biso   1.000  N
  N85      1.0000 0.24520  0.42580  0.29416  Biso   1.000  N
  N86      1.0000 0.75480  0.57420  0.29416  Biso   1.000  N
  N87      1.0000 0.25480  0.92580  0.70584  Biso   1.000  N
  N88      1.0000 0.74520  0.07420  0.70584  Biso   1.000  N
  N89      1.0000 0.77320  0.64510  0.67867  Biso   1.000  N
  N90      1.0000 0.22680  0.35490  0.67867  Biso   1.000  N
  N91      1.0000 0.72680  0.14510  0.32133  Biso   1.000  N
  N92      1.0000 0.27320  0.85490  0.32133  Biso   1.000  N
  N93      1.0000 0.22680  0.35490  0.32133  Biso   1.000  N
  N94      1.0000 0.77320  0.64510  0.32133  Biso   1.000  N
  N95      1.0000 0.27320  0.85490  0.67867  Biso   1.000  N
  N96      1.0000 0.72680  0.14510  0.67867  Biso   1.000  N
  C1       1.0000 0.80700  0.69310  0.80820  Biso   1.000  C
  C2       1.0000 0.19300  0.30690  0.80820  Biso   1.000  C
  C3       1.0000 0.69300  0.19310  0.19180  Biso   1.000  C
  C4       1.0000 0.30700  0.80690  0.19180  Biso   1.000  C
  C5       1.0000 0.19300  0.30690  0.19180  Biso   1.000  C
  C6       1.0000 0.80700  0.69310  0.19180  Biso   1.000  C
  C7       1.0000 0.30700  0.80690  0.80820  Biso   1.000  C
  C8       1.0000 0.69300  0.19310  0.80820  Biso   1.000  C
  C9       1.0000 0.86220  0.69070  0.81570  Biso   1.000  C
  C10      1.0000 0.13780  0.30930  0.81570  Biso   1.000  C
  C11      1.0000 0.63780  0.19070  0.18430  Biso   1.000  C
  C12      1.0000 0.36220  0.80930  0.18430  Biso   1.000  C
  C13      1.0000 0.13780  0.30930  0.18430  Biso   1.000  C
  C14      1.0000 0.86220  0.69070  0.18430  Biso   1.000  C
  C15      1.0000 0.36220  0.80930  0.81570  Biso   1.000  C
  C16      1.0000 0.63780  0.19070  0.81570  Biso   1.000  C
  H1       1.0000 0.87850  0.66100  0.82130  Biso   1.000  H
  H2       1.0000 0.12150  0.33900  0.82130  Biso   1.000  H
  H3       1.0000 0.62150  0.16100  0.17870  Biso   1.000  H
  H4       1.0000 0.37850  0.83900  0.17870  Biso   1.000  H
  H5       1.0000 0.12150  0.33900  0.17870  Biso   1.000  H
  H6       1.0000 0.87850  0.66100  0.17870  Biso   1.000  H
  H7       1.0000 0.37850  0.83900  0.82130  Biso   1.000  H
  H8       1.0000 0.62150  0.16100  0.82130  Biso   1.000  H
  C17      1.0000 0.89310  0.73120  0.81480  Biso   1.000  C
  C18      1.0000 0.10690  0.26880  0.81480  Biso   1.000  C
  C19      1.0000 0.60690  0.23120  0.18520  Biso   1.000  C
  C20      1.0000 0.39310  0.76880  0.18520  Biso   1.000  C
  C21      1.0000 0.10690  0.26880  0.18520  Biso   1.000  C
  C22      1.0000 0.89310  0.73120  0.18520  Biso   1.000  C
  C23      1.0000 0.39310  0.76880  0.81480  Biso   1.000  C
  C24      1.0000 0.60690  0.23120  0.81480  Biso   1.000  C
  H9       1.0000 0.93070  0.72810  0.81870  Biso   1.000  H
  H10      1.0000 0.06930  0.27190  0.81870  Biso   1.000  H
  H11      1.0000 0.56930  0.22810  0.18130  Biso   1.000  H
  H12      1.0000 0.43070  0.77190  0.18130  Biso   1.000  H
  H13      1.0000 0.06930  0.27190  0.18130  Biso   1.000  H
  H14      1.0000 0.93070  0.72810  0.18130  Biso   1.000  H
  H15      1.0000 0.43070  0.77190  0.81870  Biso   1.000  H
  H16      1.0000 0.56930  0.22810  0.81870  Biso   1.000  H
  C25      1.0000 0.87210  0.77640  0.80850  Biso   1.000  C
  C26      1.0000 0.12790  0.22360  0.80850  Biso   1.000  C
  C27      1.0000 0.62790  0.27640  0.19150  Biso   1.000  C
  C28      1.0000 0.37210  0.72360  0.19150  Biso   1.000  C
  C29      1.0000 0.12790  0.22360  0.19150  Biso   1.000  C
  C30      1.0000 0.87210  0.77640  0.19150  Biso   1.000  C
  C31      1.0000 0.37210  0.72360  0.80850  Biso   1.000  C
  C32      1.0000 0.62790  0.27640  0.80850  Biso   1.000  C
  C33      1.0000 0.81800  0.77900  0.80140  Biso   1.000  C
  C34      1.0000 0.18200  0.22100  0.80140  Biso   1.000  C
  C35      1.0000 0.68200  0.27900  0.19860  Biso   1.000  C
  C36      1.0000 0.31800  0.72100  0.19860  Biso   1.000  C
  C37      1.0000 0.18200  0.22100  0.19860  Biso   1.000  C
  C38      1.0000 0.81800  0.77900  0.19860  Biso   1.000  C
  C39      1.0000 0.31800  0.72100  0.80140  Biso   1.000  C
  C40      1.0000 0.68200  0.27900  0.80140  Biso   1.000  C
  H17      1.0000 0.80240  0.80910  0.79610  Biso   1.000  H
  H18      1.0000 0.19760  0.19090  0.79610  Biso   1.000  H
  H19      1.0000 0.69760  0.30910  0.20390  Biso   1.000  H
  H20      1.0000 0.30240  0.69090  0.20390  Biso   1.000  H
  H21      1.0000 0.19760  0.19090  0.20390  Biso   1.000  H
  H22      1.0000 0.80240  0.80910  0.20390  Biso   1.000  H
  H23      1.0000 0.30240  0.69090  0.79610  Biso   1.000  H
  H24      1.0000 0.69760  0.30910  0.79610  Biso   1.000  H
  C41      1.0000 0.78410  0.73830  0.80160  Biso   1.000  C
  C42      1.0000 0.21590  0.26170  0.80160  Biso   1.000  C
  C43      1.0000 0.71590  0.23830  0.19840  Biso   1.000  C
  C44      1.0000 0.28410  0.76170  0.19840  Biso   1.000  C
  C45      1.0000 0.21590  0.26170  0.19840  Biso   1.000  C
  C46      1.0000 0.78410  0.73830  0.19840  Biso   1.000  C
  C47      1.0000 0.28410  0.76170  0.80160  Biso   1.000  C
  C48      1.0000 0.71590  0.23830  0.80160  Biso   1.000  C
  H25      1.0000 0.74660  0.74150  0.79730  Biso   1.000  H
  H26      1.0000 0.25340  0.25850  0.79730  Biso   1.000  H
  H27      1.0000 0.75340  0.24150  0.20270  Biso   1.000  H
  H28      1.0000 0.24660  0.75850  0.20270  Biso   1.000  H
  H29      1.0000 0.25340  0.25850  0.20270  Biso   1.000  H
  H30      1.0000 0.74660  0.74150  0.20270  Biso   1.000  H
  H31      1.0000 0.24660  0.75850  0.79730  Biso   1.000  H
  H32      1.0000 0.75340  0.24150  0.79730  Biso   1.000  H
  C49      1.0000 0.77610  0.64680  0.80560  Biso   1.000  C
  C50      1.0000 0.22390  0.35320  0.80560  Biso   1.000  C
  C51      1.0000 0.72390  0.14680  0.19440  Biso   1.000  C
  C52      1.0000 0.27610  0.85320  0.19440  Biso   1.000  C
  C53      1.0000 0.22390  0.35320  0.19440  Biso   1.000  C
  C54      1.0000 0.77610  0.64680  0.19440  Biso   1.000  C
  C55      1.0000 0.27610  0.85320  0.80560  Biso   1.000  C
  C56      1.0000 0.72390  0.14680  0.80560  Biso   1.000  C
  C57      1.0000 0.71300  0.59380  0.81010  Biso   1.000  C
  C58      1.0000 0.28700  0.40620  0.81010  Biso   1.000  C
  C59      1.0000 0.78700  0.09380  0.18990  Biso   1.000  C
  C60      1.0000 0.21300  0.90620  0.18990  Biso   1.000  C
  C61      1.0000 0.28700  0.40620  0.18990  Biso   1.000  C
  C62      1.0000 0.71300  0.59380  0.18990  Biso   1.000  C
  C63      1.0000 0.21300  0.90620  0.81010  Biso   1.000  C
  C64      1.0000 0.78700  0.09380  0.81010  Biso   1.000  C
  C65      1.0000 0.66230  0.56850  0.82100  Biso   1.000  C
  C66      1.0000 0.33770  0.43150  0.82100  Biso   1.000  C
  C67      1.0000 0.83770  0.06850  0.17900  Biso   1.000  C
  C68      1.0000 0.16230  0.93150  0.17900  Biso   1.000  C
  C69      1.0000 0.33770  0.43150  0.17900  Biso   1.000  C
  C70      1.0000 0.66230  0.56850  0.17900  Biso   1.000  C
  C71      1.0000 0.16230  0.93150  0.82100  Biso   1.000  C
  C72      1.0000 0.83770  0.06850  0.82100  Biso   1.000  C
  H33      1.0000 0.63820  0.59020  0.83580  Biso   1.000  H
  H34      1.0000 0.36180  0.40980  0.83580  Biso   1.000  H
  H35      1.0000 0.86180  0.09020  0.16420  Biso   1.000  H
  H36      1.0000 0.13820  0.90980  0.16420  Biso   1.000  H
  H37      1.0000 0.36180  0.40980  0.16420  Biso   1.000  H
  H38      1.0000 0.63820  0.59020  0.16420  Biso   1.000  H
  H39      1.0000 0.13820  0.90980  0.83580  Biso   1.000  H
  H40      1.0000 0.86180  0.09020  0.83580  Biso   1.000  H
  H41      1.0000 0.67050  0.54130  0.83890  Biso   1.000  H
  H42      1.0000 0.32950  0.45870  0.83890  Biso   1.000  H
  H43      1.0000 0.82950  0.04130  0.16110  Biso   1.000  H
  H44      1.0000 0.17050  0.95870  0.16110  Biso   1.000  H
  H45      1.0000 0.32950  0.45870  0.16110  Biso   1.000  H
  H46      1.0000 0.67050  0.54130  0.16110  Biso   1.000  H
  H47      1.0000 0.17050  0.95870  0.83890  Biso   1.000  H
  H48      1.0000 0.82950  0.04130  0.83890  Biso   1.000  H
  H49      1.0000 0.64480  0.55730  0.79550  Biso   1.000  H
  H50      1.0000 0.35520  0.44270  0.79550  Biso   1.000  H
  H51      1.0000 0.85520  0.05730  0.20450  Biso   1.000  H
  H52      1.0000 0.14480  0.94270  0.20450  Biso   1.000  H
  H53      1.0000 0.35520  0.44270  0.20450  Biso   1.000  H
  H54      1.0000 0.64480  0.55730  0.20450  Biso   1.000  H
  H55      1.0000 0.14480  0.94270  0.79550  Biso   1.000  H
  H56      1.0000 0.85520  0.05730  0.79550  Biso   1.000  H
  C73      1.0000 0.90740  0.81660  0.80400  Biso   1.000  C
  C74      1.0000 0.09260  0.18340  0.80400  Biso   1.000  C
  C75      1.0000 0.59260  0.31660  0.19600  Biso   1.000  C
  C76      1.0000 0.40740  0.68340  0.19600  Biso   1.000  C
  C77      1.0000 0.09260  0.18340  0.19600  Biso   1.000  C
  C78      1.0000 0.90740  0.81660  0.19600  Biso   1.000  C
  C79      1.0000 0.40740  0.68340  0.80400  Biso   1.000  C
  C80      1.0000 0.59260  0.31660  0.80400  Biso   1.000  C
  C81      1.0000 0.94520  0.88770  0.80880  Biso   1.000  C
  C82      1.0000 0.05480  0.11230  0.80880  Biso   1.000  C
  C83      1.0000 0.55480  0.38770  0.19120  Biso   1.000  C
  C84      1.0000 0.44520  0.61230  0.19120  Biso   1.000  C
  C85      1.0000 0.05480  0.11230  0.19120  Biso   1.000  C
  C86      1.0000 0.94520  0.88770  0.19120  Biso   1.000  C
  C87      1.0000 0.44520  0.61230  0.80880  Biso   1.000  C
  C88      1.0000 0.55480  0.38770  0.80880  Biso   1.000  C
  C89      1.0000 0.95320  0.94130  0.81950  Biso   1.000  C
  C90      1.0000 0.04680  0.05870  0.81950  Biso   1.000  C
  C91      1.0000 0.54680  0.44130  0.18050  Biso   1.000  C
  C92      1.0000 0.45320  0.55870  0.18050  Biso   1.000  C
  C93      1.0000 0.04680  0.05870  0.18050  Biso   1.000  C
  C94      1.0000 0.95320  0.94130  0.18050  Biso   1.000  C
  C95      1.0000 0.45320  0.55870  0.81950  Biso   1.000  C
  C96      1.0000 0.54680  0.44130  0.81950  Biso   1.000  C
  H57      1.0000 0.92210  0.95290  0.83520  Biso   1.000  H
  H58      1.0000 0.07790  0.04710  0.83520  Biso   1.000  H
  H59      1.0000 0.57790  0.45290  0.16480  Biso   1.000  H
  H60      1.0000 0.42210  0.54710  0.16480  Biso   1.000  H
  H61      1.0000 0.07790  0.04710  0.16480  Biso   1.000  H
  H62      1.0000 0.92210  0.95290  0.16480  Biso   1.000  H
  H63      1.0000 0.42210  0.54710  0.83520  Biso   1.000  H
  H64      1.0000 0.57790  0.45290  0.83520  Biso   1.000  H
  H65      1.0000 0.95700  0.95950  0.79370  Biso   1.000  H
  H66      1.0000 0.04300  0.04050  0.79370  Biso   1.000  H
  H67      1.0000 0.54300  0.45950  0.20630  Biso   1.000  H
  H68      1.0000 0.45700  0.54050  0.20630  Biso   1.000  H
  H69      1.0000 0.04300  0.04050  0.20630  Biso   1.000  H
  H70      1.0000 0.95700  0.95950  0.20630  Biso   1.000  H
  H71      1.0000 0.45700  0.54050  0.79370  Biso   1.000  H
  H72      1.0000 0.54300  0.45950  0.79370  Biso   1.000  H
  H73      1.0000 0.98570  0.94510  0.83640  Biso   1.000  H
  H74      1.0000 0.01430  0.05490  0.83640  Biso   1.000  H
  H75      1.0000 0.51430  0.44510  0.16360  Biso   1.000  H
  H76      1.0000 0.48570  0.55490  0.16360  Biso   1.000  H
  H77      1.0000 0.01430  0.05490  0.16360  Biso   1.000  H
  H78      1.0000 0.98570  0.94510  0.16360  Biso   1.000  H
  H79      1.0000 0.48570  0.55490  0.83640  Biso   1.000  H
  H80      1.0000 0.51430  0.44510  0.83640  Biso   1.000  H
  C97      1.0000 0.68930  0.67350  0.84150  Biso   1.000  C
  C98      1.0000 0.31070  0.32650  0.84150  Biso   1.000  C
  C99      1.0000 0.81070  0.17350  0.15850  Biso   1.000  C
  C100     1.0000 0.18930  0.82650  0.15850  Biso   1.000  C
  C101     1.0000 0.31070  0.32650  0.15850  Biso   1.000  C
  C102     1.0000 0.68930  0.67350  0.15850  Biso   1.000  C
  C103     1.0000 0.18930  0.82650  0.84150  Biso   1.000  C
  C104     1.0000 0.81070  0.17350  0.84150  Biso   1.000  C
  C105     1.0000 0.70570  0.69080  0.88130  Biso   1.000  C
  C106     1.0000 0.29430  0.30920  0.88130  Biso   1.000  C
  C107     1.0000 0.79430  0.19080  0.11870  Biso   1.000  C
  C108     1.0000 0.20570  0.80920  0.11870  Biso   1.000  C
  C109     1.0000 0.29430  0.30920  0.11870  Biso   1.000  C
  C110     1.0000 0.70570  0.69080  0.11870  Biso   1.000  C
  C111     1.0000 0.20570  0.80920  0.88130  Biso   1.000  C
  C112     1.0000 0.79430  0.19080  0.88130  Biso   1.000  C
  H81      1.0000 0.73750  0.68030  0.89460  Biso   1.000  H
  H82      1.0000 0.26250  0.31970  0.89460  Biso   1.000  H
  H83      1.0000 0.76250  0.18030  0.10540  Biso   1.000  H
  H84      1.0000 0.23750  0.81970  0.10540  Biso   1.000  H
  H85      1.0000 0.26250  0.31970  0.10540  Biso   1.000  H
  H86      1.0000 0.73750  0.68030  0.10540  Biso   1.000  H
  H87      1.0000 0.23750  0.81970  0.89460  Biso   1.000  H
  H88      1.0000 0.76250  0.18030  0.89460  Biso   1.000  H
  C113     1.0000 0.66970  0.72620  0.90000  Biso   1.000  C
  C114     1.0000 0.33030  0.27380  0.90000  Biso   1.000  C
  C115     1.0000 0.83030  0.22620  0.10000  Biso   1.000  C
  C116     1.0000 0.16970  0.77380  0.10000  Biso   1.000  C
  C117     1.0000 0.33030  0.27380  0.10000  Biso   1.000  C
  C118     1.0000 0.66970  0.72620  0.10000  Biso   1.000  C
  C119     1.0000 0.16970  0.77380  0.90000  Biso   1.000  C
  C120     1.0000 0.83030  0.22620  0.90000  Biso   1.000  C
  C121     1.0000 0.62200  0.74070  0.88040  Biso   1.000  C
  C122     1.0000 0.37800  0.25930  0.88040  Biso   1.000  C
  C123     1.0000 0.87800  0.24070  0.11960  Biso   1.000  C
  C124     1.0000 0.12200  0.75930  0.11960  Biso   1.000  C
  C125     1.0000 0.37800  0.25930  0.11960  Biso   1.000  C
  C126     1.0000 0.62200  0.74070  0.11960  Biso   1.000  C
  C127     1.0000 0.12200  0.75930  0.88040  Biso   1.000  C
  C128     1.0000 0.87800  0.24070  0.88040  Biso   1.000  C
  H89      1.0000 0.59890  0.76280  0.89370  Biso   1.000  H
  H90      1.0000 0.40110  0.23720  0.89370  Biso   1.000  H
  H91      1.0000 0.90110  0.26280  0.10630  Biso   1.000  H
  H92      1.0000 0.09890  0.73720  0.10630  Biso   1.000  H
  H93      1.0000 0.40110  0.23720  0.10630  Biso   1.000  H
  H94      1.0000 0.59890  0.76280  0.10630  Biso   1.000  H
  H95      1.0000 0.09890  0.73720  0.89370  Biso   1.000  H
  H96      1.0000 0.90110  0.26280  0.89370  Biso   1.000  H
  C129     1.0000 0.60880  0.72260  0.84120  Biso   1.000  C
  C130     1.0000 0.39120  0.27740  0.84120  Biso   1.000  C
  C131     1.0000 0.89120  0.22260  0.15880  Biso   1.000  C
  C132     1.0000 0.10880  0.77740  0.15880  Biso   1.000  C
  C133     1.0000 0.39120  0.27740  0.15880  Biso   1.000  C
  C134     1.0000 0.60880  0.72260  0.15880  Biso   1.000  C
  C135     1.0000 0.10880  0.77740  0.84120  Biso   1.000  C
  C136     1.0000 0.89120  0.22260  0.84120  Biso   1.000  C
  C137     1.0000 0.64380  0.68870  0.82190  Biso   1.000  C
  C138     1.0000 0.35620  0.31130  0.82190  Biso   1.000  C
  C139     1.0000 0.85620  0.18870  0.17810  Biso   1.000  C
  C140     1.0000 0.14380  0.81130  0.17810  Biso   1.000  C
  C141     1.0000 0.35620  0.31130  0.17810  Biso   1.000  C
  C142     1.0000 0.64380  0.68870  0.17810  Biso   1.000  C
  C143     1.0000 0.14380  0.81130  0.82190  Biso   1.000  C
  C144     1.0000 0.85620  0.18870  0.82190  Biso   1.000  C
  H97      1.0000 0.63520  0.67650  0.79520  Biso   1.000  H
  H98      1.0000 0.36480  0.32350  0.79520  Biso   1.000  H
  H99      1.0000 0.86480  0.17650  0.20480  Biso   1.000  H
  H100     1.0000 0.13520  0.82350  0.20480  Biso   1.000  H
  H101     1.0000 0.36480  0.32350  0.20480  Biso   1.000  H
  H102     1.0000 0.63520  0.67650  0.20480  Biso   1.000  H
  H103     1.0000 0.13520  0.82350  0.79520  Biso   1.000  H
  H104     1.0000 0.86480  0.17650  0.79520  Biso   1.000  H
  C145     1.0000 0.69040  0.74920  0.94050  Biso   1.000  C
  C146     1.0000 0.30960  0.25080  0.94050  Biso   1.000  C
  C147     1.0000 0.80960  0.24920  0.05950  Biso   1.000  C
  C148     1.0000 0.19040  0.75080  0.05950  Biso   1.000  C
  C149     1.0000 0.30960  0.25080  0.05950  Biso   1.000  C
  C150     1.0000 0.69040  0.74920  0.05950  Biso   1.000  C
  C151     1.0000 0.19040  0.75080  0.94050  Biso   1.000  C
  C152     1.0000 0.80960  0.24920  0.94050  Biso   1.000  C
  C153     1.0000 0.55850  0.74020  0.81840  Biso   1.000  C
  C154     1.0000 0.44150  0.25980  0.81840  Biso   1.000  C
  C155     1.0000 0.94150  0.24020  0.18160  Biso   1.000  C
  C156     1.0000 0.05850  0.75980  0.18160  Biso   1.000  C
  C157     1.0000 0.44150  0.25980  0.18160  Biso   1.000  C
  C158     1.0000 0.55850  0.74020  0.18160  Biso   1.000  C
  C159     1.0000 0.05850  0.75980  0.81840  Biso   1.000  C
  C160     1.0000 0.94150  0.24020  0.81840  Biso   1.000  C
  C161     1.0000 0.85370  0.87960  0.84340  Biso   1.000  C
  C162     1.0000 0.14630  0.12040  0.84340  Biso   1.000  C
  C163     1.0000 0.64630  0.37960  0.15660  Biso   1.000  C
  C164     1.0000 0.35370  0.62040  0.15660  Biso   1.000  C
  C165     1.0000 0.14630  0.12040  0.15660  Biso   1.000  C
  C166     1.0000 0.85370  0.87960  0.15660  Biso   1.000  C
  C167     1.0000 0.35370  0.62040  0.84340  Biso   1.000  C
  C168     1.0000 0.64630  0.37960  0.84340  Biso   1.000  C
  C169     1.0000 0.84110  0.85780  0.88290  Biso   1.000  C
  C170     1.0000 0.15890  0.14220  0.88290  Biso   1.000  C
  C171     1.0000 0.65890  0.35780  0.11710  Biso   1.000  C
  C172     1.0000 0.34110  0.64220  0.11710  Biso   1.000  C
  C173     1.0000 0.15890  0.14220  0.11710  Biso   1.000  C
  C174     1.0000 0.84110  0.85780  0.11710  Biso   1.000  C
  C175     1.0000 0.34110  0.64220  0.88290  Biso   1.000  C
  C176     1.0000 0.65890  0.35780  0.88290  Biso   1.000  C
  H105     1.0000 0.86370  0.83410  0.89450  Biso   1.000  H
  H106     1.0000 0.13630  0.16590  0.89450  Biso   1.000  H
  H107     1.0000 0.63630  0.33410  0.10550  Biso   1.000  H
  H108     1.0000 0.36370  0.66590  0.10550  Biso   1.000  H
  H109     1.0000 0.13630  0.16590  0.10550  Biso   1.000  H
  H110     1.0000 0.86370  0.83410  0.10550  Biso   1.000  H
  H111     1.0000 0.36370  0.66590  0.89450  Biso   1.000  H
  H112     1.0000 0.63630  0.33410  0.89450  Biso   1.000  H
  C177     1.0000 0.79500  0.87240  0.90340  Biso   1.000  C
  C178     1.0000 0.20500  0.12760  0.90340  Biso   1.000  C
  C179     1.0000 0.70500  0.37240  0.09660  Biso   1.000  C
  C180     1.0000 0.29500  0.62760  0.09660  Biso   1.000  C
  C181     1.0000 0.20500  0.12760  0.09660  Biso   1.000  C
  C182     1.0000 0.79500  0.87240  0.09660  Biso   1.000  C
  C183     1.0000 0.29500  0.62760  0.90340  Biso   1.000  C
  C184     1.0000 0.70500  0.37240  0.90340  Biso   1.000  C
  C185     1.0000 0.76320  0.91000  0.88780  Biso   1.000  C
  C186     1.0000 0.23680  0.09000  0.88780  Biso   1.000  C
  C187     1.0000 0.73680  0.41000  0.11220  Biso   1.000  C
  C188     1.0000 0.26320  0.59000  0.11220  Biso   1.000  C
  C189     1.0000 0.23680  0.09000  0.11220  Biso   1.000  C
  C190     1.0000 0.76320  0.91000  0.11220  Biso   1.000  C
  C191     1.0000 0.26320  0.59000  0.88780  Biso   1.000  C
  C192     1.0000 0.73680  0.41000  0.88780  Biso   1.000  C
  H113     1.0000 0.73390  0.92160  0.90360  Biso   1.000  H
  H114     1.0000 0.26610  0.07840  0.90360  Biso   1.000  H
  H115     1.0000 0.76610  0.42160  0.09640  Biso   1.000  H
  H116     1.0000 0.23390  0.57840  0.09640  Biso   1.000  H
  H117     1.0000 0.26610  0.07840  0.09640  Biso   1.000  H
  H118     1.0000 0.73390  0.92160  0.09640  Biso   1.000  H
  H119     1.0000 0.23390  0.57840  0.90360  Biso   1.000  H
  H120     1.0000 0.76610  0.42160  0.90360  Biso   1.000  H
  C193     1.0000 0.77550  0.93060  0.84770  Biso   1.000  C
  C194     1.0000 0.22450  0.06940  0.84770  Biso   1.000  C
  C195     1.0000 0.72450  0.43060  0.15230  Biso   1.000  C
  C196     1.0000 0.27550  0.56940  0.15230  Biso   1.000  C
  C197     1.0000 0.22450  0.06940  0.15230  Biso   1.000  C
  C198     1.0000 0.77550  0.93060  0.15230  Biso   1.000  C
  C199     1.0000 0.27550  0.56940  0.84770  Biso   1.000  C
  C200     1.0000 0.72450  0.43060  0.84770  Biso   1.000  C
  C201     1.0000 0.82140  0.91640  0.82680  Biso   1.000  C
  C202     1.0000 0.17860  0.08360  0.82680  Biso   1.000  C
  C203     1.0000 0.67860  0.41640  0.17320  Biso   1.000  C
  C204     1.0000 0.32140  0.58360  0.17320  Biso   1.000  C
  C205     1.0000 0.17860  0.08360  0.17320  Biso   1.000  C
  C206     1.0000 0.82140  0.91640  0.17320  Biso   1.000  C
  C207     1.0000 0.32140  0.58360  0.82680  Biso   1.000  C
  C208     1.0000 0.67860  0.41640  0.82680  Biso   1.000  C
  H121     1.0000 0.83130  0.93140  0.80150  Biso   1.000  H
  H122     1.0000 0.16870  0.06860  0.80150  Biso   1.000  H
  H123     1.0000 0.66870  0.43140  0.19850  Biso   1.000  H
  H124     1.0000 0.33130  0.56860  0.19850  Biso   1.000  H
  H125     1.0000 0.16870  0.06860  0.19850  Biso   1.000  H
  H126     1.0000 0.83130  0.93140  0.19850  Biso   1.000  H
  H127     1.0000 0.33130  0.56860  0.80150  Biso   1.000  H
  H128     1.0000 0.66870  0.43140  0.80150  Biso   1.000  H
  C209     1.0000 0.77420  0.84470  0.94330  Biso   1.000  C
  C210     1.0000 0.22580  0.15530  0.94330  Biso   1.000  C
  C211     1.0000 0.72580  0.34470  0.05670  Biso   1.000  C
  C212     1.0000 0.27420  0.65530  0.05670  Biso   1.000  C
  C213     1.0000 0.22580  0.15530  0.05670  Biso   1.000  C
  C214     1.0000 0.77420  0.84470  0.05670  Biso   1.000  C
  C215     1.0000 0.27420  0.65530  0.94330  Biso   1.000  C
  C216     1.0000 0.72580  0.34470  0.94330  Biso   1.000  C
  C217     1.0000 0.73850  0.96800  0.82820  Biso   1.000  C
  C218     1.0000 0.26150  0.03200  0.82820  Biso   1.000  C
  C219     1.0000 0.76150  0.46800  0.17180  Biso   1.000  C
  C220     1.0000 0.23850  0.53200  0.17180  Biso   1.000  C
  C221     1.0000 0.26150  0.03200  0.17180  Biso   1.000  C
  C222     1.0000 0.73850  0.96800  0.17180  Biso   1.000  C
  C223     1.0000 0.23850  0.53200  0.82820  Biso   1.000  C
  C224     1.0000 0.76150  0.46800  0.82820  Biso   1.000  C
  C225     1.0000 0.60630  0.76060  0.69600  Biso   1.000  C
  C226     1.0000 0.39370  0.23940  0.69600  Biso   1.000  C
  C227     1.0000 0.89370  0.26060  0.30400  Biso   1.000  C
  C228     1.0000 0.10630  0.73940  0.30400  Biso   1.000  C
  C229     1.0000 0.39370  0.23940  0.30400  Biso   1.000  C
  C230     1.0000 0.60630  0.76060  0.30400  Biso   1.000  C
  C231     1.0000 0.10630  0.73940  0.69600  Biso   1.000  C
  C232     1.0000 0.89370  0.26060  0.69600  Biso   1.000  C
  C233     1.0000 0.59090  0.71520  0.68350  Biso   1.000  C
  C234     1.0000 0.40910  0.28480  0.68350  Biso   1.000  C
  C235     1.0000 0.90910  0.21520  0.31650  Biso   1.000  C
  C236     1.0000 0.09090  0.78480  0.31650  Biso   1.000  C
  C237     1.0000 0.40910  0.28480  0.31650  Biso   1.000  C
  C238     1.0000 0.59090  0.71520  0.31650  Biso   1.000  C
  C239     1.0000 0.09090  0.78480  0.68350  Biso   1.000  C
  C240     1.0000 0.90910  0.21520  0.68350  Biso   1.000  C
  H129     1.0000 0.55480  0.70910  0.67570  Biso   1.000  H
  H130     1.0000 0.44520  0.29090  0.67570  Biso   1.000  H
  H131     1.0000 0.94520  0.20910  0.32430  Biso   1.000  H
  H132     1.0000 0.05480  0.79090  0.32430  Biso   1.000  H
  H133     1.0000 0.44520  0.29090  0.32430  Biso   1.000  H
  H134     1.0000 0.55480  0.70910  0.32430  Biso   1.000  H
  H135     1.0000 0.05480  0.79090  0.67570  Biso   1.000  H
  H136     1.0000 0.94520  0.20910  0.67570  Biso   1.000  H
  C241     1.0000 0.62960  0.67770  0.68260  Biso   1.000  C
  C242     1.0000 0.37040  0.32230  0.68260  Biso   1.000  C
  C243     1.0000 0.87040  0.17770  0.31740  Biso   1.000  C
  C244     1.0000 0.12960  0.82230  0.31740  Biso   1.000  C
  C245     1.0000 0.37040  0.32230  0.31740  Biso   1.000  C
  C246     1.0000 0.62960  0.67770  0.31740  Biso   1.000  C
  C247     1.0000 0.12960  0.82230  0.68260  Biso   1.000  C
  C248     1.0000 0.87040  0.17770  0.68260  Biso   1.000  C
  H137     1.0000 0.61800  0.64650  0.67610  Biso   1.000  H
  H138     1.0000 0.38200  0.35350  0.67610  Biso   1.000  H
  H139     1.0000 0.88200  0.14650  0.32390  Biso   1.000  H
  H140     1.0000 0.11800  0.85350  0.32390  Biso   1.000  H
  H141     1.0000 0.38200  0.35350  0.32390  Biso   1.000  H
  H142     1.0000 0.61800  0.64650  0.32390  Biso   1.000  H
  H143     1.0000 0.11800  0.85350  0.67610  Biso   1.000  H
  H144     1.0000 0.88200  0.14650  0.67610  Biso   1.000  H
  C249     1.0000 0.68230  0.68520  0.69060  Biso   1.000  C
  C250     1.0000 0.31770  0.31480  0.69060  Biso   1.000  C
  C251     1.0000 0.81770  0.18520  0.30940  Biso   1.000  C
  C252     1.0000 0.18230  0.81480  0.30940  Biso   1.000  C
  C253     1.0000 0.31770  0.31480  0.30940  Biso   1.000  C
  C254     1.0000 0.68230  0.68520  0.30940  Biso   1.000  C
  C255     1.0000 0.18230  0.81480  0.69060  Biso   1.000  C
  C256     1.0000 0.81770  0.18520  0.69060  Biso   1.000  C
  C257     1.0000 0.69910  0.73170  0.70200  Biso   1.000  C
  C258     1.0000 0.30090  0.26830  0.70200  Biso   1.000  C
  C259     1.0000 0.80090  0.23170  0.29800  Biso   1.000  C
  C260     1.0000 0.19910  0.76830  0.29800  Biso   1.000  C
  C261     1.0000 0.30090  0.26830  0.29800  Biso   1.000  C
  C262     1.0000 0.69910  0.73170  0.29800  Biso   1.000  C
  C263     1.0000 0.19910  0.76830  0.70200  Biso   1.000  C
  C264     1.0000 0.80090  0.23170  0.70200  Biso   1.000  C
  H145     1.0000 0.73570  0.73760  0.70820  Biso   1.000  H
  H146     1.0000 0.26430  0.26240  0.70820  Biso   1.000  H
  H147     1.0000 0.76430  0.23760  0.29180  Biso   1.000  H
  H148     1.0000 0.23570  0.76240  0.29180  Biso   1.000  H
  H149     1.0000 0.26430  0.26240  0.29180  Biso   1.000  H
  H150     1.0000 0.73570  0.73760  0.29180  Biso   1.000  H
  H151     1.0000 0.23570  0.76240  0.70820  Biso   1.000  H
  H152     1.0000 0.76430  0.23760  0.70820  Biso   1.000  H
  C265     1.0000 0.66100  0.76960  0.70420  Biso   1.000  C
  C266     1.0000 0.33900  0.23040  0.70420  Biso   1.000  C
  C267     1.0000 0.83900  0.26960  0.29580  Biso   1.000  C
  C268     1.0000 0.16100  0.73040  0.29580  Biso   1.000  C
  C269     1.0000 0.33900  0.23040  0.29580  Biso   1.000  C
  C270     1.0000 0.66100  0.76960  0.29580  Biso   1.000  C
  C271     1.0000 0.16100  0.73040  0.70420  Biso   1.000  C
  C272     1.0000 0.83900  0.26960  0.70420  Biso   1.000  C
  H153     1.0000 0.67250  0.80070  0.71120  Biso   1.000  H
  H154     1.0000 0.32750  0.19930  0.71120  Biso   1.000  H
  H155     1.0000 0.82750  0.30070  0.28880  Biso   1.000  H
  H156     1.0000 0.17250  0.69930  0.28880  Biso   1.000  H
  H157     1.0000 0.32750  0.19930  0.28880  Biso   1.000  H
  H158     1.0000 0.67250  0.80070  0.28880  Biso   1.000  H
  H159     1.0000 0.17250  0.69930  0.71120  Biso   1.000  H
  H160     1.0000 0.82750  0.30070  0.71120  Biso   1.000  H
  C273     1.0000 0.56420  0.79670  0.70150  Biso   1.000  C
  C274     1.0000 0.43580  0.20330  0.70150  Biso   1.000  C
  C275     1.0000 0.93580  0.29670  0.29850  Biso   1.000  C
  C276     1.0000 0.06420  0.70330  0.29850  Biso   1.000  C
  C277     1.0000 0.43580  0.20330  0.29850  Biso   1.000  C
  C278     1.0000 0.56420  0.79670  0.29850  Biso   1.000  C
  C279     1.0000 0.06420  0.70330  0.70150  Biso   1.000  C
  C280     1.0000 0.93580  0.29670  0.70150  Biso   1.000  C
  C281     1.0000 0.51960  0.86740  0.69690  Biso   1.000  C
  C282     1.0000 0.48040  0.13260  0.69690  Biso   1.000  C
  C283     1.0000 0.98040  0.36740  0.30310  Biso   1.000  C
  C284     1.0000 0.01960  0.63260  0.30310  Biso   1.000  C
  C285     1.0000 0.48040  0.13260  0.30310  Biso   1.000  C
  C286     1.0000 0.51960  0.86740  0.30310  Biso   1.000  C
  C287     1.0000 0.01960  0.63260  0.69690  Biso   1.000  C
  C288     1.0000 0.98040  0.36740  0.69690  Biso   1.000  C
  C289     1.0000 0.50710  0.91810  0.68560  Biso   1.000  C
  C290     1.0000 0.49290  0.08190  0.68560  Biso   1.000  C
  C291     1.0000 0.99290  0.41810  0.31440  Biso   1.000  C
  C292     1.0000 0.00710  0.58190  0.31440  Biso   1.000  C
  C293     1.0000 0.49290  0.08190  0.31440  Biso   1.000  C
  C294     1.0000 0.50710  0.91810  0.31440  Biso   1.000  C
  C295     1.0000 0.00710  0.58190  0.68560  Biso   1.000  C
  C296     1.0000 0.99290  0.41810  0.68560  Biso   1.000  C
  H161     1.0000 0.53760  0.93180  0.67060  Biso   1.000  H
  H162     1.0000 0.46240  0.06820  0.67060  Biso   1.000  H
  H163     1.0000 0.96240  0.43180  0.32940  Biso   1.000  H
  H164     1.0000 0.03760  0.56820  0.32940  Biso   1.000  H
  H165     1.0000 0.46240  0.06820  0.32940  Biso   1.000  H
  H166     1.0000 0.53760  0.93180  0.32940  Biso   1.000  H
  H167     1.0000 0.03760  0.56820  0.67060  Biso   1.000  H
  H168     1.0000 0.96240  0.43180  0.67060  Biso   1.000  H
  H169     1.0000 0.50050  0.93640  0.71100  Biso   1.000  H
  H170     1.0000 0.49950  0.06360  0.71100  Biso   1.000  H
  H171     1.0000 0.99950  0.43640  0.28900  Biso   1.000  H
  H172     1.0000 0.00050  0.56360  0.28900  Biso   1.000  H
  H173     1.0000 0.49950  0.06360  0.28900  Biso   1.000  H
  H174     1.0000 0.50050  0.93640  0.28900  Biso   1.000  H
  H175     1.0000 0.00050  0.56360  0.71100  Biso   1.000  H
  H176     1.0000 0.99950  0.43640  0.71100  Biso   1.000  H
  H177     1.0000 0.47520  0.91900  0.66780  Biso   1.000  H
  H178     1.0000 0.52480  0.08100  0.66780  Biso   1.000  H
  H179     1.0000 0.02480  0.41900  0.33220  Biso   1.000  H
  H180     1.0000 0.97520  0.58100  0.33220  Biso   1.000  H
  H181     1.0000 0.52480  0.08100  0.33220  Biso   1.000  H
  H182     1.0000 0.47520  0.91900  0.33220  Biso   1.000  H
  H183     1.0000 0.97520  0.58100  0.66780  Biso   1.000  H
  H184     1.0000 0.02480  0.41900  0.66780  Biso   1.000  H
  C297     1.0000 0.72100  0.64490  0.69250  Biso   1.000  C
  C298     1.0000 0.27900  0.35510  0.69250  Biso   1.000  C
  C299     1.0000 0.77900  0.14490  0.30750  Biso   1.000  C
  C300     1.0000 0.22100  0.85510  0.30750  Biso   1.000  C
  C301     1.0000 0.27900  0.35510  0.30750  Biso   1.000  C
  C302     1.0000 0.72100  0.64490  0.30750  Biso   1.000  C
  C303     1.0000 0.22100  0.85510  0.69250  Biso   1.000  C
  C304     1.0000 0.77900  0.14490  0.69250  Biso   1.000  C
  C305     1.0000 0.79230  0.59960  0.68870  Biso   1.000  C
  C306     1.0000 0.20770  0.40040  0.68870  Biso   1.000  C
  C307     1.0000 0.70770  0.09960  0.31130  Biso   1.000  C
  C308     1.0000 0.29230  0.90040  0.31130  Biso   1.000  C
  C309     1.0000 0.20770  0.40040  0.31130  Biso   1.000  C
  C310     1.0000 0.79230  0.59960  0.31130  Biso   1.000  C
  C311     1.0000 0.29230  0.90040  0.68870  Biso   1.000  C
  C312     1.0000 0.70770  0.09960  0.68870  Biso   1.000  C
  C313     1.0000 0.84870  0.58470  0.68080  Biso   1.000  C
  C314     1.0000 0.15130  0.41530  0.68080  Biso   1.000  C
  C315     1.0000 0.65130  0.08470  0.31920  Biso   1.000  C
  C316     1.0000 0.34870  0.91530  0.31920  Biso   1.000  C
  C317     1.0000 0.15130  0.41530  0.31920  Biso   1.000  C
  C318     1.0000 0.84870  0.58470  0.31920  Biso   1.000  C
  C319     1.0000 0.34870  0.91530  0.68080  Biso   1.000  C
  C320     1.0000 0.65130  0.08470  0.68080  Biso   1.000  C
  H185     1.0000 0.86820  0.61080  0.66760  Biso   1.000  H
  H186     1.0000 0.13180  0.38920  0.66760  Biso   1.000  H
  H187     1.0000 0.63180  0.11080  0.33240  Biso   1.000  H
  H188     1.0000 0.36820  0.88920  0.33240  Biso   1.000  H
  H189     1.0000 0.13180  0.38920  0.33240  Biso   1.000  H
  H190     1.0000 0.86820  0.61080  0.33240  Biso   1.000  H
  H191     1.0000 0.36820  0.88920  0.66760  Biso   1.000  H
  H192     1.0000 0.63180  0.11080  0.66760  Biso   1.000  H
  H193     1.0000 0.84890  0.55700  0.66230  Biso   1.000  H
  H194     1.0000 0.15110  0.44300  0.66230  Biso   1.000  H
  H195     1.0000 0.65110  0.05700  0.33770  Biso   1.000  H
  H196     1.0000 0.34890  0.94300  0.33770  Biso   1.000  H
  H197     1.0000 0.15110  0.44300  0.33770  Biso   1.000  H
  H198     1.0000 0.84890  0.55700  0.33770  Biso   1.000  H
  H199     1.0000 0.34890  0.94300  0.66230  Biso   1.000  H
  H200     1.0000 0.65110  0.05700  0.66230  Biso   1.000  H
  H201     1.0000 0.86590  0.57650  0.70720  Biso   1.000  H
  H202     1.0000 0.13410  0.42350  0.70720  Biso   1.000  H
  H203     1.0000 0.63410  0.07650  0.29280  Biso   1.000  H
  H204     1.0000 0.36590  0.92350  0.29280  Biso   1.000  H
  H205     1.0000 0.13410  0.42350  0.29280  Biso   1.000  H
  H206     1.0000 0.86590  0.57650  0.29280  Biso   1.000  H
  H207     1.0000 0.36590  0.92350  0.70720  Biso   1.000  H
  H208     1.0000 0.63410  0.07650  0.70720  Biso   1.000  H
  C321     1.0000 0.61330  0.86520  0.65930  Biso   1.000  C
  C322     1.0000 0.38670  0.13480  0.65930  Biso   1.000  C
  C323     1.0000 0.88670  0.36520  0.34070  Biso   1.000  C
  C324     1.0000 0.11330  0.63480  0.34070  Biso   1.000  C
  C325     1.0000 0.38670  0.13480  0.34070  Biso   1.000  C
  C326     1.0000 0.61330  0.86520  0.34070  Biso   1.000  C
  C327     1.0000 0.11330  0.63480  0.65930  Biso   1.000  C
  C328     1.0000 0.88670  0.36520  0.65930  Biso   1.000  C
  C329     1.0000 0.62580  0.84630  0.62180  Biso   1.000  C
  C330     1.0000 0.37420  0.15370  0.62180  Biso   1.000  C
  C331     1.0000 0.87420  0.34630  0.37820  Biso   1.000  C
  C332     1.0000 0.12580  0.65370  0.37820  Biso   1.000  C
  C333     1.0000 0.37420  0.15370  0.37820  Biso   1.000  C
  C334     1.0000 0.62580  0.84630  0.37820  Biso   1.000  C
  C335     1.0000 0.12580  0.65370  0.62180  Biso   1.000  C
  C336     1.0000 0.87420  0.34630  0.62180  Biso   1.000  C
  H209     1.0000 0.60590  0.82050  0.61070  Biso   1.000  H
  H210     1.0000 0.39410  0.17950  0.61070  Biso   1.000  H
  H211     1.0000 0.89410  0.32050  0.38930  Biso   1.000  H
  H212     1.0000 0.10590  0.67950  0.38930  Biso   1.000  H
  H213     1.0000 0.39410  0.17950  0.38930  Biso   1.000  H
  H214     1.0000 0.60590  0.82050  0.38930  Biso   1.000  H
  H215     1.0000 0.10590  0.67950  0.61070  Biso   1.000  H
  H216     1.0000 0.89410  0.32050  0.61070  Biso   1.000  H
  C337     1.0000 0.67000  0.86630  0.59930  Biso   1.000  C
  C338     1.0000 0.33000  0.13370  0.59930  Biso   1.000  C
  C339     1.0000 0.83000  0.36630  0.40070  Biso   1.000  C
  C340     1.0000 0.17000  0.63370  0.40070  Biso   1.000  C
  C341     1.0000 0.33000  0.13370  0.40070  Biso   1.000  C
  C342     1.0000 0.67000  0.86630  0.40070  Biso   1.000  C
  C343     1.0000 0.17000  0.63370  0.59930  Biso   1.000  C
  C344     1.0000 0.83000  0.36630  0.59930  Biso   1.000  C
  C345     1.0000 0.69760  0.90510  0.61740  Biso   1.000  C
  C346     1.0000 0.30240  0.09490  0.61740  Biso   1.000  C
  C347     1.0000 0.80240  0.40510  0.38260  Biso   1.000  C
  C348     1.0000 0.19760  0.59490  0.38260  Biso   1.000  C
  C349     1.0000 0.30240  0.09490  0.38260  Biso   1.000  C
  C350     1.0000 0.69760  0.90510  0.38260  Biso   1.000  C
  C351     1.0000 0.19760  0.59490  0.61740  Biso   1.000  C
  C352     1.0000 0.80240  0.40510  0.61740  Biso   1.000  C
  H217     1.0000 0.72660  0.91920  0.60280  Biso   1.000  H
  H218     1.0000 0.27340  0.08080  0.60280  Biso   1.000  H
  H219     1.0000 0.77340  0.41920  0.39720  Biso   1.000  H
  H220     1.0000 0.22660  0.58080  0.39720  Biso   1.000  H
  H221     1.0000 0.27340  0.08080  0.39720  Biso   1.000  H
  H222     1.0000 0.72660  0.91920  0.39720  Biso   1.000  H
  H223     1.0000 0.22660  0.58080  0.60280  Biso   1.000  H
  H224     1.0000 0.77340  0.41920  0.60280  Biso   1.000  H
  C353     1.0000 0.68280  0.92330  0.65690  Biso   1.000  C
  C354     1.0000 0.31720  0.07670  0.65690  Biso   1.000  C
  C355     1.0000 0.81720  0.42330  0.34310  Biso   1.000  C
  C356     1.0000 0.18280  0.57670  0.34310  Biso   1.000  C
  C357     1.0000 0.31720  0.07670  0.34310  Biso   1.000  C
  C358     1.0000 0.68280  0.92330  0.34310  Biso   1.000  C
  C359     1.0000 0.18280  0.57670  0.65690  Biso   1.000  C
  C360     1.0000 0.81720  0.42330  0.65690  Biso   1.000  C
  C361     1.0000 0.64040  0.90280  0.67810  Biso   1.000  C
  C362     1.0000 0.35960  0.09720  0.67810  Biso   1.000  C
  C363     1.0000 0.85960  0.40280  0.32190  Biso   1.000  C
  C364     1.0000 0.14040  0.59720  0.32190  Biso   1.000  C
  C365     1.0000 0.35960  0.09720  0.32190  Biso   1.000  C
  C366     1.0000 0.64040  0.90280  0.32190  Biso   1.000  C
  C367     1.0000 0.14040  0.59720  0.67810  Biso   1.000  C
  C368     1.0000 0.85960  0.40280  0.67810  Biso   1.000  C
  H225     1.0000 0.63000  0.91410  0.70470  Biso   1.000  H
  H226     1.0000 0.37000  0.08590  0.70470  Biso   1.000  H
  H227     1.0000 0.87000  0.41410  0.29530  Biso   1.000  H
  H228     1.0000 0.13000  0.58590  0.29530  Biso   1.000  H
  H229     1.0000 0.37000  0.08590  0.29530  Biso   1.000  H
  H230     1.0000 0.63000  0.91410  0.29530  Biso   1.000  H
  H231     1.0000 0.13000  0.58590  0.70470  Biso   1.000  H
  H232     1.0000 0.87000  0.41410  0.70470  Biso   1.000  H
  C369     1.0000 0.68970  0.84360  0.55870  Biso   1.000  C
  C370     1.0000 0.31030  0.15640  0.55870  Biso   1.000  C
  C371     1.0000 0.81030  0.34360  0.44130  Biso   1.000  C
  C372     1.0000 0.18970  0.65640  0.44130  Biso   1.000  C
  C373     1.0000 0.31030  0.15640  0.44130  Biso   1.000  C
  C374     1.0000 0.68970  0.84360  0.44130  Biso   1.000  C
  C375     1.0000 0.18970  0.65640  0.55870  Biso   1.000  C
  C376     1.0000 0.81030  0.34360  0.55870  Biso   1.000  C
  C377     1.0000 0.71730  0.96250  0.67850  Biso   1.000  C
  C378     1.0000 0.28270  0.03750  0.67850  Biso   1.000  C
  C379     1.0000 0.78270  0.46250  0.32150  Biso   1.000  C
  C380     1.0000 0.21730  0.53750  0.32150  Biso   1.000  C
  C381     1.0000 0.28270  0.03750  0.32150  Biso   1.000  C
  C382     1.0000 0.71730  0.96250  0.32150  Biso   1.000  C
  C383     1.0000 0.21730  0.53750  0.67850  Biso   1.000  C
  C384     1.0000 0.78270  0.46250  0.67850  Biso   1.000  C
  C385     1.0000 0.80090  0.68260  0.65790  Biso   1.000  C
  C386     1.0000 0.19910  0.31740  0.65790  Biso   1.000  C
  C387     1.0000 0.69910  0.18260  0.34210  Biso   1.000  C
  C388     1.0000 0.30090  0.81740  0.34210  Biso   1.000  C
  C389     1.0000 0.19910  0.31740  0.34210  Biso   1.000  C
  C390     1.0000 0.80090  0.68260  0.34210  Biso   1.000  C
  C391     1.0000 0.30090  0.81740  0.65790  Biso   1.000  C
  C392     1.0000 0.69910  0.18260  0.65790  Biso   1.000  C
  C393     1.0000 0.78260  0.69900  0.61800  Biso   1.000  C
  C394     1.0000 0.21740  0.30100  0.61800  Biso   1.000  C
  C395     1.0000 0.71740  0.19900  0.38200  Biso   1.000  C
  C396     1.0000 0.28260  0.80100  0.38200  Biso   1.000  C
  C397     1.0000 0.21740  0.30100  0.38200  Biso   1.000  C
  C398     1.0000 0.78260  0.69900  0.38200  Biso   1.000  C
  C399     1.0000 0.28260  0.80100  0.61800  Biso   1.000  C
  C400     1.0000 0.71740  0.19900  0.61800  Biso   1.000  C
  H233     1.0000 0.75290  0.68440  0.60480  Biso   1.000  H
  H234     1.0000 0.24710  0.31560  0.60480  Biso   1.000  H
  H235     1.0000 0.74710  0.18440  0.39520  Biso   1.000  H
  H236     1.0000 0.25290  0.81560  0.39520  Biso   1.000  H
  H237     1.0000 0.24710  0.31560  0.39520  Biso   1.000  H
  H238     1.0000 0.75290  0.68440  0.39520  Biso   1.000  H
  H239     1.0000 0.25290  0.81560  0.60480  Biso   1.000  H
  H240     1.0000 0.74710  0.18440  0.60480  Biso   1.000  H
  C401     1.0000 0.80960  0.73700  0.59880  Biso   1.000  C
  C402     1.0000 0.19040  0.26300  0.59880  Biso   1.000  C
  C403     1.0000 0.69040  0.23700  0.40120  Biso   1.000  C
  C404     1.0000 0.30960  0.76300  0.40120  Biso   1.000  C
  C405     1.0000 0.19040  0.26300  0.40120  Biso   1.000  C
  C406     1.0000 0.80960  0.73700  0.40120  Biso   1.000  C
  C407     1.0000 0.30960  0.76300  0.59880  Biso   1.000  C
  C408     1.0000 0.69040  0.23700  0.59880  Biso   1.000  C
  C409     1.0000 0.85800  0.75660  0.61730  Biso   1.000  C
  C410     1.0000 0.14200  0.24340  0.61730  Biso   1.000  C
  C411     1.0000 0.64200  0.25660  0.38270  Biso   1.000  C
  C412     1.0000 0.35800  0.74340  0.38270  Biso   1.000  C
  C413     1.0000 0.14200  0.24340  0.38270  Biso   1.000  C
  C414     1.0000 0.85800  0.75660  0.38270  Biso   1.000  C
  C415     1.0000 0.35800  0.74340  0.61730  Biso   1.000  C
  C416     1.0000 0.64200  0.25660  0.61730  Biso   1.000  C
  H241     1.0000 0.87790  0.78020  0.60290  Biso   1.000  H
  H242     1.0000 0.12210  0.21980  0.60290  Biso   1.000  H
  H243     1.0000 0.62210  0.28020  0.39710  Biso   1.000  H
  H244     1.0000 0.37790  0.71980  0.39710  Biso   1.000  H
  H245     1.0000 0.12210  0.21980  0.39710  Biso   1.000  H
  H246     1.0000 0.87790  0.78020  0.39710  Biso   1.000  H
  H247     1.0000 0.37790  0.71980  0.60290  Biso   1.000  H
  H248     1.0000 0.62210  0.28020  0.60290  Biso   1.000  H
  C417     1.0000 0.87520  0.74100  0.65630  Biso   1.000  C
  C418     1.0000 0.12480  0.25900  0.65630  Biso   1.000  C
  C419     1.0000 0.62480  0.24100  0.34370  Biso   1.000  C
  C420     1.0000 0.37520  0.75900  0.34370  Biso   1.000  C
  C421     1.0000 0.12480  0.25900  0.34370  Biso   1.000  C
  C422     1.0000 0.87520  0.74100  0.34370  Biso   1.000  C
  C423     1.0000 0.37520  0.75900  0.65630  Biso   1.000  C
  C424     1.0000 0.62480  0.24100  0.65630  Biso   1.000  C
  C425     1.0000 0.84620  0.70320  0.67800  Biso   1.000  C
  C426     1.0000 0.15380  0.29680  0.67800  Biso   1.000  C
  C427     1.0000 0.65380  0.20320  0.32200  Biso   1.000  C
  C428     1.0000 0.34620  0.79680  0.32200  Biso   1.000  C
  C429     1.0000 0.15380  0.29680  0.32200  Biso   1.000  C
  C430     1.0000 0.84620  0.70320  0.32200  Biso   1.000  C
  C431     1.0000 0.34620  0.79680  0.67800  Biso   1.000  C
  C432     1.0000 0.65380  0.20320  0.67800  Biso   1.000  C
  H249     1.0000 0.85730  0.69270  0.70480  Biso   1.000  H
  H250     1.0000 0.14270  0.30730  0.70480  Biso   1.000  H
  H251     1.0000 0.64270  0.19270  0.29520  Biso   1.000  H
  H252     1.0000 0.35730  0.80730  0.29520  Biso   1.000  H
  H253     1.0000 0.14270  0.30730  0.29520  Biso   1.000  H
  H254     1.0000 0.85730  0.69270  0.29520  Biso   1.000  H
  H255     1.0000 0.35730  0.80730  0.70480  Biso   1.000  H
  H256     1.0000 0.64270  0.19270  0.70480  Biso   1.000  H
  C433     1.0000 0.78540  0.75580  0.55770  Biso   1.000  C
  C434     1.0000 0.21460  0.24420  0.55770  Biso   1.000  C
  C435     1.0000 0.71460  0.25580  0.44230  Biso   1.000  C
  C436     1.0000 0.28540  0.74420  0.44230  Biso   1.000  C
  C437     1.0000 0.21460  0.24420  0.44230  Biso   1.000  C
  C438     1.0000 0.78540  0.75580  0.44230  Biso   1.000  C
  C439     1.0000 0.28540  0.74420  0.55770  Biso   1.000  C
  C440     1.0000 0.71460  0.25580  0.55770  Biso   1.000  C
  C441     1.0000 0.92330  0.76200  0.67990  Biso   1.000  C
  C442     1.0000 0.07670  0.23800  0.67990  Biso   1.000  C
  C443     1.0000 0.57670  0.26200  0.32010  Biso   1.000  C
  C444     1.0000 0.42330  0.73800  0.32010  Biso   1.000  C
  C445     1.0000 0.07670  0.23800  0.32010  Biso   1.000  C
  C446     1.0000 0.92330  0.76200  0.32010  Biso   1.000  C
  C447     1.0000 0.42330  0.73800  0.67990  Biso   1.000  C
  C448     1.0000 0.57670  0.26200  0.67990  Biso   1.000  C
  O145     1.0000 0.66620  0.50200  0.73140  Biso   1.000  O
  O146     1.0000 0.33380  0.49800  0.73140  Biso   1.000  O
  O147     1.0000 0.83380  0.00200  0.26860  Biso   1.000  O
  O148     1.0000 0.16620  0.99800  0.26860  Biso   1.000  O
  O149     1.0000 0.33380  0.49800  0.26860  Biso   1.000  O
  O150     1.0000 0.66620  0.50200  0.26860  Biso   1.000  O
  O151     1.0000 0.16620  0.99800  0.73140  Biso   1.000  O
  O152     1.0000 0.83380  0.00200  0.73140  Biso   1.000  O
