data_image0
_cell_length_a       17.74
_cell_length_b       22.157
_cell_length_c       22.245
_cell_angle_alpha    90
_cell_angle_beta     90
_cell_angle_gamma    90

_symmetry_space_group_name_H-M    "P 1"
_symmetry_int_tables_number       1

loop_
  _symmetry_equiv_pos_as_xyz
  'x, y, z'

loop_
  _atom_site_label
  _atom_site_occupancy
  _atom_site_fract_x
  _atom_site_fract_y
  _atom_site_fract_z
  _atom_site_thermal_displace_type
  _atom_site_B_iso_or_equiv
  _atom_site_type_symbol
  W1       1.0000 0.60117  0.82007  0.92097  Biso   1.000  W
  W2       1.0000 0.10117  0.32007  0.92097  Biso   1.000  W
  W3       1.0000 0.39883  0.17993  0.92097  Biso   1.000  W
  W4       1.0000 0.39883  0.82007  0.57903  Biso   1.000  W
  W5       1.0000 0.60117  0.17993  0.57903  Biso   1.000  W
  W6       1.0000 0.89883  0.67993  0.92097  Biso   1.000  W
  W7       1.0000 0.89883  0.32007  0.57903  Biso   1.000  W
  W8       1.0000 0.10117  0.67993  0.57903  Biso   1.000  W
  W9       1.0000 0.39883  0.17993  0.07903  Biso   1.000  W
  W10      1.0000 0.89883  0.67993  0.07903  Biso   1.000  W
  W11      1.0000 0.60117  0.82007  0.07903  Biso   1.000  W
  W12      1.0000 0.60117  0.17993  0.42097  Biso   1.000  W
  W13      1.0000 0.39883  0.82007  0.42097  Biso   1.000  W
  W14      1.0000 0.10117  0.32007  0.07903  Biso   1.000  W
  W15      1.0000 0.10117  0.67993  0.42097  Biso   1.000  W
  W16      1.0000 0.89883  0.32007  0.42097  Biso   1.000  W
  W17      1.0000 0.75000  0.75000  0.84162  Biso   1.000  W
  W18      1.0000 0.25000  0.25000  0.84162  Biso   1.000  W
  W19      1.0000 0.25000  0.75000  0.65838  Biso   1.000  W
  W20      1.0000 0.75000  0.25000  0.65838  Biso   1.000  W
  W21      1.0000 0.25000  0.25000  0.15838  Biso   1.000  W
  W22      1.0000 0.75000  0.75000  0.15838  Biso   1.000  W
  W23      1.0000 0.75000  0.25000  0.34162  Biso   1.000  W
  W24      1.0000 0.25000  0.75000  0.34162  Biso   1.000  W
  W25      1.0000 0.78228  0.88591  0.92063  Biso   1.000  W
  W26      1.0000 0.28228  0.38591  0.92063  Biso   1.000  W
  W27      1.0000 0.21772  0.11409  0.92063  Biso   1.000  W
  W28      1.0000 0.21772  0.88591  0.57937  Biso   1.000  W
  W29      1.0000 0.78228  0.11409  0.57937  Biso   1.000  W
  W30      1.0000 0.71772  0.61409  0.92063  Biso   1.000  W
  W31      1.0000 0.71772  0.38591  0.57937  Biso   1.000  W
  W32      1.0000 0.28228  0.61409  0.57937  Biso   1.000  W
  W33      1.0000 0.21772  0.11409  0.07937  Biso   1.000  W
  W34      1.0000 0.71772  0.61409  0.07937  Biso   1.000  W
  W35      1.0000 0.78228  0.88591  0.07937  Biso   1.000  W
  W36      1.0000 0.78228  0.11409  0.42063  Biso   1.000  W
  W37      1.0000 0.21772  0.88591  0.42063  Biso   1.000  W
  W38      1.0000 0.28228  0.38591  0.07937  Biso   1.000  W
  W39      1.0000 0.28228  0.61409  0.42063  Biso   1.000  W
  W40      1.0000 0.71772  0.38591  0.42063  Biso   1.000  W
  W41      1.0000 0.56960  0.68393  0.00000  Biso   1.000  W
  W42      1.0000 0.06960  0.18393  0.00000  Biso   1.000  W
  W43      1.0000 0.43040  0.31607  0.00000  Biso   1.000  W
  W44      1.0000 0.43040  0.68393  0.50000  Biso   1.000  W
  W45      1.0000 0.56960  0.31607  0.50000  Biso   1.000  W
  W46      1.0000 0.93040  0.81607  0.00000  Biso   1.000  W
  W47      1.0000 0.93040  0.18393  0.50000  Biso   1.000  W
  W48      1.0000 0.06960  0.81607  0.50000  Biso   1.000  W
  Si1      1.0000 0.75000  0.75000  0.00000  Biso   1.000  Si
  Si2      1.0000 0.25000  0.25000  0.00000  Biso   1.000  Si
  Si3      1.0000 0.25000  0.75000  0.50000  Biso   1.000  Si
  Si4      1.0000 0.75000  0.25000  0.50000  Biso   1.000  Si
  O1       1.0000 0.73250  0.78580  0.94060  Biso   1.000  O
  O2       1.0000 0.23250  0.28580  0.94060  Biso   1.000  O
  O3       1.0000 0.26750  0.21420  0.94060  Biso   1.000  O
  O4       1.0000 0.26750  0.78580  0.55940  Biso   1.000  O
  O5       1.0000 0.73250  0.21420  0.55940  Biso   1.000  O
  O6       1.0000 0.76750  0.71420  0.94060  Biso   1.000  O
  O7       1.0000 0.76750  0.28580  0.55940  Biso   1.000  O
  O8       1.0000 0.23250  0.71420  0.55940  Biso   1.000  O
  O9       1.0000 0.26750  0.21420  0.05940  Biso   1.000  O
  O10      1.0000 0.76750  0.71420  0.05940  Biso   1.000  O
  O11      1.0000 0.73250  0.78580  0.05940  Biso   1.000  O
  O12      1.0000 0.73250  0.21420  0.44060  Biso   1.000  O
  O13      1.0000 0.26750  0.78580  0.44060  Biso   1.000  O
  O14      1.0000 0.23250  0.28580  0.05940  Biso   1.000  O
  O15      1.0000 0.23250  0.71420  0.44060  Biso   1.000  O
  O16      1.0000 0.76750  0.28580  0.44060  Biso   1.000  O
  O17      1.0000 0.70900  0.68410  0.00000  Biso   1.000  O
  O18      1.0000 0.20900  0.18410  0.00000  Biso   1.000  O
  O19      1.0000 0.29100  0.31590  0.00000  Biso   1.000  O
  O20      1.0000 0.29100  0.68410  0.50000  Biso   1.000  O
  O21      1.0000 0.70900  0.31590  0.50000  Biso   1.000  O
  O22      1.0000 0.79100  0.81590  0.00000  Biso   1.000  O
  O23      1.0000 0.79100  0.18410  0.50000  Biso   1.000  O
  O24      1.0000 0.20900  0.81590  0.50000  Biso   1.000  O
  O25      1.0000 0.65570  0.76720  0.00000  Biso   1.000  O
  O26      1.0000 0.15570  0.26720  0.00000  Biso   1.000  O
  O27      1.0000 0.34430  0.23280  0.00000  Biso   1.000  O
  O28      1.0000 0.34430  0.76720  0.50000  Biso   1.000  O
  O29      1.0000 0.65570  0.23280  0.50000  Biso   1.000  O
  O30      1.0000 0.84430  0.73280  0.00000  Biso   1.000  O
  O31      1.0000 0.84430  0.26720  0.50000  Biso   1.000  O
  O32      1.0000 0.15570  0.73280  0.50000  Biso   1.000  O
  O33      1.0000 0.75000  0.75000  0.76470  Biso   1.000  O
  O34      1.0000 0.25000  0.25000  0.76470  Biso   1.000  O
  O35      1.0000 0.25000  0.75000  0.73530  Biso   1.000  O
  O36      1.0000 0.75000  0.25000  0.73530  Biso   1.000  O
  O37      1.0000 0.25000  0.25000  0.23530  Biso   1.000  O
  O38      1.0000 0.75000  0.75000  0.23530  Biso   1.000  O
  O39      1.0000 0.75000  0.25000  0.26470  Biso   1.000  O
  O40      1.0000 0.25000  0.75000  0.26470  Biso   1.000  O
  O41      1.0000 0.57910  0.84590  0.00000  Biso   1.000  O
  O42      1.0000 0.07910  0.34590  0.00000  Biso   1.000  O
  O43      1.0000 0.42090  0.15410  0.00000  Biso   1.000  O
  O44      1.0000 0.42090  0.84590  0.50000  Biso   1.000  O
  O45      1.0000 0.57910  0.15410  0.50000  Biso   1.000  O
  O46      1.0000 0.92090  0.65410  0.00000  Biso   1.000  O
  O47      1.0000 0.92090  0.34590  0.50000  Biso   1.000  O
  O48      1.0000 0.07910  0.65410  0.50000  Biso   1.000  O
  O49      1.0000 0.88240  0.86510  0.94010  Biso   1.000  O
  O50      1.0000 0.38240  0.36510  0.94010  Biso   1.000  O
  O51      1.0000 0.11760  0.13490  0.94010  Biso   1.000  O
  O52      1.0000 0.11760  0.86510  0.55990  Biso   1.000  O
  O53      1.0000 0.88240  0.13490  0.55990  Biso   1.000  O
  O54      1.0000 0.61760  0.63490  0.94010  Biso   1.000  O
  O55      1.0000 0.61760  0.36510  0.55990  Biso   1.000  O
  O56      1.0000 0.38240  0.63490  0.55990  Biso   1.000  O
  O57      1.0000 0.11760  0.13490  0.05990  Biso   1.000  O
  O58      1.0000 0.61760  0.63490  0.05990  Biso   1.000  O
  O59      1.0000 0.88240  0.86510  0.05990  Biso   1.000  O
  O60      1.0000 0.88240  0.13490  0.44010  Biso   1.000  O
  O61      1.0000 0.11760  0.86510  0.44010  Biso   1.000  O
  O62      1.0000 0.38240  0.36510  0.05990  Biso   1.000  O
  O63      1.0000 0.38240  0.63490  0.44010  Biso   1.000  O
  O64      1.0000 0.61760  0.36510  0.44010  Biso   1.000  O
  O65      1.0000 0.55850  0.74510  0.94070  Biso   1.000  O
  O66      1.0000 0.05850  0.24510  0.94070  Biso   1.000  O
  O67      1.0000 0.44150  0.25490  0.94070  Biso   1.000  O
  O68      1.0000 0.44150  0.74510  0.55930  Biso   1.000  O
  O69      1.0000 0.55850  0.25490  0.55930  Biso   1.000  O
  O70      1.0000 0.94150  0.75490  0.94070  Biso   1.000  O
  O71      1.0000 0.94150  0.24510  0.55930  Biso   1.000  O
  O72      1.0000 0.05850  0.75490  0.55930  Biso   1.000  O
  O73      1.0000 0.44150  0.25490  0.05930  Biso   1.000  O
  O74      1.0000 0.94150  0.75490  0.05930  Biso   1.000  O
  O75      1.0000 0.55850  0.74510  0.05930  Biso   1.000  O
  O76      1.0000 0.55850  0.25490  0.44070  Biso   1.000  O
  O77      1.0000 0.44150  0.74510  0.44070  Biso   1.000  O
  O78      1.0000 0.05850  0.24510  0.05930  Biso   1.000  O
  O79      1.0000 0.05850  0.75490  0.44070  Biso   1.000  O
  O80      1.0000 0.94150  0.24510  0.44070  Biso   1.000  O
  O81      1.0000 0.65270  0.78020  0.85830  Biso   1.000  O
  O82      1.0000 0.15270  0.28020  0.85830  Biso   1.000  O
  O83      1.0000 0.34730  0.21980  0.85830  Biso   1.000  O
  O84      1.0000 0.34730  0.78020  0.64170  Biso   1.000  O
  O85      1.0000 0.65270  0.21980  0.64170  Biso   1.000  O
  O86      1.0000 0.84730  0.71980  0.85830  Biso   1.000  O
  O87      1.0000 0.84730  0.28020  0.64170  Biso   1.000  O
  O88      1.0000 0.15270  0.71980  0.64170  Biso   1.000  O
  O89      1.0000 0.34730  0.21980  0.14170  Biso   1.000  O
  O90      1.0000 0.84730  0.71980  0.14170  Biso   1.000  O
  O91      1.0000 0.65270  0.78020  0.14170  Biso   1.000  O
  O92      1.0000 0.65270  0.21980  0.35830  Biso   1.000  O
  O93      1.0000 0.34730  0.78020  0.35830  Biso   1.000  O
  O94      1.0000 0.15270  0.28020  0.14170  Biso   1.000  O
  O95      1.0000 0.15270  0.71980  0.35830  Biso   1.000  O
  O96      1.0000 0.84730  0.28020  0.35830  Biso   1.000  O
  O97      1.0000 0.76890  0.91620  0.00000  Biso   1.000  O
  O98      1.0000 0.26890  0.41620  0.00000  Biso   1.000  O
  O99      1.0000 0.23110  0.08380  0.00000  Biso   1.000  O
  O100     1.0000 0.23110  0.91620  0.50000  Biso   1.000  O
  O101     1.0000 0.76890  0.08380  0.50000  Biso   1.000  O
  O102     1.0000 0.73110  0.58380  0.00000  Biso   1.000  O
  O103     1.0000 0.73110  0.41620  0.50000  Biso   1.000  O
  O104     1.0000 0.26890  0.58380  0.50000  Biso   1.000  O
  O105     1.0000 0.78620  0.82900  0.85670  Biso   1.000  O
  O106     1.0000 0.28620  0.32900  0.85670  Biso   1.000  O
  O107     1.0000 0.21380  0.17100  0.85670  Biso   1.000  O
  O108     1.0000 0.21380  0.82900  0.64330  Biso   1.000  O
  O109     1.0000 0.78620  0.17100  0.64330  Biso   1.000  O
  O110     1.0000 0.71380  0.67100  0.85670  Biso   1.000  O
  O111     1.0000 0.71380  0.32900  0.64330  Biso   1.000  O
  O112     1.0000 0.28620  0.67100  0.64330  Biso   1.000  O
  O113     1.0000 0.21380  0.17100  0.14330  Biso   1.000  O
  O114     1.0000 0.71380  0.67100  0.14330  Biso   1.000  O
  O115     1.0000 0.78620  0.82900  0.14330  Biso   1.000  O
  O116     1.0000 0.78620  0.17100  0.35670  Biso   1.000  O
  O117     1.0000 0.21380  0.82900  0.35670  Biso   1.000  O
  O118     1.0000 0.28620  0.32900  0.14330  Biso   1.000  O
  O119     1.0000 0.28620  0.67100  0.35670  Biso   1.000  O
  O120     1.0000 0.71380  0.32900  0.35670  Biso   1.000  O
  O121     1.0000 0.67700  0.88100  0.91640  Biso   1.000  O
  O122     1.0000 0.17700  0.38100  0.91640  Biso   1.000  O
  O123     1.0000 0.32300  0.11900  0.91640  Biso   1.000  O
  O124     1.0000 0.32300  0.88100  0.58360  Biso   1.000  O
  O125     1.0000 0.67700  0.11900  0.58360  Biso   1.000  O
  O126     1.0000 0.82300  0.61900  0.91640  Biso   1.000  O
  O127     1.0000 0.82300  0.38100  0.58360  Biso   1.000  O
  O128     1.0000 0.17700  0.61900  0.58360  Biso   1.000  O
  O129     1.0000 0.32300  0.11900  0.08360  Biso   1.000  O
  O130     1.0000 0.82300  0.61900  0.08360  Biso   1.000  O
  O131     1.0000 0.67700  0.88100  0.08360  Biso   1.000  O
  O132     1.0000 0.67700  0.11900  0.41640  Biso   1.000  O
  O133     1.0000 0.32300  0.88100  0.41640  Biso   1.000  O
  O134     1.0000 0.17700  0.38100  0.08360  Biso   1.000  O
  O135     1.0000 0.17700  0.61900  0.41640  Biso   1.000  O
  O136     1.0000 0.82300  0.38100  0.41640  Biso   1.000  O
  O137     1.0000 0.79550  0.95130  0.88180  Biso   1.000  O
  O138     1.0000 0.29550  0.45130  0.88180  Biso   1.000  O
  O139     1.0000 0.20450  0.04870  0.88180  Biso   1.000  O
  O140     1.0000 0.20450  0.95130  0.61820  Biso   1.000  O
  O141     1.0000 0.79550  0.04870  0.61820  Biso   1.000  O
  O142     1.0000 0.70450  0.54870  0.88180  Biso   1.000  O
  O143     1.0000 0.70450  0.45130  0.61820  Biso   1.000  O
  O144     1.0000 0.29550  0.54870  0.61820  Biso   1.000  O
  O145     1.0000 0.20450  0.04870  0.11820  Biso   1.000  O
  O146     1.0000 0.70450  0.54870  0.11820  Biso   1.000  O
  O147     1.0000 0.79550  0.95130  0.11820  Biso   1.000  O
  O148     1.0000 0.79550  0.04870  0.38180  Biso   1.000  O
  O149     1.0000 0.20450  0.95130  0.38180  Biso   1.000  O
  O150     1.0000 0.29550  0.45130  0.11820  Biso   1.000  O
  O151     1.0000 0.29550  0.54870  0.38180  Biso   1.000  O
  O152     1.0000 0.70450  0.45130  0.38180  Biso   1.000  O
  O153     1.0000 0.52970  0.85350  0.88390  Biso   1.000  O
  O154     1.0000 0.02970  0.35350  0.88390  Biso   1.000  O
  O155     1.0000 0.47030  0.14650  0.88390  Biso   1.000  O
  O156     1.0000 0.47030  0.85350  0.61610  Biso   1.000  O
  O157     1.0000 0.52970  0.14650  0.61610  Biso   1.000  O
  O158     1.0000 0.97030  0.64650  0.88390  Biso   1.000  O
  O159     1.0000 0.97030  0.35350  0.61610  Biso   1.000  O
  O160     1.0000 0.02970  0.64650  0.61610  Biso   1.000  O
  O161     1.0000 0.47030  0.14650  0.11610  Biso   1.000  O
  O162     1.0000 0.97030  0.64650  0.11610  Biso   1.000  O
  O163     1.0000 0.52970  0.85350  0.11610  Biso   1.000  O
  O164     1.0000 0.52970  0.14650  0.38390  Biso   1.000  O
  O165     1.0000 0.47030  0.85350  0.38390  Biso   1.000  O
  O166     1.0000 0.02970  0.35350  0.11610  Biso   1.000  O
  O167     1.0000 0.02970  0.64650  0.38390  Biso   1.000  O
  O168     1.0000 0.97030  0.35350  0.38390  Biso   1.000  O
  O169     1.0000 0.48190  0.65410  0.00000  Biso   1.000  O
  O170     1.0000 0.98190  0.15410  0.00000  Biso   1.000  O
  O171     1.0000 0.51810  0.34590  0.00000  Biso   1.000  O
  O172     1.0000 0.51810  0.65410  0.50000  Biso   1.000  O
  O173     1.0000 0.48190  0.34590  0.50000  Biso   1.000  O
  O174     1.0000 0.01810  0.84590  0.00000  Biso   1.000  O
  O175     1.0000 0.01810  0.15410  0.50000  Biso   1.000  O
  O176     1.0000 0.98190  0.84590  0.50000  Biso   1.000  O
  Cu1      1.0000 0.50000  0.00000  0.75000  Biso   1.000  Cu
  Cu2      1.0000 0.00000  0.50000  0.75000  Biso   1.000  Cu
  Cu3      1.0000 0.50000  0.00000  0.25000  Biso   1.000  Cu
  Cu4      1.0000 0.00000  0.50000  0.25000  Biso   1.000  Cu
  Cu5      1.0000 0.50000  0.50000  0.75000  Biso   1.000  Cu
  Cu6      1.0000 0.00000  0.00000  0.75000  Biso   1.000  Cu
  Cu7      1.0000 0.50000  0.50000  0.25000  Biso   1.000  Cu
  Cu8      1.0000 0.00000  0.00000  0.25000  Biso   1.000  Cu
  N1       1.0000 0.50000  0.91020  0.75000  Biso   1.000  N
  N2       1.0000 0.00000  0.41020  0.75000  Biso   1.000  N
  N3       1.0000 0.50000  0.08980  0.75000  Biso   1.000  N
  N4       1.0000 0.00000  0.58980  0.75000  Biso   1.000  N
  N5       1.0000 0.50000  0.08980  0.25000  Biso   1.000  N
  N6       1.0000 0.00000  0.58980  0.25000  Biso   1.000  N
  N7       1.0000 0.50000  0.91020  0.25000  Biso   1.000  N
  N8       1.0000 0.00000  0.41020  0.25000  Biso   1.000  N
  C1       1.0000 0.56080  0.87810  0.73520  Biso   1.000  C
  C2       1.0000 0.06080  0.37810  0.73520  Biso   1.000  C
  C3       1.0000 0.43920  0.12190  0.73520  Biso   1.000  C
  C4       1.0000 0.43920  0.87810  0.76480  Biso   1.000  C
  C5       1.0000 0.56080  0.12190  0.76480  Biso   1.000  C
  C6       1.0000 0.93920  0.62190  0.73520  Biso   1.000  C
  C7       1.0000 0.93920  0.37810  0.76480  Biso   1.000  C
  C8       1.0000 0.06080  0.62190  0.76480  Biso   1.000  C
  C9       1.0000 0.43920  0.12190  0.26480  Biso   1.000  C
  C10      1.0000 0.93920  0.62190  0.26480  Biso   1.000  C
  C11      1.0000 0.56080  0.87810  0.26480  Biso   1.000  C
  C12      1.0000 0.56080  0.12190  0.23520  Biso   1.000  C
  C13      1.0000 0.43920  0.87810  0.23520  Biso   1.000  C
  C14      1.0000 0.06080  0.37810  0.26480  Biso   1.000  C
  C15      1.0000 0.06080  0.62190  0.23520  Biso   1.000  C
  C16      1.0000 0.93920  0.37810  0.23520  Biso   1.000  C
  H1       1.0000 0.60450  0.89990  0.72340  Biso   1.000  H
  H2       1.0000 0.10450  0.39990  0.72340  Biso   1.000  H
  H3       1.0000 0.39550  0.10010  0.72340  Biso   1.000  H
  H4       1.0000 0.39550  0.89990  0.77660  Biso   1.000  H
  H5       1.0000 0.60450  0.10010  0.77660  Biso   1.000  H
  H6       1.0000 0.89550  0.60010  0.72340  Biso   1.000  H
  H7       1.0000 0.89550  0.39990  0.77660  Biso   1.000  H
  H8       1.0000 0.10450  0.60010  0.77660  Biso   1.000  H
  H9       1.0000 0.39550  0.10010  0.27660  Biso   1.000  H
  H10      1.0000 0.89550  0.60010  0.27660  Biso   1.000  H
  H11      1.0000 0.60450  0.89990  0.27660  Biso   1.000  H
  H12      1.0000 0.60450  0.10010  0.22340  Biso   1.000  H
  H13      1.0000 0.39550  0.89990  0.22340  Biso   1.000  H
  H14      1.0000 0.10450  0.39990  0.27660  Biso   1.000  H
  H15      1.0000 0.10450  0.60010  0.22340  Biso   1.000  H
  H16      1.0000 0.89550  0.39990  0.22340  Biso   1.000  H
  C17      1.0000 0.56560  0.81640  0.73550  Biso   1.000  C
  C18      1.0000 0.06560  0.31640  0.73550  Biso   1.000  C
  C19      1.0000 0.43440  0.18360  0.73550  Biso   1.000  C
  C20      1.0000 0.43440  0.81640  0.76450  Biso   1.000  C
  C21      1.0000 0.56560  0.18360  0.76450  Biso   1.000  C
  C22      1.0000 0.93440  0.68360  0.73550  Biso   1.000  C
  C23      1.0000 0.93440  0.31640  0.76450  Biso   1.000  C
  C24      1.0000 0.06560  0.68360  0.76450  Biso   1.000  C
  C25      1.0000 0.43440  0.18360  0.26450  Biso   1.000  C
  C26      1.0000 0.93440  0.68360  0.26450  Biso   1.000  C
  C27      1.0000 0.56560  0.81640  0.26450  Biso   1.000  C
  C28      1.0000 0.56560  0.18360  0.23550  Biso   1.000  C
  C29      1.0000 0.43440  0.81640  0.23550  Biso   1.000  C
  C30      1.0000 0.06560  0.31640  0.26450  Biso   1.000  C
  C31      1.0000 0.06560  0.68360  0.23550  Biso   1.000  C
  C32      1.0000 0.93440  0.31640  0.23550  Biso   1.000  C
  H17      1.0000 0.61150  0.79640  0.72620  Biso   1.000  H
  H18      1.0000 0.11150  0.29640  0.72620  Biso   1.000  H
  H19      1.0000 0.38850  0.20360  0.72620  Biso   1.000  H
  H20      1.0000 0.38850  0.79640  0.77380  Biso   1.000  H
  H21      1.0000 0.61150  0.20360  0.77380  Biso   1.000  H
  H22      1.0000 0.88850  0.70360  0.72620  Biso   1.000  H
  H23      1.0000 0.88850  0.29640  0.77380  Biso   1.000  H
  H24      1.0000 0.11150  0.70360  0.77380  Biso   1.000  H
  H25      1.0000 0.38850  0.20360  0.27380  Biso   1.000  H
  H26      1.0000 0.88850  0.70360  0.27380  Biso   1.000  H
  H27      1.0000 0.61150  0.79640  0.27380  Biso   1.000  H
  H28      1.0000 0.61150  0.20360  0.22620  Biso   1.000  H
  H29      1.0000 0.38850  0.79640  0.22620  Biso   1.000  H
  H30      1.0000 0.11150  0.29640  0.27380  Biso   1.000  H
  H31      1.0000 0.11150  0.70360  0.22620  Biso   1.000  H
  H32      1.0000 0.88850  0.29640  0.22620  Biso   1.000  H
  C33      1.0000 0.50000  0.78350  0.75000  Biso   1.000  C
  C34      1.0000 0.00000  0.28350  0.75000  Biso   1.000  C
  C35      1.0000 0.50000  0.21650  0.75000  Biso   1.000  C
  C36      1.0000 0.00000  0.71650  0.75000  Biso   1.000  C
  C37      1.0000 0.50000  0.21650  0.25000  Biso   1.000  C
  C38      1.0000 0.00000  0.71650  0.25000  Biso   1.000  C
  C39      1.0000 0.50000  0.78350  0.25000  Biso   1.000  C
  C40      1.0000 0.00000  0.28350  0.25000  Biso   1.000  C
  C41      1.0000 0.50000  0.71750  0.75000  Biso   1.000  C
  C42      1.0000 0.00000  0.21750  0.75000  Biso   1.000  C
  C43      1.0000 0.50000  0.28250  0.75000  Biso   1.000  C
  C44      1.0000 0.00000  0.78250  0.75000  Biso   1.000  C
  C45      1.0000 0.50000  0.28250  0.25000  Biso   1.000  C
  C46      1.0000 0.00000  0.78250  0.25000  Biso   1.000  C
  C47      1.0000 0.50000  0.71750  0.25000  Biso   1.000  C
  C48      1.0000 0.00000  0.21750  0.25000  Biso   1.000  C
  C49      1.0000 0.54720  0.68380  0.78810  Biso   1.000  C
  C50      1.0000 0.04720  0.18380  0.78810  Biso   1.000  C
  C51      1.0000 0.45280  0.31620  0.78810  Biso   1.000  C
  C52      1.0000 0.45280  0.68380  0.71190  Biso   1.000  C
  C53      1.0000 0.54720  0.31620  0.71190  Biso   1.000  C
  C54      1.0000 0.95280  0.81620  0.78810  Biso   1.000  C
  C55      1.0000 0.95280  0.18380  0.71190  Biso   1.000  C
  C56      1.0000 0.04720  0.81620  0.71190  Biso   1.000  C
  C57      1.0000 0.45280  0.31620  0.21190  Biso   1.000  C
  C58      1.0000 0.95280  0.81620  0.21190  Biso   1.000  C
  C59      1.0000 0.54720  0.68380  0.21190  Biso   1.000  C
  C60      1.0000 0.54720  0.31620  0.28810  Biso   1.000  C
  C61      1.0000 0.45280  0.68380  0.28810  Biso   1.000  C
  C62      1.0000 0.04720  0.18380  0.21190  Biso   1.000  C
  C63      1.0000 0.04720  0.81620  0.28810  Biso   1.000  C
  C64      1.0000 0.95280  0.18380  0.28810  Biso   1.000  C
  H33      1.0000 0.58100  0.70410  0.81440  Biso   1.000  H
  H34      1.0000 0.08100  0.20410  0.81440  Biso   1.000  H
  H35      1.0000 0.41900  0.29590  0.81440  Biso   1.000  H
  H36      1.0000 0.41900  0.70410  0.68560  Biso   1.000  H
  H37      1.0000 0.58100  0.29590  0.68560  Biso   1.000  H
  H38      1.0000 0.91900  0.79590  0.81440  Biso   1.000  H
  H39      1.0000 0.91900  0.20410  0.68560  Biso   1.000  H
  H40      1.0000 0.08100  0.79590  0.68560  Biso   1.000  H
  H41      1.0000 0.41900  0.29590  0.18560  Biso   1.000  H
  H42      1.0000 0.91900  0.79590  0.18560  Biso   1.000  H
  H43      1.0000 0.58100  0.70410  0.18560  Biso   1.000  H
  H44      1.0000 0.58100  0.29590  0.31440  Biso   1.000  H
  H45      1.0000 0.41900  0.70410  0.31440  Biso   1.000  H
  H46      1.0000 0.08100  0.20410  0.18560  Biso   1.000  H
  H47      1.0000 0.08100  0.79590  0.31440  Biso   1.000  H
  H48      1.0000 0.91900  0.20410  0.31440  Biso   1.000  H
  C65      1.0000 0.54500  0.62140  0.78800  Biso   1.000  C
  C66      1.0000 0.04500  0.12140  0.78800  Biso   1.000  C
  C67      1.0000 0.45500  0.37860  0.78800  Biso   1.000  C
  C68      1.0000 0.45500  0.62140  0.71200  Biso   1.000  C
  C69      1.0000 0.54500  0.37860  0.71200  Biso   1.000  C
  C70      1.0000 0.95500  0.87860  0.78800  Biso   1.000  C
  C71      1.0000 0.95500  0.12140  0.71200  Biso   1.000  C
  C72      1.0000 0.04500  0.87860  0.71200  Biso   1.000  C
  C73      1.0000 0.45500  0.37860  0.21200  Biso   1.000  C
  C74      1.0000 0.95500  0.87860  0.21200  Biso   1.000  C
  C75      1.0000 0.54500  0.62140  0.21200  Biso   1.000  C
  C76      1.0000 0.54500  0.37860  0.28800  Biso   1.000  C
  C77      1.0000 0.45500  0.62140  0.28800  Biso   1.000  C
  C78      1.0000 0.04500  0.12140  0.21200  Biso   1.000  C
  C79      1.0000 0.04500  0.87860  0.28800  Biso   1.000  C
  C80      1.0000 0.95500  0.12140  0.28800  Biso   1.000  C
  H49      1.0000 0.57610  0.59990  0.81530  Biso   1.000  H
  H50      1.0000 0.07610  0.09990  0.81530  Biso   1.000  H
  H51      1.0000 0.42390  0.40010  0.81530  Biso   1.000  H
  H52      1.0000 0.42390  0.59990  0.68470  Biso   1.000  H
  H53      1.0000 0.57610  0.40010  0.68470  Biso   1.000  H
  H54      1.0000 0.92390  0.90010  0.81530  Biso   1.000  H
  H55      1.0000 0.92390  0.09990  0.68470  Biso   1.000  H
  H56      1.0000 0.07610  0.90010  0.68470  Biso   1.000  H
  H57      1.0000 0.42390  0.40010  0.18470  Biso   1.000  H
  H58      1.0000 0.92390  0.90010  0.18470  Biso   1.000  H
  H59      1.0000 0.57610  0.59990  0.18470  Biso   1.000  H
  H60      1.0000 0.57610  0.40010  0.31530  Biso   1.000  H
  H61      1.0000 0.42390  0.59990  0.31530  Biso   1.000  H
  H62      1.0000 0.07610  0.09990  0.18470  Biso   1.000  H
  H63      1.0000 0.07610  0.90010  0.31530  Biso   1.000  H
  H64      1.0000 0.92390  0.09990  0.31530  Biso   1.000  H
  N9       1.0000 0.50000  0.59000  0.75000  Biso   1.000  N
  N10      1.0000 0.00000  0.09000  0.75000  Biso   1.000  N
  N11      1.0000 0.50000  0.41000  0.75000  Biso   1.000  N
  N12      1.0000 0.00000  0.91000  0.75000  Biso   1.000  N
  N13      1.0000 0.50000  0.41000  0.25000  Biso   1.000  N
  N14      1.0000 0.00000  0.91000  0.25000  Biso   1.000  N
  N15      1.0000 0.50000  0.59000  0.25000  Biso   1.000  N
  N16      1.0000 0.00000  0.09000  0.25000  Biso   1.000  N
  N17      1.0000 0.50000  0.50000  0.84030  Biso   1.000  N
  N18      1.0000 0.00000  0.00000  0.84030  Biso   1.000  N
  N19      1.0000 0.50000  0.50000  0.65970  Biso   1.000  N
  N20      1.0000 0.00000  0.00000  0.65970  Biso   1.000  N
  N21      1.0000 0.50000  0.50000  0.15970  Biso   1.000  N
  N22      1.0000 0.00000  0.00000  0.15970  Biso   1.000  N
  N23      1.0000 0.50000  0.50000  0.34030  Biso   1.000  N
  N24      1.0000 0.00000  0.00000  0.34030  Biso   1.000  N
  C81      1.0000 0.44610  0.52870  0.87230  Biso   1.000  C
  C82      1.0000 0.94610  0.02870  0.87230  Biso   1.000  C
  C83      1.0000 0.55390  0.47130  0.87230  Biso   1.000  C
  C84      1.0000 0.55390  0.52870  0.62770  Biso   1.000  C
  C85      1.0000 0.44610  0.47130  0.62770  Biso   1.000  C
  C86      1.0000 0.05390  0.97130  0.87230  Biso   1.000  C
  C87      1.0000 0.05390  0.02870  0.62770  Biso   1.000  C
  C88      1.0000 0.94610  0.97130  0.62770  Biso   1.000  C
  C89      1.0000 0.55390  0.47130  0.12770  Biso   1.000  C
  C90      1.0000 0.05390  0.97130  0.12770  Biso   1.000  C
  C91      1.0000 0.44610  0.52870  0.12770  Biso   1.000  C
  C92      1.0000 0.44610  0.47130  0.37230  Biso   1.000  C
  C93      1.0000 0.55390  0.52870  0.37230  Biso   1.000  C
  C94      1.0000 0.94610  0.02870  0.12770  Biso   1.000  C
  C95      1.0000 0.94610  0.97130  0.37230  Biso   1.000  C
  C96      1.0000 0.05390  0.02870  0.37230  Biso   1.000  C
  H65      1.0000 0.40690  0.54890  0.85120  Biso   1.000  H
  H66      1.0000 0.90690  0.04890  0.85120  Biso   1.000  H
  H67      1.0000 0.59310  0.45110  0.85120  Biso   1.000  H
  H68      1.0000 0.59310  0.54890  0.64880  Biso   1.000  H
  H69      1.0000 0.40690  0.45110  0.64880  Biso   1.000  H
  H70      1.0000 0.09310  0.95110  0.85120  Biso   1.000  H
  H71      1.0000 0.09310  0.04890  0.64880  Biso   1.000  H
  H72      1.0000 0.90690  0.95110  0.64880  Biso   1.000  H
  H73      1.0000 0.59310  0.45110  0.14880  Biso   1.000  H
  H74      1.0000 0.09310  0.95110  0.14880  Biso   1.000  H
  H75      1.0000 0.40690  0.54890  0.14880  Biso   1.000  H
  H76      1.0000 0.40690  0.45110  0.35120  Biso   1.000  H
  H77      1.0000 0.59310  0.54890  0.35120  Biso   1.000  H
  H78      1.0000 0.90690  0.04890  0.14880  Biso   1.000  H
  H79      1.0000 0.90690  0.95110  0.35120  Biso   1.000  H
  H80      1.0000 0.09310  0.04890  0.35120  Biso   1.000  H
  C97      1.0000 0.44550  0.52990  0.93330  Biso   1.000  C
  C98      1.0000 0.94550  0.02990  0.93330  Biso   1.000  C
  C99      1.0000 0.55450  0.47010  0.93330  Biso   1.000  C
  C100     1.0000 0.55450  0.52990  0.56670  Biso   1.000  C
  C101     1.0000 0.44550  0.47010  0.56670  Biso   1.000  C
  C102     1.0000 0.05450  0.97010  0.93330  Biso   1.000  C
  C103     1.0000 0.05450  0.02990  0.56670  Biso   1.000  C
  C104     1.0000 0.94550  0.97010  0.56670  Biso   1.000  C
  C105     1.0000 0.55450  0.47010  0.06670  Biso   1.000  C
  C106     1.0000 0.05450  0.97010  0.06670  Biso   1.000  C
  C107     1.0000 0.44550  0.52990  0.06670  Biso   1.000  C
  C108     1.0000 0.44550  0.47010  0.43330  Biso   1.000  C
  C109     1.0000 0.55450  0.52990  0.43330  Biso   1.000  C
  C110     1.0000 0.94550  0.02990  0.06670  Biso   1.000  C
  C111     1.0000 0.94550  0.97010  0.43330  Biso   1.000  C
  C112     1.0000 0.05450  0.02990  0.43330  Biso   1.000  C
  H81      1.0000 0.40700  0.55160  0.95360  Biso   1.000  H
  H82      1.0000 0.90700  0.05160  0.95360  Biso   1.000  H
  H83      1.0000 0.59300  0.44840  0.95360  Biso   1.000  H
  H84      1.0000 0.59300  0.55160  0.54640  Biso   1.000  H
  H85      1.0000 0.40700  0.44840  0.54640  Biso   1.000  H
  H86      1.0000 0.09300  0.94840  0.95360  Biso   1.000  H
  H87      1.0000 0.09300  0.05160  0.54640  Biso   1.000  H
  H88      1.0000 0.90700  0.94840  0.54640  Biso   1.000  H
  H89      1.0000 0.59300  0.44840  0.04640  Biso   1.000  H
  H90      1.0000 0.09300  0.94840  0.04640  Biso   1.000  H
  H91      1.0000 0.40700  0.55160  0.04640  Biso   1.000  H
  H92      1.0000 0.40700  0.44840  0.45360  Biso   1.000  H
  H93      1.0000 0.59300  0.55160  0.45360  Biso   1.000  H
  H94      1.0000 0.90700  0.05160  0.04640  Biso   1.000  H
  H95      1.0000 0.90700  0.94840  0.45360  Biso   1.000  H
  H96      1.0000 0.09300  0.05160  0.45360  Biso   1.000  H
  C113     1.0000 0.50000  0.50000  0.96690  Biso   1.000  C
  C114     1.0000 0.00000  0.00000  0.96690  Biso   1.000  C
  C115     1.0000 0.50000  0.50000  0.53310  Biso   1.000  C
  C116     1.0000 0.00000  0.00000  0.53310  Biso   1.000  C
  C117     1.0000 0.50000  0.50000  0.03310  Biso   1.000  C
  C118     1.0000 0.00000  0.00000  0.03310  Biso   1.000  C
  C119     1.0000 0.50000  0.50000  0.46690  Biso   1.000  C
  C120     1.0000 0.00000  0.00000  0.46690  Biso   1.000  C
  C121     1.0000 0.50000  0.00000  0.96680  Biso   1.000  C
  C122     1.0000 0.00000  0.50000  0.96680  Biso   1.000  C
  C123     1.0000 0.50000  0.00000  0.53320  Biso   1.000  C
  C124     1.0000 0.00000  0.50000  0.53320  Biso   1.000  C
  C125     1.0000 0.50000  0.00000  0.03320  Biso   1.000  C
  C126     1.0000 0.00000  0.50000  0.03320  Biso   1.000  C
  C127     1.0000 0.50000  0.00000  0.46680  Biso   1.000  C
  C128     1.0000 0.00000  0.50000  0.46680  Biso   1.000  C
  C129     1.0000 0.56650  0.99720  0.93330  Biso   1.000  C
  C130     1.0000 0.06650  0.49720  0.93330  Biso   1.000  C
  C131     1.0000 0.43350  0.00280  0.93330  Biso   1.000  C
  C132     1.0000 0.43350  0.99720  0.56670  Biso   1.000  C
  C133     1.0000 0.56650  0.00280  0.56670  Biso   1.000  C
  C134     1.0000 0.93350  0.50280  0.93330  Biso   1.000  C
  C135     1.0000 0.93350  0.49720  0.56670  Biso   1.000  C
  C136     1.0000 0.06650  0.50280  0.56670  Biso   1.000  C
  C137     1.0000 0.43350  0.00280  0.06670  Biso   1.000  C
  C138     1.0000 0.93350  0.50280  0.06670  Biso   1.000  C
  C139     1.0000 0.56650  0.99720  0.06670  Biso   1.000  C
  C140     1.0000 0.56650  0.00280  0.43330  Biso   1.000  C
  C141     1.0000 0.43350  0.99720  0.43330  Biso   1.000  C
  C142     1.0000 0.06650  0.49720  0.06670  Biso   1.000  C
  C143     1.0000 0.06650  0.50280  0.43330  Biso   1.000  C
  C144     1.0000 0.93350  0.49720  0.43330  Biso   1.000  C
  H97      1.0000 0.61350  0.99550  0.95360  Biso   1.000  H
  H98      1.0000 0.11350  0.49550  0.95360  Biso   1.000  H
  H99      1.0000 0.38650  0.00450  0.95360  Biso   1.000  H
  H100     1.0000 0.38650  0.99550  0.54640  Biso   1.000  H
  H101     1.0000 0.61350  0.00450  0.54640  Biso   1.000  H
  H102     1.0000 0.88650  0.50450  0.95360  Biso   1.000  H
  H103     1.0000 0.88650  0.49550  0.54640  Biso   1.000  H
  H104     1.0000 0.11350  0.50450  0.54640  Biso   1.000  H
  H105     1.0000 0.38650  0.00450  0.04640  Biso   1.000  H
  H106     1.0000 0.88650  0.50450  0.04640  Biso   1.000  H
  H107     1.0000 0.61350  0.99550  0.04640  Biso   1.000  H
  H108     1.0000 0.61350  0.00450  0.45360  Biso   1.000  H
  H109     1.0000 0.38650  0.99550  0.45360  Biso   1.000  H
  H110     1.0000 0.11350  0.49550  0.04640  Biso   1.000  H
  H111     1.0000 0.11350  0.50450  0.45360  Biso   1.000  H
  H112     1.0000 0.88650  0.49550  0.45360  Biso   1.000  H
  C145     1.0000 0.56520  0.99670  0.87230  Biso   1.000  C
  C146     1.0000 0.06520  0.49670  0.87230  Biso   1.000  C
  C147     1.0000 0.43480  0.00330  0.87230  Biso   1.000  C
  C148     1.0000 0.43480  0.99670  0.62770  Biso   1.000  C
  C149     1.0000 0.56520  0.00330  0.62770  Biso   1.000  C
  C150     1.0000 0.93480  0.50330  0.87230  Biso   1.000  C
  C151     1.0000 0.93480  0.49670  0.62770  Biso   1.000  C
  C152     1.0000 0.06520  0.50330  0.62770  Biso   1.000  C
  C153     1.0000 0.43480  0.00330  0.12770  Biso   1.000  C
  C154     1.0000 0.93480  0.50330  0.12770  Biso   1.000  C
  C155     1.0000 0.56520  0.99670  0.12770  Biso   1.000  C
  C156     1.0000 0.56520  0.00330  0.37230  Biso   1.000  C
  C157     1.0000 0.43480  0.99670  0.37230  Biso   1.000  C
  C158     1.0000 0.06520  0.49670  0.12770  Biso   1.000  C
  C159     1.0000 0.06520  0.50330  0.37230  Biso   1.000  C
  C160     1.0000 0.93480  0.49670  0.37230  Biso   1.000  C
  H113     1.0000 0.61160  0.99400  0.85120  Biso   1.000  H
  H114     1.0000 0.11160  0.49400  0.85120  Biso   1.000  H
  H115     1.0000 0.38840  0.00600  0.85120  Biso   1.000  H
  H116     1.0000 0.38840  0.99400  0.64880  Biso   1.000  H
  H117     1.0000 0.61160  0.00600  0.64880  Biso   1.000  H
  H118     1.0000 0.88840  0.50600  0.85120  Biso   1.000  H
  H119     1.0000 0.88840  0.49400  0.64880  Biso   1.000  H
  H120     1.0000 0.11160  0.50600  0.64880  Biso   1.000  H
  H121     1.0000 0.38840  0.00600  0.14880  Biso   1.000  H
  H122     1.0000 0.88840  0.50600  0.14880  Biso   1.000  H
  H123     1.0000 0.61160  0.99400  0.14880  Biso   1.000  H
  H124     1.0000 0.61160  0.00600  0.35120  Biso   1.000  H
  H125     1.0000 0.38840  0.99400  0.35120  Biso   1.000  H
  H126     1.0000 0.11160  0.49400  0.14880  Biso   1.000  H
  H127     1.0000 0.11160  0.50600  0.35120  Biso   1.000  H
  H128     1.0000 0.88840  0.49400  0.35120  Biso   1.000  H
  N25      1.0000 0.50000  0.00000  0.84010  Biso   1.000  N
  N26      1.0000 0.00000  0.50000  0.84010  Biso   1.000  N
  N27      1.0000 0.50000  0.00000  0.65990  Biso   1.000  N
  N28      1.0000 0.00000  0.50000  0.65990  Biso   1.000  N
  N29      1.0000 0.50000  0.00000  0.15990  Biso   1.000  N
  N30      1.0000 0.00000  0.50000  0.15990  Biso   1.000  N
  N31      1.0000 0.50000  0.00000  0.34010  Biso   1.000  N
  N32      1.0000 0.00000  0.50000  0.34010  Biso   1.000  N
  O177     1.0000 0.63580  0.50000  0.75000  Biso   1.000  O
  O178     1.0000 0.13580  0.00000  0.75000  Biso   1.000  O
  O179     1.0000 0.36420  0.50000  0.75000  Biso   1.000  O
  O180     1.0000 0.86420  0.00000  0.75000  Biso   1.000  O
  O181     1.0000 0.36420  0.50000  0.25000  Biso   1.000  O
  O182     1.0000 0.86420  0.00000  0.25000  Biso   1.000  O
  O183     1.0000 0.63580  0.50000  0.25000  Biso   1.000  O
  O184     1.0000 0.13580  0.00000  0.25000  Biso   1.000  O
  H129     1.0000 0.66900  0.53200  0.74200  Biso   1.000  H
  H130     1.0000 0.16900  0.03200  0.74200  Biso   1.000  H
  H131     1.0000 0.33100  0.46800  0.74200  Biso   1.000  H
  H132     1.0000 0.33100  0.53200  0.75800  Biso   1.000  H
  H133     1.0000 0.66900  0.46800  0.75800  Biso   1.000  H
  H134     1.0000 0.83100  0.96800  0.74200  Biso   1.000  H
  H135     1.0000 0.83100  0.03200  0.75800  Biso   1.000  H
  H136     1.0000 0.16900  0.96800  0.75800  Biso   1.000  H
  H137     1.0000 0.33100  0.46800  0.25800  Biso   1.000  H
  H138     1.0000 0.83100  0.96800  0.25800  Biso   1.000  H
  H139     1.0000 0.66900  0.53200  0.25800  Biso   1.000  H
  H140     1.0000 0.66900  0.46800  0.24200  Biso   1.000  H
  H141     1.0000 0.33100  0.53200  0.24200  Biso   1.000  H
  H142     1.0000 0.16900  0.03200  0.25800  Biso   1.000  H
  H143     1.0000 0.16900  0.96800  0.24200  Biso   1.000  H
  H144     1.0000 0.83100  0.03200  0.24200  Biso   1.000  H
  O185     1.0000 0.74620  0.37360  0.89330  Biso   1.000  O
  O186     1.0000 0.24620  0.87360  0.89330  Biso   1.000  O
  O187     1.0000 0.25380  0.62640  0.89330  Biso   1.000  O
  O188     1.0000 0.25380  0.37360  0.60670  Biso   1.000  O
  O189     1.0000 0.74620  0.62640  0.60670  Biso   1.000  O
  O190     1.0000 0.75380  0.12640  0.89330  Biso   1.000  O
  O191     1.0000 0.75380  0.87360  0.60670  Biso   1.000  O
  O192     1.0000 0.24620  0.12640  0.60670  Biso   1.000  O
  O193     1.0000 0.25380  0.62640  0.10670  Biso   1.000  O
  O194     1.0000 0.75380  0.12640  0.10670  Biso   1.000  O
  O195     1.0000 0.74620  0.37360  0.10670  Biso   1.000  O
  O196     1.0000 0.74620  0.62640  0.39330  Biso   1.000  O
  O197     1.0000 0.25380  0.37360  0.39330  Biso   1.000  O
  O198     1.0000 0.24620  0.87360  0.10670  Biso   1.000  O
  O199     1.0000 0.24620  0.12640  0.39330  Biso   1.000  O
  O200     1.0000 0.75380  0.87360  0.39330  Biso   1.000  O
  H145     1.0000 0.73750  0.40480  0.91440  Biso   1.000  H
  H146     1.0000 0.23750  0.90480  0.91440  Biso   1.000  H
  H147     1.0000 0.26250  0.59520  0.91440  Biso   1.000  H
  H148     1.0000 0.26250  0.40480  0.58560  Biso   1.000  H
  H149     1.0000 0.73750  0.59520  0.58560  Biso   1.000  H
  H150     1.0000 0.76250  0.09520  0.91440  Biso   1.000  H
  H151     1.0000 0.76250  0.90480  0.58560  Biso   1.000  H
  H152     1.0000 0.23750  0.09520  0.58560  Biso   1.000  H
  H153     1.0000 0.26250  0.59520  0.08560  Biso   1.000  H
  H154     1.0000 0.76250  0.09520  0.08560  Biso   1.000  H
  H155     1.0000 0.73750  0.40480  0.08560  Biso   1.000  H
  H156     1.0000 0.73750  0.59520  0.41440  Biso   1.000  H
  H157     1.0000 0.26250  0.40480  0.41440  Biso   1.000  H
  H158     1.0000 0.23750  0.90480  0.08560  Biso   1.000  H
  H159     1.0000 0.23750  0.09520  0.41440  Biso   1.000  H
  H160     1.0000 0.76250  0.90480  0.41440  Biso   1.000  H
  H161     1.0000 0.78620  0.35560  0.90460  Biso   1.000  H
  H162     1.0000 0.28620  0.85560  0.90460  Biso   1.000  H
  H163     1.0000 0.21380  0.64440  0.90460  Biso   1.000  H
  H164     1.0000 0.21380  0.35560  0.59540  Biso   1.000  H
  H165     1.0000 0.78620  0.64440  0.59540  Biso   1.000  H
  H166     1.0000 0.71380  0.14440  0.90460  Biso   1.000  H
  H167     1.0000 0.71380  0.85560  0.59540  Biso   1.000  H
  H168     1.0000 0.28620  0.14440  0.59540  Biso   1.000  H
  H169     1.0000 0.21380  0.64440  0.09540  Biso   1.000  H
  H170     1.0000 0.71380  0.14440  0.09540  Biso   1.000  H
  H171     1.0000 0.78620  0.35560  0.09540  Biso   1.000  H
  H172     1.0000 0.78620  0.64440  0.40460  Biso   1.000  H
  H173     1.0000 0.21380  0.35560  0.40460  Biso   1.000  H
  H174     1.0000 0.28620  0.85560  0.09540  Biso   1.000  H
  H175     1.0000 0.28620  0.14440  0.40460  Biso   1.000  H
  H176     1.0000 0.71380  0.85560  0.40460  Biso   1.000  H
  O201     1.0000 0.87810  0.32360  0.93460  Biso   1.000  O
  O202     1.0000 0.37810  0.82360  0.93460  Biso   1.000  O
  O203     1.0000 0.12190  0.67640  0.93460  Biso   1.000  O
  O204     1.0000 0.12190  0.32360  0.56540  Biso   1.000  O
  O205     1.0000 0.87810  0.67640  0.56540  Biso   1.000  O
  O206     1.0000 0.62190  0.17640  0.93460  Biso   1.000  O
  O207     1.0000 0.62190  0.82360  0.56540  Biso   1.000  O
  O208     1.0000 0.37810  0.17640  0.56540  Biso   1.000  O
  O209     1.0000 0.12190  0.67640  0.06540  Biso   1.000  O
  O210     1.0000 0.62190  0.17640  0.06540  Biso   1.000  O
  O211     1.0000 0.87810  0.32360  0.06540  Biso   1.000  O
  O212     1.0000 0.87810  0.67640  0.43460  Biso   1.000  O
  O213     1.0000 0.12190  0.32360  0.43460  Biso   1.000  O
  O214     1.0000 0.37810  0.82360  0.06540  Biso   1.000  O
  O215     1.0000 0.37810  0.17640  0.43460  Biso   1.000  O
  O216     1.0000 0.62190  0.82360  0.43460  Biso   1.000  O
  H177     1.0000 0.91810  0.33510  0.91690  Biso   1.000  H
  H178     1.0000 0.41810  0.83510  0.91690  Biso   1.000  H
  H179     1.0000 0.08190  0.66490  0.91690  Biso   1.000  H
  H180     1.0000 0.08190  0.33510  0.58310  Biso   1.000  H
  H181     1.0000 0.91810  0.66490  0.58310  Biso   1.000  H
  H182     1.0000 0.58190  0.16490  0.91690  Biso   1.000  H
  H183     1.0000 0.58190  0.83510  0.58310  Biso   1.000  H
  H184     1.0000 0.41810  0.16490  0.58310  Biso   1.000  H
  H185     1.0000 0.08190  0.66490  0.08310  Biso   1.000  H
  H186     1.0000 0.58190  0.16490  0.08310  Biso   1.000  H
  H187     1.0000 0.91810  0.33510  0.08310  Biso   1.000  H
  H188     1.0000 0.91810  0.66490  0.41690  Biso   1.000  H
  H189     1.0000 0.08190  0.33510  0.41690  Biso   1.000  H
  H190     1.0000 0.41810  0.83510  0.08310  Biso   1.000  H
  H191     1.0000 0.41810  0.16490  0.41690  Biso   1.000  H
  H192     1.0000 0.58190  0.83510  0.41690  Biso   1.000  H
  H193     1.0000 0.87980  0.33250  0.97170  Biso   1.000  H
  H194     1.0000 0.37980  0.83250  0.97170  Biso   1.000  H
  H195     1.0000 0.12020  0.66750  0.97170  Biso   1.000  H
  H196     1.0000 0.12020  0.33250  0.52830  Biso   1.000  H
  H197     1.0000 0.87980  0.66750  0.52830  Biso   1.000  H
  H198     1.0000 0.62020  0.16750  0.97170  Biso   1.000  H
  H199     1.0000 0.62020  0.83250  0.52830  Biso   1.000  H
  H200     1.0000 0.37980  0.16750  0.52830  Biso   1.000  H
  H201     1.0000 0.12020  0.66750  0.02830  Biso   1.000  H
  H202     1.0000 0.62020  0.16750  0.02830  Biso   1.000  H
  H203     1.0000 0.87980  0.33250  0.02830  Biso   1.000  H
  H204     1.0000 0.87980  0.66750  0.47170  Biso   1.000  H
  H205     1.0000 0.12020  0.33250  0.47170  Biso   1.000  H
  H206     1.0000 0.37980  0.83250  0.02830  Biso   1.000  H
  H207     1.0000 0.37980  0.16750  0.47170  Biso   1.000  H
  H208     1.0000 0.62020  0.83250  0.47170  Biso   1.000  H
  H209     1.0000 0.87330  0.28560  0.93060  Biso   1.000  H
  H210     1.0000 0.37330  0.78560  0.93060  Biso   1.000  H
  H211     1.0000 0.12670  0.71440  0.93060  Biso   1.000  H
  H212     1.0000 0.12670  0.28560  0.56940  Biso   1.000  H
  H213     1.0000 0.87330  0.71440  0.56940  Biso   1.000  H
  H214     1.0000 0.62670  0.21440  0.93060  Biso   1.000  H
  H215     1.0000 0.62670  0.78560  0.56940  Biso   1.000  H
  H216     1.0000 0.37330  0.21440  0.56940  Biso   1.000  H
  H217     1.0000 0.12670  0.71440  0.06940  Biso   1.000  H
  H218     1.0000 0.62670  0.21440  0.06940  Biso   1.000  H
  H219     1.0000 0.87330  0.28560  0.06940  Biso   1.000  H
  H220     1.0000 0.87330  0.71440  0.43060  Biso   1.000  H
  H221     1.0000 0.12670  0.28560  0.43060  Biso   1.000  H
  H222     1.0000 0.37330  0.78560  0.06940  Biso   1.000  H
  H223     1.0000 0.37330  0.21440  0.43060  Biso   1.000  H
  H224     1.0000 0.62670  0.78560  0.43060  Biso   1.000  H
  O217     1.0000 0.74140  0.44580  0.00000  Biso   1.000  O
  O218     1.0000 0.24140  0.94580  0.00000  Biso   1.000  O
  O219     1.0000 0.25860  0.55420  0.00000  Biso   1.000  O
  O220     1.0000 0.25860  0.44580  0.50000  Biso   1.000  O
  O221     1.0000 0.74140  0.55420  0.50000  Biso   1.000  O
  O222     1.0000 0.75860  0.05420  0.00000  Biso   1.000  O
  O223     1.0000 0.75860  0.94580  0.50000  Biso   1.000  O
  O224     1.0000 0.24140  0.05420  0.50000  Biso   1.000  O
  H225     1.0000 0.70490  0.47060  0.00000  Biso   1.000  H
  H226     1.0000 0.20490  0.97060  0.00000  Biso   1.000  H
  H227     1.0000 0.29510  0.52940  0.00000  Biso   1.000  H
  H228     1.0000 0.29510  0.47060  0.50000  Biso   1.000  H
  H229     1.0000 0.70490  0.52940  0.50000  Biso   1.000  H
  H230     1.0000 0.79510  0.02940  0.00000  Biso   1.000  H
  H231     1.0000 0.79510  0.97060  0.50000  Biso   1.000  H
  H232     1.0000 0.20490  0.02940  0.50000  Biso   1.000  H
  H233     1.0000 0.78130  0.46710  0.00000  Biso   1.000  H
  H234     1.0000 0.28130  0.96710  0.00000  Biso   1.000  H
  H235     1.0000 0.21870  0.53290  0.00000  Biso   1.000  H
  H236     1.0000 0.21870  0.46710  0.50000  Biso   1.000  H
  H237     1.0000 0.78130  0.53290  0.50000  Biso   1.000  H
  H238     1.0000 0.71870  0.03290  0.00000  Biso   1.000  H
  H239     1.0000 0.71870  0.96710  0.50000  Biso   1.000  H
  H240     1.0000 0.28130  0.03290  0.50000  Biso   1.000  H
  O225     1.0000 0.62350  0.29740  0.90600  Biso   1.000  O
  O226     1.0000 0.12350  0.79740  0.90600  Biso   1.000  O
  O227     1.0000 0.37650  0.70260  0.90600  Biso   1.000  O
  O228     1.0000 0.37650  0.29740  0.59400  Biso   1.000  O
  O229     1.0000 0.62350  0.70260  0.59400  Biso   1.000  O
  O230     1.0000 0.87650  0.20260  0.90600  Biso   1.000  O
  O231     1.0000 0.87650  0.79740  0.59400  Biso   1.000  O
  O232     1.0000 0.12350  0.20260  0.59400  Biso   1.000  O
  O233     1.0000 0.37650  0.70260  0.09400  Biso   1.000  O
  O234     1.0000 0.87650  0.20260  0.09400  Biso   1.000  O
  O235     1.0000 0.62350  0.29740  0.09400  Biso   1.000  O
  O236     1.0000 0.62350  0.70260  0.40600  Biso   1.000  O
  O237     1.0000 0.37650  0.29740  0.40600  Biso   1.000  O
  O238     1.0000 0.12350  0.79740  0.09400  Biso   1.000  O
  O239     1.0000 0.12350  0.20260  0.40600  Biso   1.000  O
  O240     1.0000 0.87650  0.79740  0.40600  Biso   1.000  O
  H241     1.0000 0.65370  0.31480  0.88190  Biso   1.000  H
  H242     1.0000 0.15370  0.81480  0.88190  Biso   1.000  H
  H243     1.0000 0.34630  0.68520  0.88190  Biso   1.000  H
  H244     1.0000 0.34630  0.31480  0.61810  Biso   1.000  H
  H245     1.0000 0.65370  0.68520  0.61810  Biso   1.000  H
  H246     1.0000 0.84630  0.18520  0.88190  Biso   1.000  H
  H247     1.0000 0.84630  0.81480  0.61810  Biso   1.000  H
  H248     1.0000 0.15370  0.18520  0.61810  Biso   1.000  H
  H249     1.0000 0.34630  0.68520  0.11810  Biso   1.000  H
  H250     1.0000 0.84630  0.18520  0.11810  Biso   1.000  H
  H251     1.0000 0.65370  0.31480  0.11810  Biso   1.000  H
  H252     1.0000 0.65370  0.68520  0.38190  Biso   1.000  H
  H253     1.0000 0.34630  0.31480  0.38190  Biso   1.000  H
  H254     1.0000 0.15370  0.81480  0.11810  Biso   1.000  H
  H255     1.0000 0.15370  0.18520  0.38190  Biso   1.000  H
  H256     1.0000 0.84630  0.81480  0.38190  Biso   1.000  H
  H257     1.0000 0.61510  0.31290  0.94030  Biso   1.000  H
  H258     1.0000 0.11510  0.81290  0.94030  Biso   1.000  H
  H259     1.0000 0.38490  0.68710  0.94030  Biso   1.000  H
  H260     1.0000 0.38490  0.31290  0.55970  Biso   1.000  H
  H261     1.0000 0.61510  0.68710  0.55970  Biso   1.000  H
  H262     1.0000 0.88490  0.18710  0.94030  Biso   1.000  H
  H263     1.0000 0.88490  0.81290  0.55970  Biso   1.000  H
  H264     1.0000 0.11510  0.18710  0.55970  Biso   1.000  H
  H265     1.0000 0.38490  0.68710  0.05970  Biso   1.000  H
  H266     1.0000 0.88490  0.18710  0.05970  Biso   1.000  H
  H267     1.0000 0.61510  0.31290  0.05970  Biso   1.000  H
  H268     1.0000 0.61510  0.68710  0.44030  Biso   1.000  H
  H269     1.0000 0.38490  0.31290  0.44030  Biso   1.000  H
  H270     1.0000 0.11510  0.81290  0.05970  Biso   1.000  H
  H271     1.0000 0.11510  0.18710  0.44030  Biso   1.000  H
  H272     1.0000 0.88490  0.81290  0.44030  Biso   1.000  H
  O241     1.0000 0.33850  0.00000  0.75000  Biso   1.000  O
  O242     1.0000 0.83850  0.50000  0.75000  Biso   1.000  O
  O243     1.0000 0.66150  0.00000  0.75000  Biso   1.000  O
  O244     1.0000 0.16150  0.50000  0.75000  Biso   1.000  O
  O245     1.0000 0.66150  0.00000  0.25000  Biso   1.000  O
  O246     1.0000 0.16150  0.50000  0.25000  Biso   1.000  O
  O247     1.0000 0.33850  0.00000  0.25000  Biso   1.000  O
  O248     1.0000 0.83850  0.50000  0.25000  Biso   1.000  O
  H273     1.0000 0.31040  0.96950  0.75590  Biso   1.000  H
  H274     1.0000 0.81040  0.46950  0.75590  Biso   1.000  H
  H275     1.0000 0.68960  0.03050  0.75590  Biso   1.000  H
  H276     1.0000 0.68960  0.96950  0.74410  Biso   1.000  H
  H277     1.0000 0.31040  0.03050  0.74410  Biso   1.000  H
  H278     1.0000 0.18960  0.53050  0.75590  Biso   1.000  H
  H279     1.0000 0.18960  0.46950  0.74410  Biso   1.000  H
  H280     1.0000 0.81040  0.53050  0.74410  Biso   1.000  H
  H281     1.0000 0.68960  0.03050  0.24410  Biso   1.000  H
  H282     1.0000 0.18960  0.53050  0.24410  Biso   1.000  H
  H283     1.0000 0.31040  0.96950  0.24410  Biso   1.000  H
  H284     1.0000 0.31040  0.03050  0.25590  Biso   1.000  H
  H285     1.0000 0.68960  0.96950  0.25590  Biso   1.000  H
  H286     1.0000 0.81040  0.46950  0.24410  Biso   1.000  H
  H287     1.0000 0.81040  0.53050  0.25590  Biso   1.000  H
  H288     1.0000 0.18960  0.46950  0.25590  Biso   1.000  H
  O249     1.0000 0.73760  0.40290  0.76840  Biso   1.000  O
  O250     1.0000 0.23760  0.90290  0.76840  Biso   1.000  O
  O251     1.0000 0.26240  0.59710  0.76840  Biso   1.000  O
  O252     1.0000 0.26240  0.40290  0.73160  Biso   1.000  O
  O253     1.0000 0.73760  0.59710  0.73160  Biso   1.000  O
  O254     1.0000 0.76240  0.09710  0.76840  Biso   1.000  O
  O255     1.0000 0.76240  0.90290  0.73160  Biso   1.000  O
  O256     1.0000 0.23760  0.09710  0.73160  Biso   1.000  O
  O257     1.0000 0.26240  0.59710  0.23160  Biso   1.000  O
  O258     1.0000 0.76240  0.09710  0.23160  Biso   1.000  O
  O259     1.0000 0.73760  0.40290  0.23160  Biso   1.000  O
  O260     1.0000 0.73760  0.59710  0.26840  Biso   1.000  O
  O261     1.0000 0.26240  0.40290  0.26840  Biso   1.000  O
  O262     1.0000 0.23760  0.90290  0.23160  Biso   1.000  O
  O263     1.0000 0.23760  0.09710  0.26840  Biso   1.000  O
  O264     1.0000 0.76240  0.90290  0.26840  Biso   1.000  O
  H289     1.0000 0.73830  0.38740  0.80340  Biso   1.000  H
  H290     1.0000 0.23830  0.88740  0.80340  Biso   1.000  H
  H291     1.0000 0.26170  0.61260  0.80340  Biso   1.000  H
  H292     1.0000 0.26170  0.38740  0.69660  Biso   1.000  H
  H293     1.0000 0.73830  0.61260  0.69660  Biso   1.000  H
  H294     1.0000 0.76170  0.11260  0.80340  Biso   1.000  H
  H295     1.0000 0.76170  0.88740  0.69660  Biso   1.000  H
  H296     1.0000 0.23830  0.11260  0.69660  Biso   1.000  H
  H297     1.0000 0.26170  0.61260  0.19660  Biso   1.000  H
  H298     1.0000 0.76170  0.11260  0.19660  Biso   1.000  H
  H299     1.0000 0.73830  0.38740  0.19660  Biso   1.000  H
  H300     1.0000 0.73830  0.61260  0.30340  Biso   1.000  H
  H301     1.0000 0.26170  0.38740  0.30340  Biso   1.000  H
  H302     1.0000 0.23830  0.88740  0.19660  Biso   1.000  H
  H303     1.0000 0.23830  0.11260  0.30340  Biso   1.000  H
  H304     1.0000 0.76170  0.88740  0.30340  Biso   1.000  H
  H305     1.0000 0.73680  0.37620  0.74100  Biso   1.000  H
  H306     1.0000 0.23680  0.87620  0.74100  Biso   1.000  H
  H307     1.0000 0.26320  0.62380  0.74100  Biso   1.000  H
  H308     1.0000 0.26320  0.37620  0.75900  Biso   1.000  H
  H309     1.0000 0.73680  0.62380  0.75900  Biso   1.000  H
  H310     1.0000 0.76320  0.12380  0.74100  Biso   1.000  H
  H311     1.0000 0.76320  0.87620  0.75900  Biso   1.000  H
  H312     1.0000 0.23680  0.12380  0.75900  Biso   1.000  H
  H313     1.0000 0.26320  0.62380  0.25900  Biso   1.000  H
  H314     1.0000 0.76320  0.12380  0.25900  Biso   1.000  H
  H315     1.0000 0.73680  0.37620  0.25900  Biso   1.000  H
  H316     1.0000 0.73680  0.62380  0.24100  Biso   1.000  H
  H317     1.0000 0.26320  0.37620  0.24100  Biso   1.000  H
  H318     1.0000 0.23680  0.87620  0.25900  Biso   1.000  H
  H319     1.0000 0.23680  0.12380  0.24100  Biso   1.000  H
  H320     1.0000 0.76320  0.87620  0.24100  Biso   1.000  H
