data_image0
_cell_length_a       28.7527
_cell_length_b       28.7527
_cell_length_c       35.4316
_cell_angle_alpha    90
_cell_angle_beta     90
_cell_angle_gamma    90

_symmetry_space_group_name_H-M    "P 1"
_symmetry_int_tables_number       1

loop_
  _symmetry_equiv_pos_as_xyz
  'x, y, z'

loop_
  _atom_site_label
  _atom_site_occupancy
  _atom_site_fract_x
  _atom_site_fract_y
  _atom_site_fract_z
  _atom_site_thermal_displace_type
  _atom_site_B_iso_or_equiv
  _atom_site_type_symbol
  Cu1      1.0000 0.88826  0.83706  0.15537  Biso   1.000  Cu
  Cu2      1.0000 0.11174  0.16294  0.15537  Biso   1.000  Cu
  Cu3      1.0000 0.16294  0.88826  0.15537  Biso   1.000  Cu
  Cu4      1.0000 0.83706  0.11174  0.15537  Biso   1.000  Cu
  Cu5      1.0000 0.38826  0.33706  0.65537  Biso   1.000  Cu
  Cu6      1.0000 0.61174  0.66294  0.65537  Biso   1.000  Cu
  Cu7      1.0000 0.66294  0.38826  0.65537  Biso   1.000  Cu
  Cu8      1.0000 0.33706  0.61174  0.65537  Biso   1.000  Cu
  Cu9      1.0000 0.11174  0.16294  0.84463  Biso   1.000  Cu
  Cu10     1.0000 0.88826  0.83706  0.84463  Biso   1.000  Cu
  Cu11     1.0000 0.83706  0.11174  0.84463  Biso   1.000  Cu
  Cu12     1.0000 0.16294  0.88826  0.84463  Biso   1.000  Cu
  Cu13     1.0000 0.61174  0.66294  0.34463  Biso   1.000  Cu
  Cu14     1.0000 0.38826  0.33706  0.34463  Biso   1.000  Cu
  Cu15     1.0000 0.33706  0.61174  0.34463  Biso   1.000  Cu
  Cu16     1.0000 0.66294  0.38826  0.34463  Biso   1.000  Cu
  Cu17     1.0000 0.85050  0.78669  0.20989  Biso   1.000  Cu
  Cu18     1.0000 0.14950  0.21331  0.20989  Biso   1.000  Cu
  Cu19     1.0000 0.21331  0.85050  0.20989  Biso   1.000  Cu
  Cu20     1.0000 0.78669  0.14950  0.20989  Biso   1.000  Cu
  Cu21     1.0000 0.35050  0.28669  0.70989  Biso   1.000  Cu
  Cu22     1.0000 0.64950  0.71331  0.70989  Biso   1.000  Cu
  Cu23     1.0000 0.71331  0.35050  0.70989  Biso   1.000  Cu
  Cu24     1.0000 0.28669  0.64950  0.70989  Biso   1.000  Cu
  Cu25     1.0000 0.14950  0.21331  0.79011  Biso   1.000  Cu
  Cu26     1.0000 0.85050  0.78669  0.79011  Biso   1.000  Cu
  Cu27     1.0000 0.78669  0.14950  0.79011  Biso   1.000  Cu
  Cu28     1.0000 0.21331  0.85050  0.79011  Biso   1.000  Cu
  Cu29     1.0000 0.64950  0.71331  0.29011  Biso   1.000  Cu
  Cu30     1.0000 0.35050  0.28669  0.29011  Biso   1.000  Cu
  Cu31     1.0000 0.28669  0.64950  0.29011  Biso   1.000  Cu
  Cu32     1.0000 0.71331  0.35050  0.29011  Biso   1.000  Cu
  O1       1.0000 0.40076  0.27371  0.36370  Biso   1.000  O
  O2       1.0000 0.59924  0.72629  0.36370  Biso   1.000  O
  O3       1.0000 0.72629  0.40076  0.36370  Biso   1.000  O
  O4       1.0000 0.27371  0.59924  0.36370  Biso   1.000  O
  O5       1.0000 0.90076  0.77371  0.86370  Biso   1.000  O
  O6       1.0000 0.09924  0.22629  0.86370  Biso   1.000  O
  O7       1.0000 0.22629  0.90076  0.86370  Biso   1.000  O
  O8       1.0000 0.77371  0.09924  0.86370  Biso   1.000  O
  O9       1.0000 0.59924  0.72629  0.63630  Biso   1.000  O
  O10      1.0000 0.40076  0.27371  0.63630  Biso   1.000  O
  O11      1.0000 0.27371  0.59924  0.63630  Biso   1.000  O
  O12      1.0000 0.72629  0.40076  0.63630  Biso   1.000  O
  O13      1.0000 0.09924  0.22629  0.13630  Biso   1.000  O
  O14      1.0000 0.90076  0.77371  0.13630  Biso   1.000  O
  O15      1.0000 0.77371  0.09924  0.13630  Biso   1.000  O
  O16      1.0000 0.22629  0.90076  0.13630  Biso   1.000  O
  O17      1.0000 0.37302  0.23133  0.31578  Biso   1.000  O
  O18      1.0000 0.62698  0.76867  0.31578  Biso   1.000  O
  O19      1.0000 0.76867  0.37302  0.31578  Biso   1.000  O
  O20      1.0000 0.23133  0.62698  0.31578  Biso   1.000  O
  O21      1.0000 0.87302  0.73133  0.81578  Biso   1.000  O
  O22      1.0000 0.12698  0.26867  0.81578  Biso   1.000  O
  O23      1.0000 0.26867  0.87302  0.81578  Biso   1.000  O
  O24      1.0000 0.73133  0.12698  0.81578  Biso   1.000  O
  O25      1.0000 0.62698  0.76867  0.68422  Biso   1.000  O
  O26      1.0000 0.37302  0.23133  0.68422  Biso   1.000  O
  O27      1.0000 0.23133  0.62698  0.68422  Biso   1.000  O
  O28      1.0000 0.76867  0.37302  0.68422  Biso   1.000  O
  O29      1.0000 0.12698  0.26867  0.18422  Biso   1.000  O
  O30      1.0000 0.87302  0.73133  0.18422  Biso   1.000  O
  O31      1.0000 0.73133  0.12698  0.18422  Biso   1.000  O
  O32      1.0000 0.26867  0.87302  0.18422  Biso   1.000  O
  O33      1.0000 0.83350  0.84747  0.22965  Biso   1.000  O
  O34      1.0000 0.16650  0.15253  0.22965  Biso   1.000  O
  O35      1.0000 0.15253  0.83350  0.22965  Biso   1.000  O
  O36      1.0000 0.84747  0.16650  0.22965  Biso   1.000  O
  O37      1.0000 0.33350  0.34747  0.72965  Biso   1.000  O
  O38      1.0000 0.66650  0.65253  0.72965  Biso   1.000  O
  O39      1.0000 0.65253  0.33350  0.72965  Biso   1.000  O
  O40      1.0000 0.34747  0.66650  0.72965  Biso   1.000  O
  O41      1.0000 0.16650  0.15253  0.77035  Biso   1.000  O
  O42      1.0000 0.83350  0.84747  0.77035  Biso   1.000  O
  O43      1.0000 0.84747  0.16650  0.77035  Biso   1.000  O
  O44      1.0000 0.15253  0.83350  0.77035  Biso   1.000  O
  O45      1.0000 0.66650  0.65253  0.27035  Biso   1.000  O
  O46      1.0000 0.33350  0.34747  0.27035  Biso   1.000  O
  O47      1.0000 0.34747  0.66650  0.27035  Biso   1.000  O
  O48      1.0000 0.65253  0.33350  0.27035  Biso   1.000  O
  O49      1.0000 0.86745  0.89114  0.18487  Biso   1.000  O
  O50      1.0000 0.13255  0.10886  0.18487  Biso   1.000  O
  O51      1.0000 0.10886  0.86745  0.18487  Biso   1.000  O
  O52      1.0000 0.89114  0.13255  0.18487  Biso   1.000  O
  O53      1.0000 0.36745  0.39114  0.68487  Biso   1.000  O
  O54      1.0000 0.63255  0.60886  0.68487  Biso   1.000  O
  O55      1.0000 0.60886  0.36745  0.68487  Biso   1.000  O
  O56      1.0000 0.39114  0.63255  0.68487  Biso   1.000  O
  O57      1.0000 0.13255  0.10886  0.81513  Biso   1.000  O
  O58      1.0000 0.86745  0.89114  0.81513  Biso   1.000  O
  O59      1.0000 0.89114  0.13255  0.81513  Biso   1.000  O
  O60      1.0000 0.10886  0.86745  0.81513  Biso   1.000  O
  O61      1.0000 0.63255  0.60886  0.31513  Biso   1.000  O
  O62      1.0000 0.36745  0.39114  0.31513  Biso   1.000  O
  O63      1.0000 0.39114  0.63255  0.31513  Biso   1.000  O
  O64      1.0000 0.60886  0.36745  0.31513  Biso   1.000  O
  O65      1.0000 0.49492  0.20743  0.46066  Biso   1.000  O
  O66      1.0000 0.50508  0.79257  0.46066  Biso   1.000  O
  O67      1.0000 0.79257  0.49492  0.46066  Biso   1.000  O
  O68      1.0000 0.20743  0.50508  0.46066  Biso   1.000  O
  O69      1.0000 0.99492  0.70743  0.96066  Biso   1.000  O
  O70      1.0000 0.00508  0.29257  0.96066  Biso   1.000  O
  O71      1.0000 0.29257  0.99492  0.96066  Biso   1.000  O
  O72      1.0000 0.70743  0.00508  0.96066  Biso   1.000  O
  O73      1.0000 0.50508  0.79257  0.53934  Biso   1.000  O
  O74      1.0000 0.49492  0.20743  0.53934  Biso   1.000  O
  O75      1.0000 0.20743  0.50508  0.53934  Biso   1.000  O
  O76      1.0000 0.79257  0.49492  0.53934  Biso   1.000  O
  O77      1.0000 0.00508  0.29257  0.03934  Biso   1.000  O
  O78      1.0000 0.99492  0.70743  0.03934  Biso   1.000  O
  O79      1.0000 0.70743  0.00508  0.03934  Biso   1.000  O
  O80      1.0000 0.29257  0.99492  0.03934  Biso   1.000  O
  O81      1.0000 0.51085  0.13107  0.46083  Biso   1.000  O
  O82      1.0000 0.48915  0.86893  0.46083  Biso   1.000  O
  O83      1.0000 0.86893  0.51085  0.46083  Biso   1.000  O
  O84      1.0000 0.13107  0.48915  0.46083  Biso   1.000  O
  O85      1.0000 0.01085  0.63107  0.96083  Biso   1.000  O
  O86      1.0000 0.98915  0.36893  0.96083  Biso   1.000  O
  O87      1.0000 0.36893  0.01085  0.96083  Biso   1.000  O
  O88      1.0000 0.63107  0.98915  0.96083  Biso   1.000  O
  O89      1.0000 0.48915  0.86893  0.53917  Biso   1.000  O
  O90      1.0000 0.51085  0.13107  0.53917  Biso   1.000  O
  O91      1.0000 0.13107  0.48915  0.53917  Biso   1.000  O
  O92      1.0000 0.86893  0.51085  0.53917  Biso   1.000  O
  O93      1.0000 0.98915  0.36893  0.03917  Biso   1.000  O
  O94      1.0000 0.01085  0.63107  0.03917  Biso   1.000  O
  O95      1.0000 0.63107  0.98915  0.03917  Biso   1.000  O
  O96      1.0000 0.36893  0.01085  0.03917  Biso   1.000  O
  O97      1.0000 0.65182  0.89670  0.03860  Biso   1.000  O
  O98      1.0000 0.34818  0.10330  0.03860  Biso   1.000  O
  O99      1.0000 0.10330  0.65182  0.03860  Biso   1.000  O
  O100     1.0000 0.89670  0.34818  0.03860  Biso   1.000  O
  O101     1.0000 0.15182  0.39670  0.53860  Biso   1.000  O
  O102     1.0000 0.84818  0.60330  0.53860  Biso   1.000  O
  O103     1.0000 0.60330  0.15182  0.53860  Biso   1.000  O
  O104     1.0000 0.39670  0.84818  0.53860  Biso   1.000  O
  O105     1.0000 0.34818  0.10330  0.96140  Biso   1.000  O
  O106     1.0000 0.65182  0.89670  0.96140  Biso   1.000  O
  O107     1.0000 0.89670  0.34818  0.96140  Biso   1.000  O
  O108     1.0000 0.10330  0.65182  0.96140  Biso   1.000  O
  O109     1.0000 0.84818  0.60330  0.46140  Biso   1.000  O
  O110     1.0000 0.15182  0.39670  0.46140  Biso   1.000  O
  O111     1.0000 0.39670  0.84818  0.46140  Biso   1.000  O
  O112     1.0000 0.60330  0.15182  0.46140  Biso   1.000  O
  O113     1.0000 0.72822  0.91182  0.03859  Biso   1.000  O
  O114     1.0000 0.27178  0.08818  0.03859  Biso   1.000  O
  O115     1.0000 0.08818  0.72822  0.03859  Biso   1.000  O
  O116     1.0000 0.91182  0.27178  0.03859  Biso   1.000  O
  O117     1.0000 0.22822  0.41182  0.53859  Biso   1.000  O
  O118     1.0000 0.77178  0.58818  0.53859  Biso   1.000  O
  O119     1.0000 0.58818  0.22822  0.53859  Biso   1.000  O
  O120     1.0000 0.41182  0.77178  0.53859  Biso   1.000  O
  O121     1.0000 0.27178  0.08818  0.96141  Biso   1.000  O
  O122     1.0000 0.72822  0.91182  0.96141  Biso   1.000  O
  O123     1.0000 0.91182  0.27178  0.96141  Biso   1.000  O
  O124     1.0000 0.08818  0.72822  0.96141  Biso   1.000  O
  O125     1.0000 0.77178  0.58818  0.46141  Biso   1.000  O
  O126     1.0000 0.22822  0.41182  0.46141  Biso   1.000  O
  O127     1.0000 0.41182  0.77178  0.46141  Biso   1.000  O
  O128     1.0000 0.58818  0.22822  0.46141  Biso   1.000  O
  O129     1.0000 0.79686  0.79015  0.17506  Biso   1.000  O
  O130     1.0000 0.20314  0.20985  0.17506  Biso   1.000  O
  O131     1.0000 0.20985  0.79686  0.17506  Biso   1.000  O
  O132     1.0000 0.79015  0.20314  0.17506  Biso   1.000  O
  O133     1.0000 0.29686  0.29015  0.67506  Biso   1.000  O
  O134     1.0000 0.70314  0.70985  0.67506  Biso   1.000  O
  O135     1.0000 0.70985  0.29686  0.67506  Biso   1.000  O
  O136     1.0000 0.29015  0.70314  0.67506  Biso   1.000  O
  O137     1.0000 0.20314  0.20985  0.82494  Biso   1.000  O
  O138     1.0000 0.79686  0.79015  0.82494  Biso   1.000  O
  O139     1.0000 0.79015  0.20314  0.82494  Biso   1.000  O
  O140     1.0000 0.20985  0.79686  0.82494  Biso   1.000  O
  O141     1.0000 0.70314  0.70985  0.32494  Biso   1.000  O
  O142     1.0000 0.29686  0.29015  0.32494  Biso   1.000  O
  O143     1.0000 0.29015  0.70314  0.32494  Biso   1.000  O
  O144     1.0000 0.70985  0.29686  0.32494  Biso   1.000  O
  O145     1.0000 0.82839  0.83622  0.13073  Biso   1.000  O
  O146     1.0000 0.17161  0.16378  0.13073  Biso   1.000  O
  O147     1.0000 0.16378  0.82839  0.13073  Biso   1.000  O
  O148     1.0000 0.83622  0.17161  0.13073  Biso   1.000  O
  O149     1.0000 0.32839  0.33622  0.63073  Biso   1.000  O
  O150     1.0000 0.67161  0.66378  0.63073  Biso   1.000  O
  O151     1.0000 0.66378  0.32839  0.63073  Biso   1.000  O
  O152     1.0000 0.33622  0.67161  0.63073  Biso   1.000  O
  O153     1.0000 0.17161  0.16378  0.86927  Biso   1.000  O
  O154     1.0000 0.82839  0.83622  0.86927  Biso   1.000  O
  O155     1.0000 0.83622  0.17161  0.86927  Biso   1.000  O
  O156     1.0000 0.16378  0.82839  0.86927  Biso   1.000  O
  O157     1.0000 0.67161  0.66378  0.36927  Biso   1.000  O
  O158     1.0000 0.32839  0.33622  0.36927  Biso   1.000  O
  O159     1.0000 0.33622  0.67161  0.36927  Biso   1.000  O
  O160     1.0000 0.66378  0.32839  0.36927  Biso   1.000  O
  O161     1.0000 0.79465  0.08891  0.23570  Biso   1.000  O
  O162     1.0000 0.20535  0.91109  0.23570  Biso   1.000  O
  O163     1.0000 0.91109  0.79465  0.23570  Biso   1.000  O
  O164     1.0000 0.08891  0.20535  0.23570  Biso   1.000  O
  O165     1.0000 0.29465  0.58891  0.73570  Biso   1.000  O
  O166     1.0000 0.70535  0.41109  0.73570  Biso   1.000  O
  O167     1.0000 0.41109  0.29465  0.73570  Biso   1.000  O
  O168     1.0000 0.58891  0.70535  0.73570  Biso   1.000  O
  O169     1.0000 0.20535  0.91109  0.76430  Biso   1.000  O
  O170     1.0000 0.79465  0.08891  0.76430  Biso   1.000  O
  O171     1.0000 0.08891  0.20535  0.76430  Biso   1.000  O
  O172     1.0000 0.91109  0.79465  0.76430  Biso   1.000  O
  O173     1.0000 0.70535  0.41109  0.26430  Biso   1.000  O
  O174     1.0000 0.29465  0.58891  0.26430  Biso   1.000  O
  O175     1.0000 0.58891  0.70535  0.26430  Biso   1.000  O
  O176     1.0000 0.41109  0.29465  0.26430  Biso   1.000  O
  O177     1.0000 0.83285  0.05640  0.18687  Biso   1.000  O
  O178     1.0000 0.16715  0.94360  0.18687  Biso   1.000  O
  O179     1.0000 0.94360  0.83285  0.18687  Biso   1.000  O
  O180     1.0000 0.05640  0.16715  0.18687  Biso   1.000  O
  O181     1.0000 0.33285  0.55640  0.68687  Biso   1.000  O
  O182     1.0000 0.66715  0.44360  0.68687  Biso   1.000  O
  O183     1.0000 0.44360  0.33285  0.68687  Biso   1.000  O
  O184     1.0000 0.55640  0.66715  0.68687  Biso   1.000  O
  O185     1.0000 0.16715  0.94360  0.81313  Biso   1.000  O
  O186     1.0000 0.83285  0.05640  0.81313  Biso   1.000  O
  O187     1.0000 0.05640  0.16715  0.81313  Biso   1.000  O
  O188     1.0000 0.94360  0.83285  0.81313  Biso   1.000  O
  O189     1.0000 0.66715  0.44360  0.31313  Biso   1.000  O
  O190     1.0000 0.33285  0.55640  0.31313  Biso   1.000  O
  O191     1.0000 0.55640  0.66715  0.31313  Biso   1.000  O
  O192     1.0000 0.44360  0.33285  0.31313  Biso   1.000  O
  Si1      1.0000 0.42966  0.82169  0.28887  Biso   1.000  Si
  Si2      1.0000 0.57034  0.17831  0.28887  Biso   1.000  Si
  Si3      1.0000 0.17831  0.42966  0.28887  Biso   1.000  Si
  Si4      1.0000 0.82169  0.57034  0.28887  Biso   1.000  Si
  Si5      1.0000 0.92966  0.32169  0.78887  Biso   1.000  Si
  Si6      1.0000 0.07034  0.67831  0.78887  Biso   1.000  Si
  Si7      1.0000 0.67831  0.92966  0.78887  Biso   1.000  Si
  Si8      1.0000 0.32169  0.07034  0.78887  Biso   1.000  Si
  Si9      1.0000 0.57034  0.17831  0.71113  Biso   1.000  Si
  Si10     1.0000 0.42966  0.82169  0.71113  Biso   1.000  Si
  Si11     1.0000 0.82169  0.57034  0.71113  Biso   1.000  Si
  Si12     1.0000 0.17831  0.42966  0.71113  Biso   1.000  Si
  Si13     1.0000 0.07034  0.67831  0.21113  Biso   1.000  Si
  Si14     1.0000 0.92966  0.32169  0.21113  Biso   1.000  Si
  Si15     1.0000 0.32169  0.07034  0.21113  Biso   1.000  Si
  Si16     1.0000 0.67831  0.92966  0.21113  Biso   1.000  Si
  Si17     1.0000 0.64897  0.89071  0.50000  Biso   1.000  Si
  Si18     1.0000 0.35103  0.10929  0.50000  Biso   1.000  Si
  Si19     1.0000 0.10929  0.64897  0.50000  Biso   1.000  Si
  Si20     1.0000 0.89071  0.35103  0.50000  Biso   1.000  Si
  Si21     1.0000 0.14897  0.39071  0.00000  Biso   1.000  Si
  Si22     1.0000 0.85103  0.60929  0.00000  Biso   1.000  Si
  Si23     1.0000 0.60929  0.14897  0.00000  Biso   1.000  Si
  Si24     1.0000 0.39071  0.85103  0.00000  Biso   1.000  Si
  C1       1.0000 0.39356  0.23650  0.34647  Biso   1.000  C
  C2       1.0000 0.60644  0.76350  0.34647  Biso   1.000  C
  C3       1.0000 0.76350  0.39356  0.34647  Biso   1.000  C
  C4       1.0000 0.23650  0.60644  0.34647  Biso   1.000  C
  C5       1.0000 0.89356  0.73650  0.84647  Biso   1.000  C
  C6       1.0000 0.10644  0.26350  0.84647  Biso   1.000  C
  C7       1.0000 0.26350  0.89356  0.84647  Biso   1.000  C
  C8       1.0000 0.73650  0.10644  0.84647  Biso   1.000  C
  C9       1.0000 0.60644  0.76350  0.65353  Biso   1.000  C
  C10      1.0000 0.39356  0.23650  0.65353  Biso   1.000  C
  C11      1.0000 0.23650  0.60644  0.65353  Biso   1.000  C
  C12      1.0000 0.76350  0.39356  0.65353  Biso   1.000  C
  C13      1.0000 0.10644  0.26350  0.15353  Biso   1.000  C
  C14      1.0000 0.89356  0.73650  0.15353  Biso   1.000  C
  C15      1.0000 0.73650  0.10644  0.15353  Biso   1.000  C
  C16      1.0000 0.26350  0.89356  0.15353  Biso   1.000  C
  C17      1.0000 0.41430  0.19374  0.36494  Biso   1.000  C
  C18      1.0000 0.58570  0.80626  0.36494  Biso   1.000  C
  C19      1.0000 0.80626  0.41430  0.36494  Biso   1.000  C
  C20      1.0000 0.19374  0.58570  0.36494  Biso   1.000  C
  C21      1.0000 0.91430  0.69374  0.86494  Biso   1.000  C
  C22      1.0000 0.08570  0.30626  0.86494  Biso   1.000  C
  C23      1.0000 0.30626  0.91430  0.86494  Biso   1.000  C
  C24      1.0000 0.69374  0.08570  0.86494  Biso   1.000  C
  C25      1.0000 0.58570  0.80626  0.63506  Biso   1.000  C
  C26      1.0000 0.41430  0.19374  0.63506  Biso   1.000  C
  C27      1.0000 0.19374  0.58570  0.63506  Biso   1.000  C
  C28      1.0000 0.80626  0.41430  0.63506  Biso   1.000  C
  C29      1.0000 0.08570  0.30626  0.13506  Biso   1.000  C
  C30      1.0000 0.91430  0.69374  0.13506  Biso   1.000  C
  C31      1.0000 0.69374  0.08570  0.13506  Biso   1.000  C
  C32      1.0000 0.30626  0.91430  0.13506  Biso   1.000  C
  C33      1.0000 0.41000  0.14940  0.34816  Biso   1.000  C
  C34      1.0000 0.59000  0.85060  0.34816  Biso   1.000  C
  C35      1.0000 0.85060  0.41000  0.34816  Biso   1.000  C
  C36      1.0000 0.14940  0.59000  0.34816  Biso   1.000  C
  C37      1.0000 0.91000  0.64940  0.84816  Biso   1.000  C
  C38      1.0000 0.09000  0.35060  0.84816  Biso   1.000  C
  C39      1.0000 0.35060  0.91000  0.84816  Biso   1.000  C
  C40      1.0000 0.64940  0.09000  0.84816  Biso   1.000  C
  C41      1.0000 0.59000  0.85060  0.65184  Biso   1.000  C
  C42      1.0000 0.41000  0.14940  0.65184  Biso   1.000  C
  C43      1.0000 0.14940  0.59000  0.65184  Biso   1.000  C
  C44      1.0000 0.85060  0.41000  0.65184  Biso   1.000  C
  C45      1.0000 0.09000  0.35060  0.15184  Biso   1.000  C
  C46      1.0000 0.91000  0.64940  0.15184  Biso   1.000  C
  C47      1.0000 0.64940  0.09000  0.15184  Biso   1.000  C
  C48      1.0000 0.35060  0.91000  0.15184  Biso   1.000  C
  H1       1.0000 0.39260  0.14580  0.32620  Biso   1.000  H
  H2       1.0000 0.60740  0.85420  0.32620  Biso   1.000  H
  H3       1.0000 0.85420  0.39260  0.32620  Biso   1.000  H
  H4       1.0000 0.14580  0.60740  0.32620  Biso   1.000  H
  H5       1.0000 0.89260  0.64580  0.82620  Biso   1.000  H
  H6       1.0000 0.10740  0.35420  0.82620  Biso   1.000  H
  H7       1.0000 0.35420  0.89260  0.82620  Biso   1.000  H
  H8       1.0000 0.64580  0.10740  0.82620  Biso   1.000  H
  H9       1.0000 0.60740  0.85420  0.67380  Biso   1.000  H
  H10      1.0000 0.39260  0.14580  0.67380  Biso   1.000  H
  H11      1.0000 0.14580  0.60740  0.67380  Biso   1.000  H
  H12      1.0000 0.85420  0.39260  0.67380  Biso   1.000  H
  H13      1.0000 0.10740  0.35420  0.17380  Biso   1.000  H
  H14      1.0000 0.89260  0.64580  0.17380  Biso   1.000  H
  H15      1.0000 0.64580  0.10740  0.17380  Biso   1.000  H
  H16      1.0000 0.35420  0.89260  0.17380  Biso   1.000  H
  C49      1.0000 0.43120  0.11180  0.36411  Biso   1.000  C
  C50      1.0000 0.56880  0.88820  0.36411  Biso   1.000  C
  C51      1.0000 0.88820  0.43120  0.36411  Biso   1.000  C
  C52      1.0000 0.11180  0.56880  0.36411  Biso   1.000  C
  C53      1.0000 0.93120  0.61180  0.86411  Biso   1.000  C
  C54      1.0000 0.06880  0.38820  0.86411  Biso   1.000  C
  C55      1.0000 0.38820  0.93120  0.86411  Biso   1.000  C
  C56      1.0000 0.61180  0.06880  0.86411  Biso   1.000  C
  C57      1.0000 0.56880  0.88820  0.63589  Biso   1.000  C
  C58      1.0000 0.43120  0.11180  0.63589  Biso   1.000  C
  C59      1.0000 0.11180  0.56880  0.63589  Biso   1.000  C
  C60      1.0000 0.88820  0.43120  0.63589  Biso   1.000  C
  C61      1.0000 0.06880  0.38820  0.13589  Biso   1.000  C
  C62      1.0000 0.93120  0.61180  0.13589  Biso   1.000  C
  C63      1.0000 0.61180  0.06880  0.13589  Biso   1.000  C
  C64      1.0000 0.38820  0.93120  0.13589  Biso   1.000  C
  C65      1.0000 0.45710  0.11700  0.39711  Biso   1.000  C
  C66      1.0000 0.54290  0.88300  0.39711  Biso   1.000  C
  C67      1.0000 0.88300  0.45710  0.39711  Biso   1.000  C
  C68      1.0000 0.11700  0.54290  0.39711  Biso   1.000  C
  C69      1.0000 0.95710  0.61700  0.89711  Biso   1.000  C
  C70      1.0000 0.04290  0.38300  0.89711  Biso   1.000  C
  C71      1.0000 0.38300  0.95710  0.89711  Biso   1.000  C
  C72      1.0000 0.61700  0.04290  0.89711  Biso   1.000  C
  C73      1.0000 0.54290  0.88300  0.60289  Biso   1.000  C
  C74      1.0000 0.45710  0.11700  0.60289  Biso   1.000  C
  C75      1.0000 0.11700  0.54290  0.60289  Biso   1.000  C
  C76      1.0000 0.88300  0.45710  0.60289  Biso   1.000  C
  C77      1.0000 0.04290  0.38300  0.10289  Biso   1.000  C
  C78      1.0000 0.95710  0.61700  0.10289  Biso   1.000  C
  C79      1.0000 0.61700  0.04290  0.10289  Biso   1.000  C
  C80      1.0000 0.38300  0.95710  0.10289  Biso   1.000  C
  H17      1.0000 0.47190  0.09140  0.40770  Biso   1.000  H
  H18      1.0000 0.52810  0.90860  0.40770  Biso   1.000  H
  H19      1.0000 0.90860  0.47190  0.40770  Biso   1.000  H
  H20      1.0000 0.09140  0.52810  0.40770  Biso   1.000  H
  H21      1.0000 0.97190  0.59140  0.90770  Biso   1.000  H
  H22      1.0000 0.02810  0.40860  0.90770  Biso   1.000  H
  H23      1.0000 0.40860  0.97190  0.90770  Biso   1.000  H
  H24      1.0000 0.59140  0.02810  0.90770  Biso   1.000  H
  H25      1.0000 0.52810  0.90860  0.59230  Biso   1.000  H
  H26      1.0000 0.47190  0.09140  0.59230  Biso   1.000  H
  H27      1.0000 0.09140  0.52810  0.59230  Biso   1.000  H
  H28      1.0000 0.90860  0.47190  0.59230  Biso   1.000  H
  H29      1.0000 0.02810  0.40860  0.09230  Biso   1.000  H
  H30      1.0000 0.97190  0.59140  0.09230  Biso   1.000  H
  H31      1.0000 0.59140  0.02810  0.09230  Biso   1.000  H
  H32      1.0000 0.40860  0.97190  0.09230  Biso   1.000  H
  C81      1.0000 0.46079  0.16056  0.41425  Biso   1.000  C
  C82      1.0000 0.53921  0.83944  0.41425  Biso   1.000  C
  C83      1.0000 0.83944  0.46079  0.41425  Biso   1.000  C
  C84      1.0000 0.16056  0.53921  0.41425  Biso   1.000  C
  C85      1.0000 0.96079  0.66056  0.91425  Biso   1.000  C
  C86      1.0000 0.03921  0.33944  0.91425  Biso   1.000  C
  C87      1.0000 0.33944  0.96079  0.91425  Biso   1.000  C
  C88      1.0000 0.66056  0.03921  0.91425  Biso   1.000  C
  C89      1.0000 0.53921  0.83944  0.58575  Biso   1.000  C
  C90      1.0000 0.46079  0.16056  0.58575  Biso   1.000  C
  C91      1.0000 0.16056  0.53921  0.58575  Biso   1.000  C
  C92      1.0000 0.83944  0.46079  0.58575  Biso   1.000  C
  C93      1.0000 0.03921  0.33944  0.08575  Biso   1.000  C
  C94      1.0000 0.96079  0.66056  0.08575  Biso   1.000  C
  C95      1.0000 0.66056  0.03921  0.08575  Biso   1.000  C
  C96      1.0000 0.33944  0.96079  0.08575  Biso   1.000  C
  C97      1.0000 0.43943  0.19868  0.39792  Biso   1.000  C
  C98      1.0000 0.56057  0.80132  0.39792  Biso   1.000  C
  C99      1.0000 0.80132  0.43943  0.39792  Biso   1.000  C
  C100     1.0000 0.19868  0.56057  0.39792  Biso   1.000  C
  C101     1.0000 0.93943  0.69868  0.89792  Biso   1.000  C
  C102     1.0000 0.06057  0.30132  0.89792  Biso   1.000  C
  C103     1.0000 0.30132  0.93943  0.89792  Biso   1.000  C
  C104     1.0000 0.69868  0.06057  0.89792  Biso   1.000  C
  C105     1.0000 0.56057  0.80132  0.60208  Biso   1.000  C
  C106     1.0000 0.43943  0.19868  0.60208  Biso   1.000  C
  C107     1.0000 0.19868  0.56057  0.60208  Biso   1.000  C
  C108     1.0000 0.80132  0.43943  0.60208  Biso   1.000  C
  C109     1.0000 0.06057  0.30132  0.10208  Biso   1.000  C
  C110     1.0000 0.93943  0.69868  0.10208  Biso   1.000  C
  C111     1.0000 0.69868  0.06057  0.10208  Biso   1.000  C
  C112     1.0000 0.30132  0.93943  0.10208  Biso   1.000  C
  H33      1.0000 0.44200  0.22780  0.40920  Biso   1.000  H
  H34      1.0000 0.55800  0.77220  0.40920  Biso   1.000  H
  H35      1.0000 0.77220  0.44200  0.40920  Biso   1.000  H
  H36      1.0000 0.22780  0.55800  0.40920  Biso   1.000  H
  H37      1.0000 0.94200  0.72780  0.90920  Biso   1.000  H
  H38      1.0000 0.05800  0.27220  0.90920  Biso   1.000  H
  H39      1.0000 0.27220  0.94200  0.90920  Biso   1.000  H
  H40      1.0000 0.72780  0.05800  0.90920  Biso   1.000  H
  H41      1.0000 0.55800  0.77220  0.59080  Biso   1.000  H
  H42      1.0000 0.44200  0.22780  0.59080  Biso   1.000  H
  H43      1.0000 0.22780  0.55800  0.59080  Biso   1.000  H
  H44      1.0000 0.77220  0.44200  0.59080  Biso   1.000  H
  H45      1.0000 0.05800  0.27220  0.09080  Biso   1.000  H
  H46      1.0000 0.94200  0.72780  0.09080  Biso   1.000  H
  H47      1.0000 0.72780  0.05800  0.09080  Biso   1.000  H
  H48      1.0000 0.27220  0.94200  0.09080  Biso   1.000  H
  C113     1.0000 0.49140  0.16664  0.44793  Biso   1.000  C
  C114     1.0000 0.50860  0.83336  0.44793  Biso   1.000  C
  C115     1.0000 0.83336  0.49140  0.44793  Biso   1.000  C
  C116     1.0000 0.16664  0.50860  0.44793  Biso   1.000  C
  C117     1.0000 0.99140  0.66664  0.94793  Biso   1.000  C
  C118     1.0000 0.00860  0.33336  0.94793  Biso   1.000  C
  C119     1.0000 0.33336  0.99140  0.94793  Biso   1.000  C
  C120     1.0000 0.66664  0.00860  0.94793  Biso   1.000  C
  C121     1.0000 0.50860  0.83336  0.55207  Biso   1.000  C
  C122     1.0000 0.49140  0.16664  0.55207  Biso   1.000  C
  C123     1.0000 0.16664  0.50860  0.55207  Biso   1.000  C
  C124     1.0000 0.83336  0.49140  0.55207  Biso   1.000  C
  C125     1.0000 0.00860  0.33336  0.05207  Biso   1.000  C
  C126     1.0000 0.99140  0.66664  0.05207  Biso   1.000  C
  C127     1.0000 0.66664  0.00860  0.05207  Biso   1.000  C
  C128     1.0000 0.33336  0.99140  0.05207  Biso   1.000  C
  C129     1.0000 0.84530  0.88570  0.21557  Biso   1.000  C
  C130     1.0000 0.15470  0.11430  0.21557  Biso   1.000  C
  C131     1.0000 0.11430  0.84530  0.21557  Biso   1.000  C
  C132     1.0000 0.88570  0.15470  0.21557  Biso   1.000  C
  C133     1.0000 0.34530  0.38570  0.71557  Biso   1.000  C
  C134     1.0000 0.65470  0.61430  0.71557  Biso   1.000  C
  C135     1.0000 0.61430  0.34530  0.71557  Biso   1.000  C
  C136     1.0000 0.38570  0.65470  0.71557  Biso   1.000  C
  C137     1.0000 0.15470  0.11430  0.78443  Biso   1.000  C
  C138     1.0000 0.84530  0.88570  0.78443  Biso   1.000  C
  C139     1.0000 0.88570  0.15470  0.78443  Biso   1.000  C
  C140     1.0000 0.11430  0.84530  0.78443  Biso   1.000  C
  C141     1.0000 0.65470  0.61430  0.28443  Biso   1.000  C
  C142     1.0000 0.34530  0.38570  0.28443  Biso   1.000  C
  C143     1.0000 0.38570  0.65470  0.28443  Biso   1.000  C
  C144     1.0000 0.61430  0.34530  0.28443  Biso   1.000  C
  C145     1.0000 0.83050  0.92770  0.23645  Biso   1.000  C
  C146     1.0000 0.16950  0.07230  0.23645  Biso   1.000  C
  C147     1.0000 0.07230  0.83050  0.23645  Biso   1.000  C
  C148     1.0000 0.92770  0.16950  0.23645  Biso   1.000  C
  C149     1.0000 0.33050  0.42770  0.73645  Biso   1.000  C
  C150     1.0000 0.66950  0.57230  0.73645  Biso   1.000  C
  C151     1.0000 0.57230  0.33050  0.73645  Biso   1.000  C
  C152     1.0000 0.42770  0.66950  0.73645  Biso   1.000  C
  C153     1.0000 0.16950  0.07230  0.76355  Biso   1.000  C
  C154     1.0000 0.83050  0.92770  0.76355  Biso   1.000  C
  C155     1.0000 0.92770  0.16950  0.76355  Biso   1.000  C
  C156     1.0000 0.07230  0.83050  0.76355  Biso   1.000  C
  C157     1.0000 0.66950  0.57230  0.26355  Biso   1.000  C
  C158     1.0000 0.33050  0.42770  0.26355  Biso   1.000  C
  C159     1.0000 0.42770  0.66950  0.26355  Biso   1.000  C
  C160     1.0000 0.57230  0.33050  0.26355  Biso   1.000  C
  C161     1.0000 0.83203  0.97140  0.21998  Biso   1.000  C
  C162     1.0000 0.16797  0.02860  0.21998  Biso   1.000  C
  C163     1.0000 0.02860  0.83203  0.21998  Biso   1.000  C
  C164     1.0000 0.97140  0.16797  0.21998  Biso   1.000  C
  C165     1.0000 0.33203  0.47140  0.71998  Biso   1.000  C
  C166     1.0000 0.66797  0.52860  0.71998  Biso   1.000  C
  C167     1.0000 0.52860  0.33203  0.71998  Biso   1.000  C
  C168     1.0000 0.47140  0.66797  0.71998  Biso   1.000  C
  C169     1.0000 0.16797  0.02860  0.78002  Biso   1.000  C
  C170     1.0000 0.83203  0.97140  0.78002  Biso   1.000  C
  C171     1.0000 0.97140  0.16797  0.78002  Biso   1.000  C
  C172     1.0000 0.02860  0.83203  0.78002  Biso   1.000  C
  C173     1.0000 0.66797  0.52860  0.28002  Biso   1.000  C
  C174     1.0000 0.33203  0.47140  0.28002  Biso   1.000  C
  C175     1.0000 0.47140  0.66797  0.28002  Biso   1.000  C
  C176     1.0000 0.52860  0.33203  0.28002  Biso   1.000  C
  H49      1.0000 0.84400  0.97470  0.19580  Biso   1.000  H
  H50      1.0000 0.15600  0.02530  0.19580  Biso   1.000  H
  H51      1.0000 0.02530  0.84400  0.19580  Biso   1.000  H
  H52      1.0000 0.97470  0.15600  0.19580  Biso   1.000  H
  H53      1.0000 0.34400  0.47470  0.69580  Biso   1.000  H
  H54      1.0000 0.65600  0.52530  0.69580  Biso   1.000  H
  H55      1.0000 0.52530  0.34400  0.69580  Biso   1.000  H
  H56      1.0000 0.47470  0.65600  0.69580  Biso   1.000  H
  H57      1.0000 0.15600  0.02530  0.80420  Biso   1.000  H
  H58      1.0000 0.84400  0.97470  0.80420  Biso   1.000  H
  H59      1.0000 0.97470  0.15600  0.80420  Biso   1.000  H
  H60      1.0000 0.02530  0.84400  0.80420  Biso   1.000  H
  H61      1.0000 0.65600  0.52530  0.30420  Biso   1.000  H
  H62      1.0000 0.34400  0.47470  0.30420  Biso   1.000  H
  H63      1.0000 0.47470  0.65600  0.30420  Biso   1.000  H
  H64      1.0000 0.52530  0.34400  0.30420  Biso   1.000  H
  C177     1.0000 0.81600  0.00990  0.23899  Biso   1.000  C
  C178     1.0000 0.18400  0.99010  0.23899  Biso   1.000  C
  C179     1.0000 0.99010  0.81600  0.23899  Biso   1.000  C
  C180     1.0000 0.00990  0.18400  0.23899  Biso   1.000  C
  C181     1.0000 0.31600  0.50990  0.73899  Biso   1.000  C
  C182     1.0000 0.68400  0.49010  0.73899  Biso   1.000  C
  C183     1.0000 0.49010  0.31600  0.73899  Biso   1.000  C
  C184     1.0000 0.50990  0.68400  0.73899  Biso   1.000  C
  C185     1.0000 0.18400  0.99010  0.76101  Biso   1.000  C
  C186     1.0000 0.81600  0.00990  0.76101  Biso   1.000  C
  C187     1.0000 0.00990  0.18400  0.76101  Biso   1.000  C
  C188     1.0000 0.99010  0.81600  0.76101  Biso   1.000  C
  C189     1.0000 0.68400  0.49010  0.26101  Biso   1.000  C
  C190     1.0000 0.31600  0.50990  0.26101  Biso   1.000  C
  C191     1.0000 0.50990  0.68400  0.26101  Biso   1.000  C
  C192     1.0000 0.49010  0.31600  0.26101  Biso   1.000  C
  C193     1.0000 0.79960  0.00480  0.27636  Biso   1.000  C
  C194     1.0000 0.20040  0.99520  0.27636  Biso   1.000  C
  C195     1.0000 0.99520  0.79960  0.27636  Biso   1.000  C
  C196     1.0000 0.00480  0.20040  0.27636  Biso   1.000  C
  C197     1.0000 0.29960  0.50480  0.77636  Biso   1.000  C
  C198     1.0000 0.70040  0.49520  0.77636  Biso   1.000  C
  C199     1.0000 0.49520  0.29960  0.77636  Biso   1.000  C
  C200     1.0000 0.50480  0.70040  0.77636  Biso   1.000  C
  C201     1.0000 0.20040  0.99520  0.72364  Biso   1.000  C
  C202     1.0000 0.79960  0.00480  0.72364  Biso   1.000  C
  C203     1.0000 0.00480  0.20040  0.72364  Biso   1.000  C
  C204     1.0000 0.99520  0.79960  0.72364  Biso   1.000  C
  C205     1.0000 0.70040  0.49520  0.22364  Biso   1.000  C
  C206     1.0000 0.29960  0.50480  0.22364  Biso   1.000  C
  C207     1.0000 0.50480  0.70040  0.22364  Biso   1.000  C
  C208     1.0000 0.49520  0.29960  0.22364  Biso   1.000  C
  H65      1.0000 0.78890  0.03060  0.28960  Biso   1.000  H
  H66      1.0000 0.21110  0.96940  0.28960  Biso   1.000  H
  H67      1.0000 0.96940  0.78890  0.28960  Biso   1.000  H
  H68      1.0000 0.03060  0.21110  0.28960  Biso   1.000  H
  H69      1.0000 0.28890  0.53060  0.78960  Biso   1.000  H
  H70      1.0000 0.71110  0.46940  0.78960  Biso   1.000  H
  H71      1.0000 0.46940  0.28890  0.78960  Biso   1.000  H
  H72      1.0000 0.53060  0.71110  0.78960  Biso   1.000  H
  H73      1.0000 0.21110  0.96940  0.71040  Biso   1.000  H
  H74      1.0000 0.78890  0.03060  0.71040  Biso   1.000  H
  H75      1.0000 0.03060  0.21110  0.71040  Biso   1.000  H
  H76      1.0000 0.96940  0.78890  0.71040  Biso   1.000  H
  H77      1.0000 0.71110  0.46940  0.21040  Biso   1.000  H
  H78      1.0000 0.28890  0.53060  0.21040  Biso   1.000  H
  H79      1.0000 0.53060  0.71110  0.21040  Biso   1.000  H
  H80      1.0000 0.46940  0.28890  0.21040  Biso   1.000  H
  C209     1.0000 0.79950  0.96150  0.29319  Biso   1.000  C
  C210     1.0000 0.20050  0.03850  0.29319  Biso   1.000  C
  C211     1.0000 0.03850  0.79950  0.29319  Biso   1.000  C
  C212     1.0000 0.96150  0.20050  0.29319  Biso   1.000  C
  C213     1.0000 0.29950  0.46150  0.79319  Biso   1.000  C
  C214     1.0000 0.70050  0.53850  0.79319  Biso   1.000  C
  C215     1.0000 0.53850  0.29950  0.79319  Biso   1.000  C
  C216     1.0000 0.46150  0.70050  0.79319  Biso   1.000  C
  C217     1.0000 0.20050  0.03850  0.70681  Biso   1.000  C
  C218     1.0000 0.79950  0.96150  0.70681  Biso   1.000  C
  C219     1.0000 0.96150  0.20050  0.70681  Biso   1.000  C
  C220     1.0000 0.03850  0.79950  0.70681  Biso   1.000  C
  C221     1.0000 0.70050  0.53850  0.20681  Biso   1.000  C
  C222     1.0000 0.29950  0.46150  0.20681  Biso   1.000  C
  C223     1.0000 0.46150  0.70050  0.20681  Biso   1.000  C
  C224     1.0000 0.53850  0.29950  0.20681  Biso   1.000  C
  C225     1.0000 0.81400  0.92330  0.27328  Biso   1.000  C
  C226     1.0000 0.18600  0.07670  0.27328  Biso   1.000  C
  C227     1.0000 0.07670  0.81400  0.27328  Biso   1.000  C
  C228     1.0000 0.92330  0.18600  0.27328  Biso   1.000  C
  C229     1.0000 0.31400  0.42330  0.77328  Biso   1.000  C
  C230     1.0000 0.68600  0.57670  0.77328  Biso   1.000  C
  C231     1.0000 0.57670  0.31400  0.77328  Biso   1.000  C
  C232     1.0000 0.42330  0.68600  0.77328  Biso   1.000  C
  C233     1.0000 0.18600  0.07670  0.72672  Biso   1.000  C
  C234     1.0000 0.81400  0.92330  0.72672  Biso   1.000  C
  C235     1.0000 0.92330  0.18600  0.72672  Biso   1.000  C
  C236     1.0000 0.07670  0.81400  0.72672  Biso   1.000  C
  C237     1.0000 0.68600  0.57670  0.22672  Biso   1.000  C
  C238     1.0000 0.31400  0.42330  0.22672  Biso   1.000  C
  C239     1.0000 0.42330  0.68600  0.22672  Biso   1.000  C
  C240     1.0000 0.57670  0.31400  0.22672  Biso   1.000  C
  H81      1.0000 0.81280  0.89400  0.28450  Biso   1.000  H
  H82      1.0000 0.18720  0.10600  0.28450  Biso   1.000  H
  H83      1.0000 0.10600  0.81280  0.28450  Biso   1.000  H
  H84      1.0000 0.89400  0.18720  0.28450  Biso   1.000  H
  H85      1.0000 0.31280  0.39400  0.78450  Biso   1.000  H
  H86      1.0000 0.68720  0.60600  0.78450  Biso   1.000  H
  H87      1.0000 0.60600  0.31280  0.78450  Biso   1.000  H
  H88      1.0000 0.39400  0.68720  0.78450  Biso   1.000  H
  H89      1.0000 0.18720  0.10600  0.71550  Biso   1.000  H
  H90      1.0000 0.81280  0.89400  0.71550  Biso   1.000  H
  H91      1.0000 0.89400  0.18720  0.71550  Biso   1.000  H
  H92      1.0000 0.10600  0.81280  0.71550  Biso   1.000  H
  H93      1.0000 0.68720  0.60600  0.21550  Biso   1.000  H
  H94      1.0000 0.31280  0.39400  0.21550  Biso   1.000  H
  H95      1.0000 0.39400  0.68720  0.21550  Biso   1.000  H
  H96      1.0000 0.60600  0.31280  0.21550  Biso   1.000  H
  C241     1.0000 0.78080  0.95370  0.33030  Biso   1.000  C
  C242     1.0000 0.21920  0.04630  0.33030  Biso   1.000  C
  C243     1.0000 0.04630  0.78080  0.33030  Biso   1.000  C
  C244     1.0000 0.95370  0.21920  0.33030  Biso   1.000  C
  C245     1.0000 0.28080  0.45370  0.83030  Biso   1.000  C
  C246     1.0000 0.71920  0.54630  0.83030  Biso   1.000  C
  C247     1.0000 0.54630  0.28080  0.83030  Biso   1.000  C
  C248     1.0000 0.45370  0.71920  0.83030  Biso   1.000  C
  C249     1.0000 0.21920  0.04630  0.66970  Biso   1.000  C
  C250     1.0000 0.78080  0.95370  0.66970  Biso   1.000  C
  C251     1.0000 0.95370  0.21920  0.66970  Biso   1.000  C
  C252     1.0000 0.04630  0.78080  0.66970  Biso   1.000  C
  C253     1.0000 0.71920  0.54630  0.16970  Biso   1.000  C
  C254     1.0000 0.28080  0.45370  0.16970  Biso   1.000  C
  C255     1.0000 0.45370  0.71920  0.16970  Biso   1.000  C
  C256     1.0000 0.54630  0.28080  0.16970  Biso   1.000  C
  C257     1.0000 0.79510  0.81500  0.14622  Biso   1.000  C
  C258     1.0000 0.20490  0.18500  0.14622  Biso   1.000  C
  C259     1.0000 0.18500  0.79510  0.14622  Biso   1.000  C
  C260     1.0000 0.81500  0.20490  0.14622  Biso   1.000  C
  C261     1.0000 0.29510  0.31500  0.64622  Biso   1.000  C
  C262     1.0000 0.70490  0.68500  0.64622  Biso   1.000  C
  C263     1.0000 0.68500  0.29510  0.64622  Biso   1.000  C
  C264     1.0000 0.31500  0.70490  0.64622  Biso   1.000  C
  C265     1.0000 0.20490  0.18500  0.85378  Biso   1.000  C
  C266     1.0000 0.79510  0.81500  0.85378  Biso   1.000  C
  C267     1.0000 0.81500  0.20490  0.85378  Biso   1.000  C
  C268     1.0000 0.18500  0.79510  0.85378  Biso   1.000  C
  C269     1.0000 0.70490  0.68500  0.35378  Biso   1.000  C
  C270     1.0000 0.29510  0.31500  0.35378  Biso   1.000  C
  C271     1.0000 0.31500  0.70490  0.35378  Biso   1.000  C
  C272     1.0000 0.68500  0.29510  0.35378  Biso   1.000  C
  C273     1.0000 0.74840  0.82260  0.12922  Biso   1.000  C
  C274     1.0000 0.25160  0.17740  0.12922  Biso   1.000  C
  C275     1.0000 0.17740  0.74840  0.12922  Biso   1.000  C
  C276     1.0000 0.82260  0.25160  0.12922  Biso   1.000  C
  C277     1.0000 0.24840  0.32260  0.62922  Biso   1.000  C
  C278     1.0000 0.75160  0.67740  0.62922  Biso   1.000  C
  C279     1.0000 0.67740  0.24840  0.62922  Biso   1.000  C
  C280     1.0000 0.32260  0.75160  0.62922  Biso   1.000  C
  C281     1.0000 0.25160  0.17740  0.87078  Biso   1.000  C
  C282     1.0000 0.74840  0.82260  0.87078  Biso   1.000  C
  C283     1.0000 0.82260  0.25160  0.87078  Biso   1.000  C
  C284     1.0000 0.17740  0.74840  0.87078  Biso   1.000  C
  C285     1.0000 0.75160  0.67740  0.37078  Biso   1.000  C
  C286     1.0000 0.24840  0.32260  0.37078  Biso   1.000  C
  C287     1.0000 0.32260  0.75160  0.37078  Biso   1.000  C
  C288     1.0000 0.67740  0.24840  0.37078  Biso   1.000  C
  C289     1.0000 0.70880  0.80780  0.14843  Biso   1.000  C
  C290     1.0000 0.29120  0.19220  0.14843  Biso   1.000  C
  C291     1.0000 0.19220  0.70880  0.14843  Biso   1.000  C
  C292     1.0000 0.80780  0.29120  0.14843  Biso   1.000  C
  C293     1.0000 0.20880  0.30780  0.64843  Biso   1.000  C
  C294     1.0000 0.79120  0.69220  0.64843  Biso   1.000  C
  C295     1.0000 0.69220  0.20880  0.64843  Biso   1.000  C
  C296     1.0000 0.30780  0.79120  0.64843  Biso   1.000  C
  C297     1.0000 0.29120  0.19220  0.85157  Biso   1.000  C
  C298     1.0000 0.70880  0.80780  0.85157  Biso   1.000  C
  C299     1.0000 0.80780  0.29120  0.85157  Biso   1.000  C
  C300     1.0000 0.19220  0.70880  0.85157  Biso   1.000  C
  C301     1.0000 0.79120  0.69220  0.35157  Biso   1.000  C
  C302     1.0000 0.20880  0.30780  0.35157  Biso   1.000  C
  C303     1.0000 0.30780  0.79120  0.35157  Biso   1.000  C
  C304     1.0000 0.69220  0.20880  0.35157  Biso   1.000  C
  H97      1.0000 0.71190  0.78960  0.17000  Biso   1.000  H
  H98      1.0000 0.28810  0.21040  0.17000  Biso   1.000  H
  H99      1.0000 0.21040  0.71190  0.17000  Biso   1.000  H
  H100     1.0000 0.78960  0.28810  0.17000  Biso   1.000  H
  H101     1.0000 0.21190  0.28960  0.67000  Biso   1.000  H
  H102     1.0000 0.78810  0.71040  0.67000  Biso   1.000  H
  H103     1.0000 0.71040  0.21190  0.67000  Biso   1.000  H
  H104     1.0000 0.28960  0.78810  0.67000  Biso   1.000  H
  H105     1.0000 0.28810  0.21040  0.83000  Biso   1.000  H
  H106     1.0000 0.71190  0.78960  0.83000  Biso   1.000  H
  H107     1.0000 0.78960  0.28810  0.83000  Biso   1.000  H
  H108     1.0000 0.21040  0.71190  0.83000  Biso   1.000  H
  H109     1.0000 0.78810  0.71040  0.33000  Biso   1.000  H
  H110     1.0000 0.21190  0.28960  0.33000  Biso   1.000  H
  H111     1.0000 0.28960  0.78810  0.33000  Biso   1.000  H
  H112     1.0000 0.71040  0.21190  0.33000  Biso   1.000  H
  C305     1.0000 0.66550  0.81970  0.13590  Biso   1.000  C
  C306     1.0000 0.33450  0.18030  0.13590  Biso   1.000  C
  C307     1.0000 0.18030  0.66550  0.13590  Biso   1.000  C
  C308     1.0000 0.81970  0.33450  0.13590  Biso   1.000  C
  C309     1.0000 0.16550  0.31970  0.63590  Biso   1.000  C
  C310     1.0000 0.83450  0.68030  0.63590  Biso   1.000  C
  C311     1.0000 0.68030  0.16550  0.63590  Biso   1.000  C
  C312     1.0000 0.31970  0.83450  0.63590  Biso   1.000  C
  C313     1.0000 0.33450  0.18030  0.86410  Biso   1.000  C
  C314     1.0000 0.66550  0.81970  0.86410  Biso   1.000  C
  C315     1.0000 0.81970  0.33450  0.86410  Biso   1.000  C
  C316     1.0000 0.18030  0.66550  0.86410  Biso   1.000  C
  C317     1.0000 0.83450  0.68030  0.36410  Biso   1.000  C
  C318     1.0000 0.16550  0.31970  0.36410  Biso   1.000  C
  C319     1.0000 0.31970  0.83450  0.36410  Biso   1.000  C
  C320     1.0000 0.68030  0.16550  0.36410  Biso   1.000  C
  C321     1.0000 0.66030  0.84490  0.10272  Biso   1.000  C
  C322     1.0000 0.33970  0.15510  0.10272  Biso   1.000  C
  C323     1.0000 0.15510  0.66030  0.10272  Biso   1.000  C
  C324     1.0000 0.84490  0.33970  0.10272  Biso   1.000  C
  C325     1.0000 0.16030  0.34490  0.60272  Biso   1.000  C
  C326     1.0000 0.83970  0.65510  0.60272  Biso   1.000  C
  C327     1.0000 0.65510  0.16030  0.60272  Biso   1.000  C
  C328     1.0000 0.34490  0.83970  0.60272  Biso   1.000  C
  C329     1.0000 0.33970  0.15510  0.89728  Biso   1.000  C
  C330     1.0000 0.66030  0.84490  0.89728  Biso   1.000  C
  C331     1.0000 0.84490  0.33970  0.89728  Biso   1.000  C
  C332     1.0000 0.15510  0.66030  0.89728  Biso   1.000  C
  C333     1.0000 0.83970  0.65510  0.39728  Biso   1.000  C
  C334     1.0000 0.16030  0.34490  0.39728  Biso   1.000  C
  C335     1.0000 0.34490  0.83970  0.39728  Biso   1.000  C
  C336     1.0000 0.65510  0.16030  0.39728  Biso   1.000  C
  H113     1.0000 0.63070  0.85240  0.09390  Biso   1.000  H
  H114     1.0000 0.36930  0.14760  0.09390  Biso   1.000  H
  H115     1.0000 0.14760  0.63070  0.09390  Biso   1.000  H
  H116     1.0000 0.85240  0.36930  0.09390  Biso   1.000  H
  H117     1.0000 0.13070  0.35240  0.59390  Biso   1.000  H
  H118     1.0000 0.86930  0.64760  0.59390  Biso   1.000  H
  H119     1.0000 0.64760  0.13070  0.59390  Biso   1.000  H
  H120     1.0000 0.35240  0.86930  0.59390  Biso   1.000  H
  H121     1.0000 0.36930  0.14760  0.90610  Biso   1.000  H
  H122     1.0000 0.63070  0.85240  0.90610  Biso   1.000  H
  H123     1.0000 0.85240  0.36930  0.90610  Biso   1.000  H
  H124     1.0000 0.14760  0.63070  0.90610  Biso   1.000  H
  H125     1.0000 0.86930  0.64760  0.40610  Biso   1.000  H
  H126     1.0000 0.13070  0.35240  0.40610  Biso   1.000  H
  H127     1.0000 0.35240  0.86930  0.40610  Biso   1.000  H
  H128     1.0000 0.64760  0.13070  0.40610  Biso   1.000  H
  C337     1.0000 0.74290  0.84919  0.09677  Biso   1.000  C
  C338     1.0000 0.25710  0.15081  0.09677  Biso   1.000  C
  C339     1.0000 0.15081  0.74290  0.09677  Biso   1.000  C
  C340     1.0000 0.84919  0.25710  0.09677  Biso   1.000  C
  C341     1.0000 0.24290  0.34919  0.59677  Biso   1.000  C
  C342     1.0000 0.75710  0.65081  0.59677  Biso   1.000  C
  C343     1.0000 0.65081  0.24290  0.59677  Biso   1.000  C
  C344     1.0000 0.34919  0.75710  0.59677  Biso   1.000  C
  C345     1.0000 0.25710  0.15081  0.90323  Biso   1.000  C
  C346     1.0000 0.74290  0.84919  0.90323  Biso   1.000  C
  C347     1.0000 0.84919  0.25710  0.90323  Biso   1.000  C
  C348     1.0000 0.15081  0.74290  0.90323  Biso   1.000  C
  C349     1.0000 0.75710  0.65081  0.40323  Biso   1.000  C
  C350     1.0000 0.24290  0.34919  0.40323  Biso   1.000  C
  C351     1.0000 0.34919  0.75710  0.40323  Biso   1.000  C
  C352     1.0000 0.65081  0.24290  0.40323  Biso   1.000  C
  H129     1.0000 0.76900  0.86060  0.08430  Biso   1.000  H
  H130     1.0000 0.23100  0.13940  0.08430  Biso   1.000  H
  H131     1.0000 0.13940  0.76900  0.08430  Biso   1.000  H
  H132     1.0000 0.86060  0.23100  0.08430  Biso   1.000  H
  H133     1.0000 0.26900  0.36060  0.58430  Biso   1.000  H
  H134     1.0000 0.73100  0.63940  0.58430  Biso   1.000  H
  H135     1.0000 0.63940  0.26900  0.58430  Biso   1.000  H
  H136     1.0000 0.36060  0.73100  0.58430  Biso   1.000  H
  H137     1.0000 0.23100  0.13940  0.91570  Biso   1.000  H
  H138     1.0000 0.76900  0.86060  0.91570  Biso   1.000  H
  H139     1.0000 0.86060  0.23100  0.91570  Biso   1.000  H
  H140     1.0000 0.13940  0.76900  0.91570  Biso   1.000  H
  H141     1.0000 0.73100  0.63940  0.41570  Biso   1.000  H
  H142     1.0000 0.26900  0.36060  0.41570  Biso   1.000  H
  H143     1.0000 0.36060  0.73100  0.41570  Biso   1.000  H
  H144     1.0000 0.63940  0.26900  0.41570  Biso   1.000  H
  C353     1.0000 0.62430  0.81050  0.15790  Biso   1.000  C
  C354     1.0000 0.37570  0.18950  0.15790  Biso   1.000  C
  C355     1.0000 0.18950  0.62430  0.15790  Biso   1.000  C
  C356     1.0000 0.81050  0.37570  0.15790  Biso   1.000  C
  C357     1.0000 0.12430  0.31050  0.65790  Biso   1.000  C
  C358     1.0000 0.87570  0.68950  0.65790  Biso   1.000  C
  C359     1.0000 0.68950  0.12430  0.65790  Biso   1.000  C
  C360     1.0000 0.31050  0.87570  0.65790  Biso   1.000  C
  C361     1.0000 0.37570  0.18950  0.84210  Biso   1.000  C
  C362     1.0000 0.62430  0.81050  0.84210  Biso   1.000  C
  C363     1.0000 0.81050  0.37570  0.84210  Biso   1.000  C
  C364     1.0000 0.18950  0.62430  0.84210  Biso   1.000  C
  C365     1.0000 0.87570  0.68950  0.34210  Biso   1.000  C
  C366     1.0000 0.12430  0.31050  0.34210  Biso   1.000  C
  C367     1.0000 0.31050  0.87570  0.34210  Biso   1.000  C
  C368     1.0000 0.68950  0.12430  0.34210  Biso   1.000  C
  C369     1.0000 0.59110  0.80830  0.17770  Biso   1.000  C
  C370     1.0000 0.40890  0.19170  0.17770  Biso   1.000  C
  C371     1.0000 0.19170  0.59110  0.17770  Biso   1.000  C
  C372     1.0000 0.80830  0.40890  0.17770  Biso   1.000  C
  C373     1.0000 0.09110  0.30830  0.67770  Biso   1.000  C
  C374     1.0000 0.90890  0.69170  0.67770  Biso   1.000  C
  C375     1.0000 0.69170  0.09110  0.67770  Biso   1.000  C
  C376     1.0000 0.30830  0.90890  0.67770  Biso   1.000  C
  C377     1.0000 0.40890  0.19170  0.82230  Biso   1.000  C
  C378     1.0000 0.59110  0.80830  0.82230  Biso   1.000  C
  C379     1.0000 0.80830  0.40890  0.82230  Biso   1.000  C
  C380     1.0000 0.19170  0.59110  0.82230  Biso   1.000  C
  C381     1.0000 0.90890  0.69170  0.32230  Biso   1.000  C
  C382     1.0000 0.09110  0.30830  0.32230  Biso   1.000  C
  C383     1.0000 0.30830  0.90890  0.32230  Biso   1.000  C
  C384     1.0000 0.69170  0.09110  0.32230  Biso   1.000  C
  C385     1.0000 0.55310  0.80960  0.20317  Biso   1.000  C
  C386     1.0000 0.44690  0.19040  0.20317  Biso   1.000  C
  C387     1.0000 0.19040  0.55310  0.20317  Biso   1.000  C
  C388     1.0000 0.80960  0.44690  0.20317  Biso   1.000  C
  C389     1.0000 0.05310  0.30960  0.70317  Biso   1.000  C
  C390     1.0000 0.94690  0.69040  0.70317  Biso   1.000  C
  C391     1.0000 0.69040  0.05310  0.70317  Biso   1.000  C
  C392     1.0000 0.30960  0.94690  0.70317  Biso   1.000  C
  C393     1.0000 0.44690  0.19040  0.79683  Biso   1.000  C
  C394     1.0000 0.55310  0.80960  0.79683  Biso   1.000  C
  C395     1.0000 0.80960  0.44690  0.79683  Biso   1.000  C
  C396     1.0000 0.19040  0.55310  0.79683  Biso   1.000  C
  C397     1.0000 0.94690  0.69040  0.29683  Biso   1.000  C
  C398     1.0000 0.05310  0.30960  0.29683  Biso   1.000  C
  C399     1.0000 0.30960  0.94690  0.29683  Biso   1.000  C
  C400     1.0000 0.69040  0.05310  0.29683  Biso   1.000  C
  C401     1.0000 0.56060  0.80560  0.24242  Biso   1.000  C
  C402     1.0000 0.43940  0.19440  0.24242  Biso   1.000  C
  C403     1.0000 0.19440  0.56060  0.24242  Biso   1.000  C
  C404     1.0000 0.80560  0.43940  0.24242  Biso   1.000  C
  C405     1.0000 0.06060  0.30560  0.74242  Biso   1.000  C
  C406     1.0000 0.93940  0.69440  0.74242  Biso   1.000  C
  C407     1.0000 0.69440  0.06060  0.74242  Biso   1.000  C
  C408     1.0000 0.30560  0.93940  0.74242  Biso   1.000  C
  C409     1.0000 0.43940  0.19440  0.75758  Biso   1.000  C
  C410     1.0000 0.56060  0.80560  0.75758  Biso   1.000  C
  C411     1.0000 0.80560  0.43940  0.75758  Biso   1.000  C
  C412     1.0000 0.19440  0.56060  0.75758  Biso   1.000  C
  C413     1.0000 0.93940  0.69440  0.25758  Biso   1.000  C
  C414     1.0000 0.06060  0.30560  0.25758  Biso   1.000  C
  C415     1.0000 0.30560  0.93940  0.25758  Biso   1.000  C
  C416     1.0000 0.69440  0.06060  0.25758  Biso   1.000  C
  H145     1.0000 0.59050  0.80090  0.25160  Biso   1.000  H
  H146     1.0000 0.40950  0.19910  0.25160  Biso   1.000  H
  H147     1.0000 0.19910  0.59050  0.25160  Biso   1.000  H
  H148     1.0000 0.80090  0.40950  0.25160  Biso   1.000  H
  H149     1.0000 0.09050  0.30090  0.75160  Biso   1.000  H
  H150     1.0000 0.90950  0.69910  0.75160  Biso   1.000  H
  H151     1.0000 0.69910  0.09050  0.75160  Biso   1.000  H
  H152     1.0000 0.30090  0.90950  0.75160  Biso   1.000  H
  H153     1.0000 0.40950  0.19910  0.74840  Biso   1.000  H
  H154     1.0000 0.59050  0.80090  0.74840  Biso   1.000  H
  H155     1.0000 0.80090  0.40950  0.74840  Biso   1.000  H
  H156     1.0000 0.19910  0.59050  0.74840  Biso   1.000  H
  H157     1.0000 0.90950  0.69910  0.24840  Biso   1.000  H
  H158     1.0000 0.09050  0.30090  0.24840  Biso   1.000  H
  H159     1.0000 0.30090  0.90950  0.24840  Biso   1.000  H
  H160     1.0000 0.69910  0.09050  0.24840  Biso   1.000  H
  C417     1.0000 0.52400  0.80850  0.26687  Biso   1.000  C
  C418     1.0000 0.47600  0.19150  0.26687  Biso   1.000  C
  C419     1.0000 0.19150  0.52400  0.26687  Biso   1.000  C
  C420     1.0000 0.80850  0.47600  0.26687  Biso   1.000  C
  C421     1.0000 0.02400  0.30850  0.76687  Biso   1.000  C
  C422     1.0000 0.97600  0.69150  0.76687  Biso   1.000  C
  C423     1.0000 0.69150  0.02400  0.76687  Biso   1.000  C
  C424     1.0000 0.30850  0.97600  0.76687  Biso   1.000  C
  C425     1.0000 0.47600  0.19150  0.73313  Biso   1.000  C
  C426     1.0000 0.52400  0.80850  0.73313  Biso   1.000  C
  C427     1.0000 0.80850  0.47600  0.73313  Biso   1.000  C
  C428     1.0000 0.19150  0.52400  0.73313  Biso   1.000  C
  C429     1.0000 0.97600  0.69150  0.23313  Biso   1.000  C
  C430     1.0000 0.02400  0.30850  0.23313  Biso   1.000  C
  C431     1.0000 0.30850  0.97600  0.23313  Biso   1.000  C
  C432     1.0000 0.69150  0.02400  0.23313  Biso   1.000  C
  H161     1.0000 0.52960  0.80620  0.29270  Biso   1.000  H
  H162     1.0000 0.47040  0.19380  0.29270  Biso   1.000  H
  H163     1.0000 0.19380  0.52960  0.29270  Biso   1.000  H
  H164     1.0000 0.80620  0.47040  0.29270  Biso   1.000  H
  H165     1.0000 0.02960  0.30620  0.79270  Biso   1.000  H
  H166     1.0000 0.97040  0.69380  0.79270  Biso   1.000  H
  H167     1.0000 0.69380  0.02960  0.79270  Biso   1.000  H
  H168     1.0000 0.30620  0.97040  0.79270  Biso   1.000  H
  H169     1.0000 0.47040  0.19380  0.70730  Biso   1.000  H
  H170     1.0000 0.52960  0.80620  0.70730  Biso   1.000  H
  H171     1.0000 0.80620  0.47040  0.70730  Biso   1.000  H
  H172     1.0000 0.19380  0.52960  0.70730  Biso   1.000  H
  H173     1.0000 0.97040  0.69380  0.20730  Biso   1.000  H
  H174     1.0000 0.02960  0.30620  0.20730  Biso   1.000  H
  H175     1.0000 0.30620  0.97040  0.20730  Biso   1.000  H
  H176     1.0000 0.69380  0.02960  0.20730  Biso   1.000  H
  C433     1.0000 0.47850  0.81470  0.25426  Biso   1.000  C
  C434     1.0000 0.52150  0.18530  0.25426  Biso   1.000  C
  C435     1.0000 0.18530  0.47850  0.25426  Biso   1.000  C
  C436     1.0000 0.81470  0.52150  0.25426  Biso   1.000  C
  C437     1.0000 0.97850  0.31470  0.75426  Biso   1.000  C
  C438     1.0000 0.02150  0.68530  0.75426  Biso   1.000  C
  C439     1.0000 0.68530  0.97850  0.75426  Biso   1.000  C
  C440     1.0000 0.31470  0.02150  0.75426  Biso   1.000  C
  C441     1.0000 0.52150  0.18530  0.74574  Biso   1.000  C
  C442     1.0000 0.47850  0.81470  0.74574  Biso   1.000  C
  C443     1.0000 0.81470  0.52150  0.74574  Biso   1.000  C
  C444     1.0000 0.18530  0.47850  0.74574  Biso   1.000  C
  C445     1.0000 0.02150  0.68530  0.24574  Biso   1.000  C
  C446     1.0000 0.97850  0.31470  0.24574  Biso   1.000  C
  C447     1.0000 0.31470  0.02150  0.24574  Biso   1.000  C
  C448     1.0000 0.68530  0.97850  0.24574  Biso   1.000  C
  C449     1.0000 0.47140  0.81900  0.21561  Biso   1.000  C
  C450     1.0000 0.52860  0.18100  0.21561  Biso   1.000  C
  C451     1.0000 0.18100  0.47140  0.21561  Biso   1.000  C
  C452     1.0000 0.81900  0.52860  0.21561  Biso   1.000  C
  C453     1.0000 0.97140  0.31900  0.71561  Biso   1.000  C
  C454     1.0000 0.02860  0.68100  0.71561  Biso   1.000  C
  C455     1.0000 0.68100  0.97140  0.71561  Biso   1.000  C
  C456     1.0000 0.31900  0.02860  0.71561  Biso   1.000  C
  C457     1.0000 0.52860  0.18100  0.78439  Biso   1.000  C
  C458     1.0000 0.47140  0.81900  0.78439  Biso   1.000  C
  C459     1.0000 0.81900  0.52860  0.78439  Biso   1.000  C
  C460     1.0000 0.18100  0.47140  0.78439  Biso   1.000  C
  C461     1.0000 0.02860  0.68100  0.28439  Biso   1.000  C
  C462     1.0000 0.97140  0.31900  0.28439  Biso   1.000  C
  C463     1.0000 0.31900  0.02860  0.28439  Biso   1.000  C
  C464     1.0000 0.68100  0.97140  0.28439  Biso   1.000  C
  H177     1.0000 0.44150  0.82390  0.20650  Biso   1.000  H
  H178     1.0000 0.55850  0.17610  0.20650  Biso   1.000  H
  H179     1.0000 0.17610  0.44150  0.20650  Biso   1.000  H
  H180     1.0000 0.82390  0.55850  0.20650  Biso   1.000  H
  H181     1.0000 0.94150  0.32390  0.70650  Biso   1.000  H
  H182     1.0000 0.05850  0.67610  0.70650  Biso   1.000  H
  H183     1.0000 0.67610  0.94150  0.70650  Biso   1.000  H
  H184     1.0000 0.32390  0.05850  0.70650  Biso   1.000  H
  H185     1.0000 0.55850  0.17610  0.79350  Biso   1.000  H
  H186     1.0000 0.44150  0.82390  0.79350  Biso   1.000  H
  H187     1.0000 0.82390  0.55850  0.79350  Biso   1.000  H
  H188     1.0000 0.17610  0.44150  0.79350  Biso   1.000  H
  H189     1.0000 0.05850  0.67610  0.29350  Biso   1.000  H
  H190     1.0000 0.94150  0.32390  0.29350  Biso   1.000  H
  H191     1.0000 0.32390  0.05850  0.29350  Biso   1.000  H
  H192     1.0000 0.67610  0.94150  0.29350  Biso   1.000  H
  C465     1.0000 0.50780  0.81610  0.19050  Biso   1.000  C
  C466     1.0000 0.49220  0.18390  0.19050  Biso   1.000  C
  C467     1.0000 0.18390  0.50780  0.19050  Biso   1.000  C
  C468     1.0000 0.81610  0.49220  0.19050  Biso   1.000  C
  C469     1.0000 0.00780  0.31610  0.69050  Biso   1.000  C
  C470     1.0000 0.99220  0.68390  0.69050  Biso   1.000  C
  C471     1.0000 0.68390  0.00780  0.69050  Biso   1.000  C
  C472     1.0000 0.31610  0.99220  0.69050  Biso   1.000  C
  C473     1.0000 0.49220  0.18390  0.80950  Biso   1.000  C
  C474     1.0000 0.50780  0.81610  0.80950  Biso   1.000  C
  C475     1.0000 0.81610  0.49220  0.80950  Biso   1.000  C
  C476     1.0000 0.18390  0.50780  0.80950  Biso   1.000  C
  C477     1.0000 0.99220  0.68390  0.30950  Biso   1.000  C
  C478     1.0000 0.00780  0.31610  0.30950  Biso   1.000  C
  C479     1.0000 0.31610  0.99220  0.30950  Biso   1.000  C
  C480     1.0000 0.68390  0.00780  0.30950  Biso   1.000  C
  H193     1.0000 0.50200  0.81850  0.16480  Biso   1.000  H
  H194     1.0000 0.49800  0.18150  0.16480  Biso   1.000  H
  H195     1.0000 0.18150  0.50200  0.16480  Biso   1.000  H
  H196     1.0000 0.81850  0.49800  0.16480  Biso   1.000  H
  H197     1.0000 0.00200  0.31850  0.66480  Biso   1.000  H
  H198     1.0000 0.99800  0.68150  0.66480  Biso   1.000  H
  H199     1.0000 0.68150  0.00200  0.66480  Biso   1.000  H
  H200     1.0000 0.31850  0.99800  0.66480  Biso   1.000  H
  H201     1.0000 0.49800  0.18150  0.83520  Biso   1.000  H
  H202     1.0000 0.50200  0.81850  0.83520  Biso   1.000  H
  H203     1.0000 0.81850  0.49800  0.83520  Biso   1.000  H
  H204     1.0000 0.18150  0.50200  0.83520  Biso   1.000  H
  H205     1.0000 0.99800  0.68150  0.33520  Biso   1.000  H
  H206     1.0000 0.00200  0.31850  0.33520  Biso   1.000  H
  H207     1.0000 0.31850  0.99800  0.33520  Biso   1.000  H
  H208     1.0000 0.68150  0.00200  0.33520  Biso   1.000  H
  C481     1.0000 0.37350  0.80890  0.26450  Biso   1.000  C
  C482     1.0000 0.62650  0.19110  0.26450  Biso   1.000  C
  C483     1.0000 0.19110  0.37350  0.26450  Biso   1.000  C
  C484     1.0000 0.80890  0.62650  0.26450  Biso   1.000  C
  C485     1.0000 0.87350  0.30890  0.76450  Biso   1.000  C
  C486     1.0000 0.12650  0.69110  0.76450  Biso   1.000  C
  C487     1.0000 0.69110  0.87350  0.76450  Biso   1.000  C
  C488     1.0000 0.30890  0.12650  0.76450  Biso   1.000  C
  C489     1.0000 0.62650  0.19110  0.73550  Biso   1.000  C
  C490     1.0000 0.37350  0.80890  0.73550  Biso   1.000  C
  C491     1.0000 0.80890  0.62650  0.73550  Biso   1.000  C
  C492     1.0000 0.19110  0.37350  0.73550  Biso   1.000  C
  C493     1.0000 0.12650  0.69110  0.23550  Biso   1.000  C
  C494     1.0000 0.87350  0.30890  0.23550  Biso   1.000  C
  C495     1.0000 0.30890  0.12650  0.23550  Biso   1.000  C
  C496     1.0000 0.69110  0.87350  0.23550  Biso   1.000  C
  H209     1.0000 0.37140  0.82700  0.24180  Biso   1.000  H
  H210     1.0000 0.62860  0.17300  0.24180  Biso   1.000  H
  H211     1.0000 0.17300  0.37140  0.24180  Biso   1.000  H
  H212     1.0000 0.82700  0.62860  0.24180  Biso   1.000  H
  H213     1.0000 0.87140  0.32700  0.74180  Biso   1.000  H
  H214     1.0000 0.12860  0.67300  0.74180  Biso   1.000  H
  H215     1.0000 0.67300  0.87140  0.74180  Biso   1.000  H
  H216     1.0000 0.32700  0.12860  0.74180  Biso   1.000  H
  H217     1.0000 0.62860  0.17300  0.75820  Biso   1.000  H
  H218     1.0000 0.37140  0.82700  0.75820  Biso   1.000  H
  H219     1.0000 0.82700  0.62860  0.75820  Biso   1.000  H
  H220     1.0000 0.17300  0.37140  0.75820  Biso   1.000  H
  H221     1.0000 0.12860  0.67300  0.25820  Biso   1.000  H
  H222     1.0000 0.87140  0.32700  0.25820  Biso   1.000  H
  H223     1.0000 0.32700  0.12860  0.25820  Biso   1.000  H
  H224     1.0000 0.67300  0.87140  0.25820  Biso   1.000  H
  H225     1.0000 0.34800  0.81660  0.28090  Biso   1.000  H
  H226     1.0000 0.65200  0.18340  0.28090  Biso   1.000  H
  H227     1.0000 0.18340  0.34800  0.28090  Biso   1.000  H
  H228     1.0000 0.81660  0.65200  0.28090  Biso   1.000  H
  H229     1.0000 0.84800  0.31660  0.78090  Biso   1.000  H
  H230     1.0000 0.15200  0.68340  0.78090  Biso   1.000  H
  H231     1.0000 0.68340  0.84800  0.78090  Biso   1.000  H
  H232     1.0000 0.31660  0.15200  0.78090  Biso   1.000  H
  H233     1.0000 0.65200  0.18340  0.71910  Biso   1.000  H
  H234     1.0000 0.34800  0.81660  0.71910  Biso   1.000  H
  H235     1.0000 0.81660  0.65200  0.71910  Biso   1.000  H
  H236     1.0000 0.18340  0.34800  0.71910  Biso   1.000  H
  H237     1.0000 0.15200  0.68340  0.21910  Biso   1.000  H
  H238     1.0000 0.84800  0.31660  0.21910  Biso   1.000  H
  H239     1.0000 0.31660  0.15200  0.21910  Biso   1.000  H
  H240     1.0000 0.68340  0.84800  0.21910  Biso   1.000  H
  H241     1.0000 0.37210  0.77640  0.25830  Biso   1.000  H
  H242     1.0000 0.62790  0.22360  0.25830  Biso   1.000  H
  H243     1.0000 0.22360  0.37210  0.25830  Biso   1.000  H
  H244     1.0000 0.77640  0.62790  0.25830  Biso   1.000  H
  H245     1.0000 0.87210  0.27640  0.75830  Biso   1.000  H
  H246     1.0000 0.12790  0.72360  0.75830  Biso   1.000  H
  H247     1.0000 0.72360  0.87210  0.75830  Biso   1.000  H
  H248     1.0000 0.27640  0.12790  0.75830  Biso   1.000  H
  H249     1.0000 0.62790  0.22360  0.74170  Biso   1.000  H
  H250     1.0000 0.37210  0.77640  0.74170  Biso   1.000  H
  H251     1.0000 0.77640  0.62790  0.74170  Biso   1.000  H
  H252     1.0000 0.22360  0.37210  0.74170  Biso   1.000  H
  H253     1.0000 0.12790  0.72360  0.24170  Biso   1.000  H
  H254     1.0000 0.87210  0.27640  0.24170  Biso   1.000  H
  H255     1.0000 0.27640  0.12790  0.24170  Biso   1.000  H
  H256     1.0000 0.72360  0.87210  0.24170  Biso   1.000  H
  C497     1.0000 0.44020  0.78320  0.33080  Biso   1.000  C
  C498     1.0000 0.55980  0.21680  0.33080  Biso   1.000  C
  C499     1.0000 0.21680  0.44020  0.33080  Biso   1.000  C
  C500     1.0000 0.78320  0.55980  0.33080  Biso   1.000  C
  C501     1.0000 0.94020  0.28320  0.83080  Biso   1.000  C
  C502     1.0000 0.05980  0.71680  0.83080  Biso   1.000  C
  C503     1.0000 0.71680  0.94020  0.83080  Biso   1.000  C
  C504     1.0000 0.28320  0.05980  0.83080  Biso   1.000  C
  C505     1.0000 0.55980  0.21680  0.66920  Biso   1.000  C
  C506     1.0000 0.44020  0.78320  0.66920  Biso   1.000  C
  C507     1.0000 0.78320  0.55980  0.66920  Biso   1.000  C
  C508     1.0000 0.21680  0.44020  0.66920  Biso   1.000  C
  C509     1.0000 0.05980  0.71680  0.16920  Biso   1.000  C
  C510     1.0000 0.94020  0.28320  0.16920  Biso   1.000  C
  C511     1.0000 0.28320  0.05980  0.16920  Biso   1.000  C
  C512     1.0000 0.71680  0.94020  0.16920  Biso   1.000  C
  H257     1.0000 0.43840  0.75120  0.32310  Biso   1.000  H
  H258     1.0000 0.56160  0.24880  0.32310  Biso   1.000  H
  H259     1.0000 0.24880  0.43840  0.32310  Biso   1.000  H
  H260     1.0000 0.75120  0.56160  0.32310  Biso   1.000  H
  H261     1.0000 0.93840  0.25120  0.82310  Biso   1.000  H
  H262     1.0000 0.06160  0.74880  0.82310  Biso   1.000  H
  H263     1.0000 0.74880  0.93840  0.82310  Biso   1.000  H
  H264     1.0000 0.25120  0.06160  0.82310  Biso   1.000  H
  H265     1.0000 0.56160  0.24880  0.67690  Biso   1.000  H
  H266     1.0000 0.43840  0.75120  0.67690  Biso   1.000  H
  H267     1.0000 0.75120  0.56160  0.67690  Biso   1.000  H
  H268     1.0000 0.24880  0.43840  0.67690  Biso   1.000  H
  H269     1.0000 0.06160  0.74880  0.17690  Biso   1.000  H
  H270     1.0000 0.93840  0.25120  0.17690  Biso   1.000  H
  H271     1.0000 0.25120  0.06160  0.17690  Biso   1.000  H
  H272     1.0000 0.74880  0.93840  0.17690  Biso   1.000  H
  H273     1.0000 0.41700  0.78930  0.34970  Biso   1.000  H
  H274     1.0000 0.58300  0.21070  0.34970  Biso   1.000  H
  H275     1.0000 0.21070  0.41700  0.34970  Biso   1.000  H
  H276     1.0000 0.78930  0.58300  0.34970  Biso   1.000  H
  H277     1.0000 0.91700  0.28930  0.84970  Biso   1.000  H
  H278     1.0000 0.08300  0.71070  0.84970  Biso   1.000  H
  H279     1.0000 0.71070  0.91700  0.84970  Biso   1.000  H
  H280     1.0000 0.28930  0.08300  0.84970  Biso   1.000  H
  H281     1.0000 0.58300  0.21070  0.65030  Biso   1.000  H
  H282     1.0000 0.41700  0.78930  0.65030  Biso   1.000  H
  H283     1.0000 0.78930  0.58300  0.65030  Biso   1.000  H
  H284     1.0000 0.21070  0.41700  0.65030  Biso   1.000  H
  H285     1.0000 0.08300  0.71070  0.15030  Biso   1.000  H
  H286     1.0000 0.91700  0.28930  0.15030  Biso   1.000  H
  H287     1.0000 0.28930  0.08300  0.15030  Biso   1.000  H
  H288     1.0000 0.71070  0.91700  0.15030  Biso   1.000  H
  H289     1.0000 0.47050  0.78940  0.34090  Biso   1.000  H
  H290     1.0000 0.52950  0.21060  0.34090  Biso   1.000  H
  H291     1.0000 0.21060  0.47050  0.34090  Biso   1.000  H
  H292     1.0000 0.78940  0.52950  0.34090  Biso   1.000  H
  H293     1.0000 0.97050  0.28940  0.84090  Biso   1.000  H
  H294     1.0000 0.02950  0.71060  0.84090  Biso   1.000  H
  H295     1.0000 0.71060  0.97050  0.84090  Biso   1.000  H
  H296     1.0000 0.28940  0.02950  0.84090  Biso   1.000  H
  H297     1.0000 0.52950  0.21060  0.65910  Biso   1.000  H
  H298     1.0000 0.47050  0.78940  0.65910  Biso   1.000  H
  H299     1.0000 0.78940  0.52950  0.65910  Biso   1.000  H
  H300     1.0000 0.21060  0.47050  0.65910  Biso   1.000  H
  H301     1.0000 0.02950  0.71060  0.15910  Biso   1.000  H
  H302     1.0000 0.97050  0.28940  0.15910  Biso   1.000  H
  H303     1.0000 0.28940  0.02950  0.15910  Biso   1.000  H
  H304     1.0000 0.71060  0.97050  0.15910  Biso   1.000  H
  C513     1.0000 0.43040  0.88460  0.30416  Biso   1.000  C
  C514     1.0000 0.56960  0.11540  0.30416  Biso   1.000  C
  C515     1.0000 0.11540  0.43040  0.30416  Biso   1.000  C
  C516     1.0000 0.88460  0.56960  0.30416  Biso   1.000  C
  C517     1.0000 0.93040  0.38460  0.80416  Biso   1.000  C
  C518     1.0000 0.06960  0.61540  0.80416  Biso   1.000  C
  C519     1.0000 0.61540  0.93040  0.80416  Biso   1.000  C
  C520     1.0000 0.38460  0.06960  0.80416  Biso   1.000  C
  C521     1.0000 0.56960  0.11540  0.69584  Biso   1.000  C
  C522     1.0000 0.43040  0.88460  0.69584  Biso   1.000  C
  C523     1.0000 0.88460  0.56960  0.69584  Biso   1.000  C
  C524     1.0000 0.11540  0.43040  0.69584  Biso   1.000  C
  C525     1.0000 0.06960  0.61540  0.19584  Biso   1.000  C
  C526     1.0000 0.93040  0.38460  0.19584  Biso   1.000  C
  C527     1.0000 0.38460  0.06960  0.19584  Biso   1.000  C
  C528     1.0000 0.61540  0.93040  0.19584  Biso   1.000  C
  C529     1.0000 0.42710  0.91950  0.27750  Biso   1.000  C
  C530     1.0000 0.57290  0.08050  0.27750  Biso   1.000  C
  C531     1.0000 0.08050  0.42710  0.27750  Biso   1.000  C
  C532     1.0000 0.91950  0.57290  0.27750  Biso   1.000  C
  C533     1.0000 0.92710  0.41950  0.77750  Biso   1.000  C
  C534     1.0000 0.07290  0.58050  0.77750  Biso   1.000  C
  C535     1.0000 0.58050  0.92710  0.77750  Biso   1.000  C
  C536     1.0000 0.41950  0.07290  0.77750  Biso   1.000  C
  C537     1.0000 0.57290  0.08050  0.72250  Biso   1.000  C
  C538     1.0000 0.42710  0.91950  0.72250  Biso   1.000  C
  C539     1.0000 0.91950  0.57290  0.72250  Biso   1.000  C
  C540     1.0000 0.08050  0.42710  0.72250  Biso   1.000  C
  C541     1.0000 0.07290  0.58050  0.22250  Biso   1.000  C
  C542     1.0000 0.92710  0.41950  0.22250  Biso   1.000  C
  C543     1.0000 0.41950  0.07290  0.22250  Biso   1.000  C
  C544     1.0000 0.58050  0.92710  0.22250  Biso   1.000  C
  H305     1.0000 0.42430  0.91130  0.25220  Biso   1.000  H
  H306     1.0000 0.57570  0.08870  0.25220  Biso   1.000  H
  H307     1.0000 0.08870  0.42430  0.25220  Biso   1.000  H
  H308     1.0000 0.91130  0.57570  0.25220  Biso   1.000  H
  H309     1.0000 0.92430  0.41130  0.75220  Biso   1.000  H
  H310     1.0000 0.07570  0.58870  0.75220  Biso   1.000  H
  H311     1.0000 0.58870  0.92430  0.75220  Biso   1.000  H
  H312     1.0000 0.41130  0.07570  0.75220  Biso   1.000  H
  H313     1.0000 0.57570  0.08870  0.74780  Biso   1.000  H
  H314     1.0000 0.42430  0.91130  0.74780  Biso   1.000  H
  H315     1.0000 0.91130  0.57570  0.74780  Biso   1.000  H
  H316     1.0000 0.08870  0.42430  0.74780  Biso   1.000  H
  H317     1.0000 0.07570  0.58870  0.24780  Biso   1.000  H
  H318     1.0000 0.92430  0.41130  0.24780  Biso   1.000  H
  H319     1.0000 0.41130  0.07570  0.24780  Biso   1.000  H
  H320     1.0000 0.58870  0.92430  0.24780  Biso   1.000  H
  C545     1.0000 0.42780  0.96590  0.28690  Biso   1.000  C
  C546     1.0000 0.57220  0.03410  0.28690  Biso   1.000  C
  C547     1.0000 0.03410  0.42780  0.28690  Biso   1.000  C
  C548     1.0000 0.96590  0.57220  0.28690  Biso   1.000  C
  C549     1.0000 0.92780  0.46590  0.78690  Biso   1.000  C
  C550     1.0000 0.07220  0.53410  0.78690  Biso   1.000  C
  C551     1.0000 0.53410  0.92780  0.78690  Biso   1.000  C
  C552     1.0000 0.46590  0.07220  0.78690  Biso   1.000  C
  C553     1.0000 0.57220  0.03410  0.71310  Biso   1.000  C
  C554     1.0000 0.42780  0.96590  0.71310  Biso   1.000  C
  C555     1.0000 0.96590  0.57220  0.71310  Biso   1.000  C
  C556     1.0000 0.03410  0.42780  0.71310  Biso   1.000  C
  C557     1.0000 0.07220  0.53410  0.21310  Biso   1.000  C
  C558     1.0000 0.92780  0.46590  0.21310  Biso   1.000  C
  C559     1.0000 0.46590  0.07220  0.21310  Biso   1.000  C
  C560     1.0000 0.53410  0.92780  0.21310  Biso   1.000  C
  H321     1.0000 0.42580  0.98850  0.26820  Biso   1.000  H
  H322     1.0000 0.57420  0.01150  0.26820  Biso   1.000  H
  H323     1.0000 0.01150  0.42580  0.26820  Biso   1.000  H
  H324     1.0000 0.98850  0.57420  0.26820  Biso   1.000  H
  H325     1.0000 0.92580  0.48850  0.76820  Biso   1.000  H
  H326     1.0000 0.07420  0.51150  0.76820  Biso   1.000  H
  H327     1.0000 0.51150  0.92580  0.76820  Biso   1.000  H
  H328     1.0000 0.48850  0.07420  0.76820  Biso   1.000  H
  H329     1.0000 0.57420  0.01150  0.73180  Biso   1.000  H
  H330     1.0000 0.42580  0.98850  0.73180  Biso   1.000  H
  H331     1.0000 0.98850  0.57420  0.73180  Biso   1.000  H
  H332     1.0000 0.01150  0.42580  0.73180  Biso   1.000  H
  H333     1.0000 0.07420  0.51150  0.23180  Biso   1.000  H
  H334     1.0000 0.92580  0.48850  0.23180  Biso   1.000  H
  H335     1.0000 0.48850  0.07420  0.23180  Biso   1.000  H
  H336     1.0000 0.51150  0.92580  0.23180  Biso   1.000  H
  C561     1.0000 0.43730  0.94360  0.35180  Biso   1.000  C
  C562     1.0000 0.56270  0.05640  0.35180  Biso   1.000  C
  C563     1.0000 0.05640  0.43730  0.35180  Biso   1.000  C
  C564     1.0000 0.94360  0.56270  0.35180  Biso   1.000  C
  C565     1.0000 0.93730  0.44360  0.85180  Biso   1.000  C
  C566     1.0000 0.06270  0.55640  0.85180  Biso   1.000  C
  C567     1.0000 0.55640  0.93730  0.85180  Biso   1.000  C
  C568     1.0000 0.44360  0.06270  0.85180  Biso   1.000  C
  C569     1.0000 0.56270  0.05640  0.64820  Biso   1.000  C
  C570     1.0000 0.43730  0.94360  0.64820  Biso   1.000  C
  C571     1.0000 0.94360  0.56270  0.64820  Biso   1.000  C
  C572     1.0000 0.05640  0.43730  0.64820  Biso   1.000  C
  C573     1.0000 0.06270  0.55640  0.14820  Biso   1.000  C
  C574     1.0000 0.93730  0.44360  0.14820  Biso   1.000  C
  C575     1.0000 0.44360  0.06270  0.14820  Biso   1.000  C
  C576     1.0000 0.55640  0.93730  0.14820  Biso   1.000  C
  H337     1.0000 0.44080  0.95160  0.37710  Biso   1.000  H
  H338     1.0000 0.55920  0.04840  0.37710  Biso   1.000  H
  H339     1.0000 0.04840  0.44080  0.37710  Biso   1.000  H
  H340     1.0000 0.95160  0.55920  0.37710  Biso   1.000  H
  H341     1.0000 0.94080  0.45160  0.87710  Biso   1.000  H
  H342     1.0000 0.05920  0.54840  0.87710  Biso   1.000  H
  H343     1.0000 0.54840  0.94080  0.87710  Biso   1.000  H
  H344     1.0000 0.45160  0.05920  0.87710  Biso   1.000  H
  H345     1.0000 0.55920  0.04840  0.62290  Biso   1.000  H
  H346     1.0000 0.44080  0.95160  0.62290  Biso   1.000  H
  H347     1.0000 0.95160  0.55920  0.62290  Biso   1.000  H
  H348     1.0000 0.04840  0.44080  0.62290  Biso   1.000  H
  H349     1.0000 0.05920  0.54840  0.12290  Biso   1.000  H
  H350     1.0000 0.94080  0.45160  0.12290  Biso   1.000  H
  H351     1.0000 0.45160  0.05920  0.12290  Biso   1.000  H
  H352     1.0000 0.54840  0.94080  0.12290  Biso   1.000  H
  C577     1.0000 0.43750  0.89810  0.34130  Biso   1.000  C
  C578     1.0000 0.56250  0.10190  0.34130  Biso   1.000  C
  C579     1.0000 0.10190  0.43750  0.34130  Biso   1.000  C
  C580     1.0000 0.89810  0.56250  0.34130  Biso   1.000  C
  C581     1.0000 0.93750  0.39810  0.84130  Biso   1.000  C
  C582     1.0000 0.06250  0.60190  0.84130  Biso   1.000  C
  C583     1.0000 0.60190  0.93750  0.84130  Biso   1.000  C
  C584     1.0000 0.39810  0.06250  0.84130  Biso   1.000  C
  C585     1.0000 0.56250  0.10190  0.65870  Biso   1.000  C
  C586     1.0000 0.43750  0.89810  0.65870  Biso   1.000  C
  C587     1.0000 0.89810  0.56250  0.65870  Biso   1.000  C
  C588     1.0000 0.10190  0.43750  0.65870  Biso   1.000  C
  C589     1.0000 0.06250  0.60190  0.15870  Biso   1.000  C
  C590     1.0000 0.93750  0.39810  0.15870  Biso   1.000  C
  C591     1.0000 0.39810  0.06250  0.15870  Biso   1.000  C
  C592     1.0000 0.60190  0.93750  0.15870  Biso   1.000  C
  H353     1.0000 0.44270  0.87540  0.35950  Biso   1.000  H
  H354     1.0000 0.55730  0.12460  0.35950  Biso   1.000  H
  H355     1.0000 0.12460  0.44270  0.35950  Biso   1.000  H
  H356     1.0000 0.87540  0.55730  0.35950  Biso   1.000  H
  H357     1.0000 0.94270  0.37540  0.85950  Biso   1.000  H
  H358     1.0000 0.05730  0.62460  0.85950  Biso   1.000  H
  H359     1.0000 0.62460  0.94270  0.85950  Biso   1.000  H
  H360     1.0000 0.37540  0.05730  0.85950  Biso   1.000  H
  H361     1.0000 0.55730  0.12460  0.64050  Biso   1.000  H
  H362     1.0000 0.44270  0.87540  0.64050  Biso   1.000  H
  H363     1.0000 0.87540  0.55730  0.64050  Biso   1.000  H
  H364     1.0000 0.12460  0.44270  0.64050  Biso   1.000  H
  H365     1.0000 0.05730  0.62460  0.14050  Biso   1.000  H
  H366     1.0000 0.94270  0.37540  0.14050  Biso   1.000  H
  H367     1.0000 0.37540  0.05730  0.14050  Biso   1.000  H
  H368     1.0000 0.62460  0.94270  0.14050  Biso   1.000  H
  C593     1.0000 0.42870  0.06600  0.34740  Biso   1.000  C
  C594     1.0000 0.57130  0.93400  0.34740  Biso   1.000  C
  C595     1.0000 0.93400  0.42870  0.34740  Biso   1.000  C
  C596     1.0000 0.06600  0.57130  0.34740  Biso   1.000  C
  C597     1.0000 0.92870  0.56600  0.84740  Biso   1.000  C
  C598     1.0000 0.07130  0.43400  0.84740  Biso   1.000  C
  C599     1.0000 0.43400  0.92870  0.84740  Biso   1.000  C
  C600     1.0000 0.56600  0.07130  0.84740  Biso   1.000  C
  C601     1.0000 0.57130  0.93400  0.65260  Biso   1.000  C
  C602     1.0000 0.42870  0.06600  0.65260  Biso   1.000  C
  C603     1.0000 0.06600  0.57130  0.65260  Biso   1.000  C
  C604     1.0000 0.93400  0.42870  0.65260  Biso   1.000  C
  C605     1.0000 0.07130  0.43400  0.15260  Biso   1.000  C
  C606     1.0000 0.92870  0.56600  0.15260  Biso   1.000  C
  C607     1.0000 0.56600  0.07130  0.15260  Biso   1.000  C
  C608     1.0000 0.43400  0.92870  0.15260  Biso   1.000  C
  C609     1.0000 0.43030  0.02700  0.33620  Biso   1.000  C
  C610     1.0000 0.56970  0.97300  0.33620  Biso   1.000  C
  C611     1.0000 0.97300  0.43030  0.33620  Biso   1.000  C
  C612     1.0000 0.02700  0.56970  0.33620  Biso   1.000  C
  C613     1.0000 0.93030  0.52700  0.83620  Biso   1.000  C
  C614     1.0000 0.06970  0.47300  0.83620  Biso   1.000  C
  C615     1.0000 0.47300  0.93030  0.83620  Biso   1.000  C
  C616     1.0000 0.52700  0.06970  0.83620  Biso   1.000  C
  C617     1.0000 0.56970  0.97300  0.66380  Biso   1.000  C
  C618     1.0000 0.43030  0.02700  0.66380  Biso   1.000  C
  C619     1.0000 0.02700  0.56970  0.66380  Biso   1.000  C
  C620     1.0000 0.97300  0.43030  0.66380  Biso   1.000  C
  C621     1.0000 0.06970  0.47300  0.16380  Biso   1.000  C
  C622     1.0000 0.93030  0.52700  0.16380  Biso   1.000  C
  C623     1.0000 0.52700  0.06970  0.16380  Biso   1.000  C
  C624     1.0000 0.47300  0.93030  0.16380  Biso   1.000  C
  C625     1.0000 0.43150  0.97840  0.32438  Biso   1.000  C
  C626     1.0000 0.56850  0.02160  0.32438  Biso   1.000  C
  C627     1.0000 0.02160  0.43150  0.32438  Biso   1.000  C
  C628     1.0000 0.97840  0.56850  0.32438  Biso   1.000  C
  C629     1.0000 0.93150  0.47840  0.82438  Biso   1.000  C
  C630     1.0000 0.06850  0.52160  0.82438  Biso   1.000  C
  C631     1.0000 0.52160  0.93150  0.82438  Biso   1.000  C
  C632     1.0000 0.47840  0.06850  0.82438  Biso   1.000  C
  C633     1.0000 0.56850  0.02160  0.67562  Biso   1.000  C
  C634     1.0000 0.43150  0.97840  0.67562  Biso   1.000  C
  C635     1.0000 0.97840  0.56850  0.67562  Biso   1.000  C
  C636     1.0000 0.02160  0.43150  0.67562  Biso   1.000  C
  C637     1.0000 0.06850  0.52160  0.17562  Biso   1.000  C
  C638     1.0000 0.93150  0.47840  0.17562  Biso   1.000  C
  C639     1.0000 0.47840  0.06850  0.17562  Biso   1.000  C
  C640     1.0000 0.52160  0.93150  0.17562  Biso   1.000  C
  C641     1.0000 0.69270  0.89170  0.05079  Biso   1.000  C
  C642     1.0000 0.30730  0.10830  0.05079  Biso   1.000  C
  C643     1.0000 0.10830  0.69270  0.05079  Biso   1.000  C
  C644     1.0000 0.89170  0.30730  0.05079  Biso   1.000  C
  C645     1.0000 0.19270  0.39170  0.55079  Biso   1.000  C
  C646     1.0000 0.80730  0.60830  0.55079  Biso   1.000  C
  C647     1.0000 0.60830  0.19270  0.55079  Biso   1.000  C
  C648     1.0000 0.39170  0.80730  0.55079  Biso   1.000  C
  C649     1.0000 0.30730  0.10830  0.94921  Biso   1.000  C
  C650     1.0000 0.69270  0.89170  0.94921  Biso   1.000  C
  C651     1.0000 0.89170  0.30730  0.94921  Biso   1.000  C
  C652     1.0000 0.10830  0.69270  0.94921  Biso   1.000  C
  C653     1.0000 0.80730  0.60830  0.44921  Biso   1.000  C
  C654     1.0000 0.19270  0.39170  0.44921  Biso   1.000  C
  C655     1.0000 0.39170  0.80730  0.44921  Biso   1.000  C
  C656     1.0000 0.60830  0.19270  0.44921  Biso   1.000  C
  C657     1.0000 0.69910  0.85870  0.08293  Biso   1.000  C
  C658     1.0000 0.30090  0.14130  0.08293  Biso   1.000  C
  C659     1.0000 0.14130  0.69910  0.08293  Biso   1.000  C
  C660     1.0000 0.85870  0.30090  0.08293  Biso   1.000  C
  C661     1.0000 0.19910  0.35870  0.58293  Biso   1.000  C
  C662     1.0000 0.80090  0.64130  0.58293  Biso   1.000  C
  C663     1.0000 0.64130  0.19910  0.58293  Biso   1.000  C
  C664     1.0000 0.35870  0.80090  0.58293  Biso   1.000  C
  C665     1.0000 0.30090  0.14130  0.91707  Biso   1.000  C
  C666     1.0000 0.69910  0.85870  0.91707  Biso   1.000  C
  C667     1.0000 0.85870  0.30090  0.91707  Biso   1.000  C
  C668     1.0000 0.14130  0.69910  0.91707  Biso   1.000  C
  C669     1.0000 0.80090  0.64130  0.41707  Biso   1.000  C
  C670     1.0000 0.19910  0.35870  0.41707  Biso   1.000  C
  C671     1.0000 0.35870  0.80090  0.41707  Biso   1.000  C
  C672     1.0000 0.64130  0.19910  0.41707  Biso   1.000  C
  C673     1.0000 0.76270  0.94380  0.35949  Biso   1.000  C
  C674     1.0000 0.23730  0.05620  0.35949  Biso   1.000  C
  C675     1.0000 0.05620  0.76270  0.35949  Biso   1.000  C
  C676     1.0000 0.94380  0.23730  0.35949  Biso   1.000  C
  C677     1.0000 0.26270  0.44380  0.85949  Biso   1.000  C
  C678     1.0000 0.73730  0.55620  0.85949  Biso   1.000  C
  C679     1.0000 0.55620  0.26270  0.85949  Biso   1.000  C
  C680     1.0000 0.44380  0.73730  0.85949  Biso   1.000  C
  C681     1.0000 0.23730  0.05620  0.64051  Biso   1.000  C
  C682     1.0000 0.76270  0.94380  0.64051  Biso   1.000  C
  C683     1.0000 0.94380  0.23730  0.64051  Biso   1.000  C
  C684     1.0000 0.05620  0.76270  0.64051  Biso   1.000  C
  C685     1.0000 0.73730  0.55620  0.14051  Biso   1.000  C
  C686     1.0000 0.26270  0.44380  0.14051  Biso   1.000  C
  C687     1.0000 0.44380  0.73730  0.14051  Biso   1.000  C
  C688     1.0000 0.55620  0.26270  0.14051  Biso   1.000  C
  C689     1.0000 0.73780  0.93180  0.39287  Biso   1.000  C
  C690     1.0000 0.26220  0.06820  0.39287  Biso   1.000  C
  C691     1.0000 0.06820  0.73780  0.39287  Biso   1.000  C
  C692     1.0000 0.93180  0.26220  0.39287  Biso   1.000  C
  C693     1.0000 0.23780  0.43180  0.89287  Biso   1.000  C
  C694     1.0000 0.76220  0.56820  0.89287  Biso   1.000  C
  C695     1.0000 0.56820  0.23780  0.89287  Biso   1.000  C
  C696     1.0000 0.43180  0.76220  0.89287  Biso   1.000  C
  C697     1.0000 0.26220  0.06820  0.60713  Biso   1.000  C
  C698     1.0000 0.73780  0.93180  0.60713  Biso   1.000  C
  C699     1.0000 0.93180  0.26220  0.60713  Biso   1.000  C
  C700     1.0000 0.06820  0.73780  0.60713  Biso   1.000  C
  C701     1.0000 0.76220  0.56820  0.10713  Biso   1.000  C
  C702     1.0000 0.23780  0.43180  0.10713  Biso   1.000  C
  C703     1.0000 0.43180  0.76220  0.10713  Biso   1.000  C
  C704     1.0000 0.56820  0.23780  0.10713  Biso   1.000  C
  C705     1.0000 0.68430  0.90700  0.45730  Biso   1.000  C
  C706     1.0000 0.31570  0.09300  0.45730  Biso   1.000  C
  C707     1.0000 0.09300  0.68430  0.45730  Biso   1.000  C
  C708     1.0000 0.90700  0.31570  0.45730  Biso   1.000  C
  C709     1.0000 0.18430  0.40700  0.95730  Biso   1.000  C
  C710     1.0000 0.81570  0.59300  0.95730  Biso   1.000  C
  C711     1.0000 0.59300  0.18430  0.95730  Biso   1.000  C
  C712     1.0000 0.40700  0.81570  0.95730  Biso   1.000  C
  C713     1.0000 0.31570  0.09300  0.54270  Biso   1.000  C
  C714     1.0000 0.68430  0.90700  0.54270  Biso   1.000  C
  C715     1.0000 0.90700  0.31570  0.54270  Biso   1.000  C
  C716     1.0000 0.09300  0.68430  0.54270  Biso   1.000  C
  C717     1.0000 0.81570  0.59300  0.04270  Biso   1.000  C
  C718     1.0000 0.18430  0.40700  0.04270  Biso   1.000  C
  C719     1.0000 0.40700  0.81570  0.04270  Biso   1.000  C
  C720     1.0000 0.59300  0.18430  0.04270  Biso   1.000  C
  C721     1.0000 0.73290  0.91850  0.46200  Biso   1.000  C
  C722     1.0000 0.26710  0.08150  0.46200  Biso   1.000  C
  C723     1.0000 0.08150  0.73290  0.46200  Biso   1.000  C
  C724     1.0000 0.91850  0.26710  0.46200  Biso   1.000  C
  C725     1.0000 0.23290  0.41850  0.96200  Biso   1.000  C
  C726     1.0000 0.76710  0.58150  0.96200  Biso   1.000  C
  C727     1.0000 0.58150  0.23290  0.96200  Biso   1.000  C
  C728     1.0000 0.41850  0.76710  0.96200  Biso   1.000  C
  C729     1.0000 0.26710  0.08150  0.53800  Biso   1.000  C
  C730     1.0000 0.73290  0.91850  0.53800  Biso   1.000  C
  C731     1.0000 0.91850  0.26710  0.53800  Biso   1.000  C
  C732     1.0000 0.08150  0.73290  0.53800  Biso   1.000  C
  C733     1.0000 0.76710  0.58150  0.03800  Biso   1.000  C
  C734     1.0000 0.23290  0.41850  0.03800  Biso   1.000  C
  C735     1.0000 0.41850  0.76710  0.03800  Biso   1.000  C
  C736     1.0000 0.58150  0.23290  0.03800  Biso   1.000  C
  H369     1.0000 0.74800  0.91580  0.48510  Biso   1.000  H
  H370     1.0000 0.25200  0.08420  0.48510  Biso   1.000  H
  H371     1.0000 0.08420  0.74800  0.48510  Biso   1.000  H
  H372     1.0000 0.91580  0.25200  0.48510  Biso   1.000  H
  H373     1.0000 0.24800  0.41580  0.98510  Biso   1.000  H
  H374     1.0000 0.75200  0.58420  0.98510  Biso   1.000  H
  H375     1.0000 0.58420  0.24800  0.98510  Biso   1.000  H
  H376     1.0000 0.41580  0.75200  0.98510  Biso   1.000  H
  H377     1.0000 0.25200  0.08420  0.51490  Biso   1.000  H
  H378     1.0000 0.74800  0.91580  0.51490  Biso   1.000  H
  H379     1.0000 0.91580  0.25200  0.51490  Biso   1.000  H
  H380     1.0000 0.08420  0.74800  0.51490  Biso   1.000  H
  H381     1.0000 0.75200  0.58420  0.01490  Biso   1.000  H
  H382     1.0000 0.24800  0.41580  0.01490  Biso   1.000  H
  H383     1.0000 0.41580  0.75200  0.01490  Biso   1.000  H
  H384     1.0000 0.58420  0.24800  0.01490  Biso   1.000  H
  C737     1.0000 0.75670  0.93460  0.42810  Biso   1.000  C
  C738     1.0000 0.24330  0.06540  0.42810  Biso   1.000  C
  C739     1.0000 0.06540  0.75670  0.42810  Biso   1.000  C
  C740     1.0000 0.93460  0.24330  0.42810  Biso   1.000  C
  C741     1.0000 0.25670  0.43460  0.92810  Biso   1.000  C
  C742     1.0000 0.74330  0.56540  0.92810  Biso   1.000  C
  C743     1.0000 0.56540  0.25670  0.92810  Biso   1.000  C
  C744     1.0000 0.43460  0.74330  0.92810  Biso   1.000  C
  C745     1.0000 0.24330  0.06540  0.57190  Biso   1.000  C
  C746     1.0000 0.75670  0.93460  0.57190  Biso   1.000  C
  C747     1.0000 0.93460  0.24330  0.57190  Biso   1.000  C
  C748     1.0000 0.06540  0.75670  0.57190  Biso   1.000  C
  C749     1.0000 0.74330  0.56540  0.07190  Biso   1.000  C
  C750     1.0000 0.25670  0.43460  0.07190  Biso   1.000  C
  C751     1.0000 0.43460  0.74330  0.07190  Biso   1.000  C
  C752     1.0000 0.56540  0.25670  0.07190  Biso   1.000  C
  H385     1.0000 0.78620  0.94740  0.43070  Biso   1.000  H
  H386     1.0000 0.21380  0.05260  0.43070  Biso   1.000  H
  H387     1.0000 0.05260  0.78620  0.43070  Biso   1.000  H
  H388     1.0000 0.94740  0.21380  0.43070  Biso   1.000  H
  H389     1.0000 0.28620  0.44740  0.93070  Biso   1.000  H
  H390     1.0000 0.71380  0.55260  0.93070  Biso   1.000  H
  H391     1.0000 0.55260  0.28620  0.93070  Biso   1.000  H
  H392     1.0000 0.44740  0.71380  0.93070  Biso   1.000  H
  H393     1.0000 0.21380  0.05260  0.56930  Biso   1.000  H
  H394     1.0000 0.78620  0.94740  0.56930  Biso   1.000  H
  H395     1.0000 0.94740  0.21380  0.56930  Biso   1.000  H
  H396     1.0000 0.05260  0.78620  0.56930  Biso   1.000  H
  H397     1.0000 0.71380  0.55260  0.06930  Biso   1.000  H
  H398     1.0000 0.28620  0.44740  0.06930  Biso   1.000  H
  H399     1.0000 0.44740  0.71380  0.06930  Biso   1.000  H
  H400     1.0000 0.55260  0.28620  0.06930  Biso   1.000  H
  C753     1.0000 0.69670  0.91320  0.39130  Biso   1.000  C
  C754     1.0000 0.30330  0.08680  0.39130  Biso   1.000  C
  C755     1.0000 0.08680  0.69670  0.39130  Biso   1.000  C
  C756     1.0000 0.91320  0.30330  0.39130  Biso   1.000  C
  C757     1.0000 0.19670  0.41320  0.89130  Biso   1.000  C
  C758     1.0000 0.80330  0.58680  0.89130  Biso   1.000  C
  C759     1.0000 0.58680  0.19670  0.89130  Biso   1.000  C
  C760     1.0000 0.41320  0.80330  0.89130  Biso   1.000  C
  C761     1.0000 0.30330  0.08680  0.60870  Biso   1.000  C
  C762     1.0000 0.69670  0.91320  0.60870  Biso   1.000  C
  C763     1.0000 0.91320  0.30330  0.60870  Biso   1.000  C
  C764     1.0000 0.08680  0.69670  0.60870  Biso   1.000  C
  C765     1.0000 0.80330  0.58680  0.10870  Biso   1.000  C
  C766     1.0000 0.19670  0.41320  0.10870  Biso   1.000  C
  C767     1.0000 0.41320  0.80330  0.10870  Biso   1.000  C
  C768     1.0000 0.58680  0.19670  0.10870  Biso   1.000  C
  H401     1.0000 0.68300  0.90890  0.36780  Biso   1.000  H
  H402     1.0000 0.31700  0.09110  0.36780  Biso   1.000  H
  H403     1.0000 0.09110  0.68300  0.36780  Biso   1.000  H
  H404     1.0000 0.90890  0.31700  0.36780  Biso   1.000  H
  H405     1.0000 0.18300  0.40890  0.86780  Biso   1.000  H
  H406     1.0000 0.81700  0.59110  0.86780  Biso   1.000  H
  H407     1.0000 0.59110  0.18300  0.86780  Biso   1.000  H
  H408     1.0000 0.40890  0.81700  0.86780  Biso   1.000  H
  H409     1.0000 0.31700  0.09110  0.63220  Biso   1.000  H
  H410     1.0000 0.68300  0.90890  0.63220  Biso   1.000  H
  H411     1.0000 0.90890  0.31700  0.63220  Biso   1.000  H
  H412     1.0000 0.09110  0.68300  0.63220  Biso   1.000  H
  H413     1.0000 0.81700  0.59110  0.13220  Biso   1.000  H
  H414     1.0000 0.18300  0.40890  0.13220  Biso   1.000  H
  H415     1.0000 0.40890  0.81700  0.13220  Biso   1.000  H
  H416     1.0000 0.59110  0.18300  0.13220  Biso   1.000  H
  C769     1.0000 0.67150  0.89890  0.42450  Biso   1.000  C
  C770     1.0000 0.32850  0.10110  0.42450  Biso   1.000  C
  C771     1.0000 0.10110  0.67150  0.42450  Biso   1.000  C
  C772     1.0000 0.89890  0.32850  0.42450  Biso   1.000  C
  C773     1.0000 0.17150  0.39890  0.92450  Biso   1.000  C
  C774     1.0000 0.82850  0.60110  0.92450  Biso   1.000  C
  C775     1.0000 0.60110  0.17150  0.92450  Biso   1.000  C
  C776     1.0000 0.39890  0.82850  0.92450  Biso   1.000  C
  C777     1.0000 0.32850  0.10110  0.57550  Biso   1.000  C
  C778     1.0000 0.67150  0.89890  0.57550  Biso   1.000  C
  C779     1.0000 0.89890  0.32850  0.57550  Biso   1.000  C
  C780     1.0000 0.10110  0.67150  0.57550  Biso   1.000  C
  C781     1.0000 0.82850  0.60110  0.07550  Biso   1.000  C
  C782     1.0000 0.17150  0.39890  0.07550  Biso   1.000  C
  C783     1.0000 0.39890  0.82850  0.07550  Biso   1.000  C
  C784     1.0000 0.60110  0.17150  0.07550  Biso   1.000  C
  H417     1.0000 0.64390  0.88260  0.42110  Biso   1.000  H
  H418     1.0000 0.35610  0.11740  0.42110  Biso   1.000  H
  H419     1.0000 0.11740  0.64390  0.42110  Biso   1.000  H
  H420     1.0000 0.88260  0.35610  0.42110  Biso   1.000  H
  H421     1.0000 0.14390  0.38260  0.92110  Biso   1.000  H
  H422     1.0000 0.85610  0.61740  0.92110  Biso   1.000  H
  H423     1.0000 0.61740  0.14390  0.92110  Biso   1.000  H
  H424     1.0000 0.38260  0.85610  0.92110  Biso   1.000  H
  H425     1.0000 0.35610  0.11740  0.57890  Biso   1.000  H
  H426     1.0000 0.64390  0.88260  0.57890  Biso   1.000  H
  H427     1.0000 0.88260  0.35610  0.57890  Biso   1.000  H
  H428     1.0000 0.11740  0.64390  0.57890  Biso   1.000  H
  H429     1.0000 0.85610  0.61740  0.07890  Biso   1.000  H
  H430     1.0000 0.14390  0.38260  0.07890  Biso   1.000  H
  H431     1.0000 0.38260  0.85610  0.07890  Biso   1.000  H
  H432     1.0000 0.61740  0.14390  0.07890  Biso   1.000  H
  C785     1.0000 0.59420  0.92370  0.50000  Biso   1.000  C
  C786     1.0000 0.40580  0.07630  0.50000  Biso   1.000  C
  C787     1.0000 0.07630  0.59420  0.50000  Biso   1.000  C
  C788     1.0000 0.92370  0.40580  0.50000  Biso   1.000  C
  C789     1.0000 0.09420  0.42370  0.00000  Biso   1.000  C
  C790     1.0000 0.90580  0.57630  0.00000  Biso   1.000  C
  C791     1.0000 0.57630  0.09420  0.00000  Biso   1.000  C
  C792     1.0000 0.42370  0.90580  0.00000  Biso   1.000  C
  C793     1.0000 0.63390  0.82820  0.50000  Biso   1.000  C
  C794     1.0000 0.36610  0.17180  0.50000  Biso   1.000  C
  C795     1.0000 0.17180  0.63390  0.50000  Biso   1.000  C
  C796     1.0000 0.82820  0.36610  0.50000  Biso   1.000  C
  C797     1.0000 0.13390  0.32820  0.00000  Biso   1.000  C
  C798     1.0000 0.86610  0.67180  0.00000  Biso   1.000  C
  C799     1.0000 0.67180  0.13390  0.00000  Biso   1.000  C
  C800     1.0000 0.32820  0.86610  0.00000  Biso   1.000  C
  C801     1.0000 0.81380  0.05550  0.21933  Biso   1.000  C
  C802     1.0000 0.18620  0.94450  0.21933  Biso   1.000  C
  C803     1.0000 0.94450  0.81380  0.21933  Biso   1.000  C
  C804     1.0000 0.05550  0.18620  0.21933  Biso   1.000  C
  C805     1.0000 0.31380  0.55550  0.71933  Biso   1.000  C
  C806     1.0000 0.68620  0.44450  0.71933  Biso   1.000  C
  C807     1.0000 0.44450  0.31380  0.71933  Biso   1.000  C
  C808     1.0000 0.55550  0.68620  0.71933  Biso   1.000  C
  C809     1.0000 0.18620  0.94450  0.78067  Biso   1.000  C
  C810     1.0000 0.81380  0.05550  0.78067  Biso   1.000  C
  C811     1.0000 0.05550  0.18620  0.78067  Biso   1.000  C
  C812     1.0000 0.94450  0.81380  0.78067  Biso   1.000  C
  C813     1.0000 0.68620  0.44450  0.28067  Biso   1.000  C
  C814     1.0000 0.31380  0.55550  0.28067  Biso   1.000  C
  C815     1.0000 0.55550  0.68620  0.28067  Biso   1.000  C
  C816     1.0000 0.44450  0.31380  0.28067  Biso   1.000  C
  O193     1.0000 0.93025  0.86903  0.11189  Biso   1.000  O
  O194     1.0000 0.06975  0.13097  0.11189  Biso   1.000  O
  O195     1.0000 0.13097  0.93025  0.11189  Biso   1.000  O
  O196     1.0000 0.86903  0.06975  0.11189  Biso   1.000  O
  O197     1.0000 0.43025  0.36903  0.61189  Biso   1.000  O
  O198     1.0000 0.56975  0.63097  0.61189  Biso   1.000  O
  O199     1.0000 0.63097  0.43025  0.61189  Biso   1.000  O
  O200     1.0000 0.36903  0.56975  0.61189  Biso   1.000  O
  O201     1.0000 0.06975  0.13097  0.88811  Biso   1.000  O
  O202     1.0000 0.93025  0.86903  0.88811  Biso   1.000  O
  O203     1.0000 0.86903  0.06975  0.88811  Biso   1.000  O
  O204     1.0000 0.13097  0.93025  0.88811  Biso   1.000  O
  O205     1.0000 0.56975  0.63097  0.38811  Biso   1.000  O
  O206     1.0000 0.43025  0.36903  0.38811  Biso   1.000  O
  O207     1.0000 0.36903  0.56975  0.38811  Biso   1.000  O
  O208     1.0000 0.63097  0.43025  0.38811  Biso   1.000  O
  C817     1.0000 0.97000  0.84370  0.10970  Biso   1.000  C
  C818     1.0000 0.03000  0.15630  0.10970  Biso   1.000  C
  C819     1.0000 0.15630  0.97000  0.10970  Biso   1.000  C
  C820     1.0000 0.84370  0.03000  0.10970  Biso   1.000  C
  C821     1.0000 0.47000  0.34370  0.60970  Biso   1.000  C
  C822     1.0000 0.53000  0.65630  0.60970  Biso   1.000  C
  C823     1.0000 0.65630  0.47000  0.60970  Biso   1.000  C
  C824     1.0000 0.34370  0.53000  0.60970  Biso   1.000  C
  C825     1.0000 0.03000  0.15630  0.89030  Biso   1.000  C
  C826     1.0000 0.97000  0.84370  0.89030  Biso   1.000  C
  C827     1.0000 0.84370  0.03000  0.89030  Biso   1.000  C
  C828     1.0000 0.15630  0.97000  0.89030  Biso   1.000  C
  C829     1.0000 0.53000  0.65630  0.39030  Biso   1.000  C
  C830     1.0000 0.47000  0.34370  0.39030  Biso   1.000  C
  C831     1.0000 0.34370  0.53000  0.39030  Biso   1.000  C
  C832     1.0000 0.65630  0.47000  0.39030  Biso   1.000  C
  N1       1.0000 0.00750  0.85510  0.09200  Biso   1.000  N
  N2       1.0000 0.99250  0.14490  0.09200  Biso   1.000  N
  N3       1.0000 0.14490  0.00750  0.09200  Biso   1.000  N
  N4       1.0000 0.85510  0.99250  0.09200  Biso   1.000  N
  N5       1.0000 0.50750  0.35510  0.59200  Biso   1.000  N
  N6       1.0000 0.49250  0.64490  0.59200  Biso   1.000  N
  N7       1.0000 0.64490  0.50750  0.59200  Biso   1.000  N
  N8       1.0000 0.35510  0.49250  0.59200  Biso   1.000  N
  N9       1.0000 0.99250  0.14490  0.90800  Biso   1.000  N
  N10      1.0000 0.00750  0.85510  0.90800  Biso   1.000  N
  N11      1.0000 0.85510  0.99250  0.90800  Biso   1.000  N
  N12      1.0000 0.14490  0.00750  0.90800  Biso   1.000  N
  N13      1.0000 0.49250  0.64490  0.40800  Biso   1.000  N
  N14      1.0000 0.50750  0.35510  0.40800  Biso   1.000  N
  N15      1.0000 0.35510  0.49250  0.40800  Biso   1.000  N
  N16      1.0000 0.64490  0.50750  0.40800  Biso   1.000  N
  C833     1.0000 0.05030  0.82940  0.08980  Biso   1.000  C
  C834     1.0000 0.94970  0.17060  0.08980  Biso   1.000  C
  C835     1.0000 0.17060  0.05030  0.08980  Biso   1.000  C
  C836     1.0000 0.82940  0.94970  0.08980  Biso   1.000  C
  C837     1.0000 0.55030  0.32940  0.58980  Biso   1.000  C
  C838     1.0000 0.44970  0.67060  0.58980  Biso   1.000  C
  C839     1.0000 0.67060  0.55030  0.58980  Biso   1.000  C
  C840     1.0000 0.32940  0.44970  0.58980  Biso   1.000  C
  C841     1.0000 0.94970  0.17060  0.91020  Biso   1.000  C
  C842     1.0000 0.05030  0.82940  0.91020  Biso   1.000  C
  C843     1.0000 0.82940  0.94970  0.91020  Biso   1.000  C
  C844     1.0000 0.17060  0.05030  0.91020  Biso   1.000  C
  C845     1.0000 0.44970  0.67060  0.41020  Biso   1.000  C
  C846     1.0000 0.55030  0.32940  0.41020  Biso   1.000  C
  C847     1.0000 0.32940  0.44970  0.41020  Biso   1.000  C
  C848     1.0000 0.67060  0.55030  0.41020  Biso   1.000  C
  C849     1.0000 0.01000  0.90800  0.08200  Biso   1.000  C
  C850     1.0000 0.99000  0.09200  0.08200  Biso   1.000  C
  C851     1.0000 0.09200  0.01000  0.08200  Biso   1.000  C
  C852     1.0000 0.90800  0.99000  0.08200  Biso   1.000  C
  C853     1.0000 0.51000  0.40800  0.58200  Biso   1.000  C
  C854     1.0000 0.49000  0.59200  0.58200  Biso   1.000  C
  C855     1.0000 0.59200  0.51000  0.58200  Biso   1.000  C
  C856     1.0000 0.40800  0.49000  0.58200  Biso   1.000  C
  C857     1.0000 0.99000  0.09200  0.91800  Biso   1.000  C
  C858     1.0000 0.01000  0.90800  0.91800  Biso   1.000  C
  C859     1.0000 0.90800  0.99000  0.91800  Biso   1.000  C
  C860     1.0000 0.09200  0.01000  0.91800  Biso   1.000  C
  C861     1.0000 0.49000  0.59200  0.41800  Biso   1.000  C
  C862     1.0000 0.51000  0.40800  0.41800  Biso   1.000  C
  C863     1.0000 0.40800  0.49000  0.41800  Biso   1.000  C
  C864     1.0000 0.59200  0.51000  0.41800  Biso   1.000  C
  O209     1.0000 0.81546  0.75447  0.25647  Biso   1.000  O
  O210     1.0000 0.18454  0.24553  0.25647  Biso   1.000  O
  O211     1.0000 0.24553  0.81546  0.25647  Biso   1.000  O
  O212     1.0000 0.75447  0.18454  0.25647  Biso   1.000  O
  O213     1.0000 0.31546  0.25447  0.75647  Biso   1.000  O
  O214     1.0000 0.68454  0.74553  0.75647  Biso   1.000  O
  O215     1.0000 0.74553  0.31546  0.75647  Biso   1.000  O
  O216     1.0000 0.25447  0.68454  0.75647  Biso   1.000  O
  O217     1.0000 0.18454  0.24553  0.74353  Biso   1.000  O
  O218     1.0000 0.81546  0.75447  0.74353  Biso   1.000  O
  O219     1.0000 0.75447  0.18454  0.74353  Biso   1.000  O
  O220     1.0000 0.24553  0.81546  0.74353  Biso   1.000  O
  O221     1.0000 0.68454  0.74553  0.24353  Biso   1.000  O
  O222     1.0000 0.31546  0.25447  0.24353  Biso   1.000  O
  O223     1.0000 0.25447  0.68454  0.24353  Biso   1.000  O
  O224     1.0000 0.74553  0.31546  0.24353  Biso   1.000  O
  C865     1.0000 0.78430  0.77630  0.27340  Biso   1.000  C
  C866     1.0000 0.21570  0.22370  0.27340  Biso   1.000  C
  C867     1.0000 0.22370  0.78430  0.27340  Biso   1.000  C
  C868     1.0000 0.77630  0.21570  0.27340  Biso   1.000  C
  C869     1.0000 0.28430  0.27630  0.77340  Biso   1.000  C
  C870     1.0000 0.71570  0.72370  0.77340  Biso   1.000  C
  C871     1.0000 0.72370  0.28430  0.77340  Biso   1.000  C
  C872     1.0000 0.27630  0.71570  0.77340  Biso   1.000  C
  C873     1.0000 0.21570  0.22370  0.72660  Biso   1.000  C
  C874     1.0000 0.78430  0.77630  0.72660  Biso   1.000  C
  C875     1.0000 0.77630  0.21570  0.72660  Biso   1.000  C
  C876     1.0000 0.22370  0.78430  0.72660  Biso   1.000  C
  C877     1.0000 0.71570  0.72370  0.22660  Biso   1.000  C
  C878     1.0000 0.28430  0.27630  0.22660  Biso   1.000  C
  C879     1.0000 0.27630  0.71570  0.22660  Biso   1.000  C
  C880     1.0000 0.72370  0.28430  0.22660  Biso   1.000  C
  N17      1.0000 0.78910  0.79970  0.30870  Biso   1.000  N
  N18      1.0000 0.21090  0.20030  0.30870  Biso   1.000  N
  N19      1.0000 0.20030  0.78910  0.30870  Biso   1.000  N
  N20      1.0000 0.79970  0.21090  0.30870  Biso   1.000  N
  N21      1.0000 0.28910  0.29970  0.80870  Biso   1.000  N
  N22      1.0000 0.71090  0.70030  0.80870  Biso   1.000  N
  N23      1.0000 0.70030  0.28910  0.80870  Biso   1.000  N
  N24      1.0000 0.29970  0.71090  0.80870  Biso   1.000  N
  N25      1.0000 0.21090  0.20030  0.69130  Biso   1.000  N
  N26      1.0000 0.78910  0.79970  0.69130  Biso   1.000  N
  N27      1.0000 0.79970  0.21090  0.69130  Biso   1.000  N
  N28      1.0000 0.20030  0.78910  0.69130  Biso   1.000  N
  N29      1.0000 0.71090  0.70030  0.19130  Biso   1.000  N
  N30      1.0000 0.28910  0.29970  0.19130  Biso   1.000  N
  N31      1.0000 0.29970  0.71090  0.19130  Biso   1.000  N
  N32      1.0000 0.70030  0.28910  0.19130  Biso   1.000  N
  C881     1.0000 0.74730  0.81330  0.32340  Biso   1.000  C
  C882     1.0000 0.25270  0.18670  0.32340  Biso   1.000  C
  C883     1.0000 0.18670  0.74730  0.32340  Biso   1.000  C
  C884     1.0000 0.81330  0.25270  0.32340  Biso   1.000  C
  C885     1.0000 0.24730  0.31330  0.82340  Biso   1.000  C
  C886     1.0000 0.75270  0.68670  0.82340  Biso   1.000  C
  C887     1.0000 0.68670  0.24730  0.82340  Biso   1.000  C
  C888     1.0000 0.31330  0.75270  0.82340  Biso   1.000  C
  C889     1.0000 0.25270  0.18670  0.67660  Biso   1.000  C
  C890     1.0000 0.74730  0.81330  0.67660  Biso   1.000  C
  C891     1.0000 0.81330  0.25270  0.67660  Biso   1.000  C
  C892     1.0000 0.18670  0.74730  0.67660  Biso   1.000  C
  C893     1.0000 0.75270  0.68670  0.17660  Biso   1.000  C
  C894     1.0000 0.24730  0.31330  0.17660  Biso   1.000  C
  C895     1.0000 0.31330  0.75270  0.17660  Biso   1.000  C
  C896     1.0000 0.68670  0.24730  0.17660  Biso   1.000  C
  C897     1.0000 0.83210  0.80240  0.32320  Biso   1.000  C
  C898     1.0000 0.16790  0.19760  0.32320  Biso   1.000  C
  C899     1.0000 0.19760  0.83210  0.32320  Biso   1.000  C
  C900     1.0000 0.80240  0.16790  0.32320  Biso   1.000  C
  C901     1.0000 0.33210  0.30240  0.82320  Biso   1.000  C
  C902     1.0000 0.66790  0.69760  0.82320  Biso   1.000  C
  C903     1.0000 0.69760  0.33210  0.82320  Biso   1.000  C
  C904     1.0000 0.30240  0.66790  0.82320  Biso   1.000  C
  C905     1.0000 0.16790  0.19760  0.67680  Biso   1.000  C
  C906     1.0000 0.83210  0.80240  0.67680  Biso   1.000  C
  C907     1.0000 0.80240  0.16790  0.67680  Biso   1.000  C
  C908     1.0000 0.19760  0.83210  0.67680  Biso   1.000  C
  C909     1.0000 0.66790  0.69760  0.17680  Biso   1.000  C
  C910     1.0000 0.33210  0.30240  0.17680  Biso   1.000  C
  C911     1.0000 0.30240  0.66790  0.17680  Biso   1.000  C
  C912     1.0000 0.69760  0.33210  0.17680  Biso   1.000  C
  Cu33     1.0000 0.53954  0.22502  0.50000  Biso   1.000  Cu
  Cu34     1.0000 0.46046  0.77498  0.50000  Biso   1.000  Cu
  Cu35     1.0000 0.77498  0.53954  0.50000  Biso   1.000  Cu
  Cu36     1.0000 0.22502  0.46046  0.50000  Biso   1.000  Cu
  Cu37     1.0000 0.03954  0.72502  0.00000  Biso   1.000  Cu
  Cu38     1.0000 0.96046  0.27498  0.00000  Biso   1.000  Cu
  Cu39     1.0000 0.27498  0.03954  0.00000  Biso   1.000  Cu
  Cu40     1.0000 0.72502  0.96046  0.00000  Biso   1.000  Cu
  Cu41     1.0000 0.55804  0.13477  0.50000  Biso   1.000  Cu
  Cu42     1.0000 0.44196  0.86523  0.50000  Biso   1.000  Cu
  Cu43     1.0000 0.86523  0.55804  0.50000  Biso   1.000  Cu
  Cu44     1.0000 0.13477  0.44196  0.50000  Biso   1.000  Cu
  Cu45     1.0000 0.05804  0.63477  0.00000  Biso   1.000  Cu
  Cu46     1.0000 0.94196  0.36523  0.00000  Biso   1.000  Cu
  Cu47     1.0000 0.36523  0.05804  0.00000  Biso   1.000  Cu
  Cu48     1.0000 0.63477  0.94196  0.00000  Biso   1.000  Cu
  O225     1.0000 0.52530  0.29830  0.50000  Biso   1.000  O
  O226     1.0000 0.47470  0.70170  0.50000  Biso   1.000  O
  O227     1.0000 0.70170  0.52530  0.50000  Biso   1.000  O
  O228     1.0000 0.29830  0.47470  0.50000  Biso   1.000  O
  O229     1.0000 0.02530  0.79830  0.00000  Biso   1.000  O
  O230     1.0000 0.97470  0.20170  0.00000  Biso   1.000  O
  O231     1.0000 0.20170  0.02530  0.00000  Biso   1.000  O
  O232     1.0000 0.79830  0.97470  0.00000  Biso   1.000  O
  O233     1.0000 0.57360  0.06170  0.50000  Biso   1.000  O
  O234     1.0000 0.42640  0.93830  0.50000  Biso   1.000  O
  O235     1.0000 0.93830  0.57360  0.50000  Biso   1.000  O
  O236     1.0000 0.06170  0.42640  0.50000  Biso   1.000  O
  O237     1.0000 0.07360  0.56170  0.00000  Biso   1.000  O
  O238     1.0000 0.92640  0.43830  0.00000  Biso   1.000  O
  O239     1.0000 0.43830  0.07360  0.00000  Biso   1.000  O
  O240     1.0000 0.56170  0.92640  0.00000  Biso   1.000  O
  O241     1.0000 0.62310  0.67440  0.50000  Biso   1.000  O
  O242     1.0000 0.37690  0.32560  0.50000  Biso   1.000  O
  O243     1.0000 0.32560  0.62310  0.50000  Biso   1.000  O
  O244     1.0000 0.67440  0.37690  0.50000  Biso   1.000  O
  O245     1.0000 0.12310  0.17440  0.00000  Biso   1.000  O
  O246     1.0000 0.87690  0.82560  0.00000  Biso   1.000  O
  O247     1.0000 0.82560  0.12310  0.00000  Biso   1.000  O
  O248     1.0000 0.17440  0.87690  0.00000  Biso   1.000  O
  H433     1.0000 0.60680  0.82330  0.51530  Biso   1.000  H
  H434     1.0000 0.39320  0.17670  0.51530  Biso   1.000  H
  H435     1.0000 0.17670  0.60680  0.51530  Biso   1.000  H
  H436     1.0000 0.82330  0.39320  0.51530  Biso   1.000  H
  H437     1.0000 0.10680  0.32330  0.01530  Biso   1.000  H
  H438     1.0000 0.89320  0.67670  0.01530  Biso   1.000  H
  H439     1.0000 0.67670  0.10680  0.01530  Biso   1.000  H
  H440     1.0000 0.32330  0.89320  0.01530  Biso   1.000  H
  H441     1.0000 0.39320  0.17670  0.48470  Biso   1.000  H
  H442     1.0000 0.60680  0.82330  0.48470  Biso   1.000  H
  H443     1.0000 0.82330  0.39320  0.48470  Biso   1.000  H
  H444     1.0000 0.17670  0.60680  0.48470  Biso   1.000  H
  H445     1.0000 0.89320  0.67670  0.98470  Biso   1.000  H
  H446     1.0000 0.10680  0.32330  0.98470  Biso   1.000  H
  H447     1.0000 0.32330  0.89320  0.98470  Biso   1.000  H
  H448     1.0000 0.67670  0.10680  0.98470  Biso   1.000  H
  H449     1.0000 0.65940  0.81060  0.51000  Biso   1.000  H
  H450     1.0000 0.34060  0.18940  0.51000  Biso   1.000  H
  H451     1.0000 0.18940  0.65940  0.51000  Biso   1.000  H
  H452     1.0000 0.81060  0.34060  0.51000  Biso   1.000  H
  H453     1.0000 0.15940  0.31060  0.01000  Biso   1.000  H
  H454     1.0000 0.84060  0.68940  0.01000  Biso   1.000  H
  H455     1.0000 0.68940  0.15940  0.01000  Biso   1.000  H
  H456     1.0000 0.31060  0.84060  0.01000  Biso   1.000  H
  H457     1.0000 0.34060  0.18940  0.49000  Biso   1.000  H
  H458     1.0000 0.65940  0.81060  0.49000  Biso   1.000  H
  H459     1.0000 0.81060  0.34060  0.49000  Biso   1.000  H
  H460     1.0000 0.18940  0.65940  0.49000  Biso   1.000  H
  H461     1.0000 0.84060  0.68940  0.99000  Biso   1.000  H
  H462     1.0000 0.15940  0.31060  0.99000  Biso   1.000  H
  H463     1.0000 0.31060  0.84060  0.99000  Biso   1.000  H
  H464     1.0000 0.68940  0.15940  0.99000  Biso   1.000  H
  H465     1.0000 0.62760  0.81820  0.47460  Biso   1.000  H
  H466     1.0000 0.37240  0.18180  0.47460  Biso   1.000  H
  H467     1.0000 0.18180  0.62760  0.47460  Biso   1.000  H
  H468     1.0000 0.81820  0.37240  0.47460  Biso   1.000  H
  H469     1.0000 0.12760  0.31820  0.97460  Biso   1.000  H
  H470     1.0000 0.87240  0.68180  0.97460  Biso   1.000  H
  H471     1.0000 0.68180  0.12760  0.97460  Biso   1.000  H
  H472     1.0000 0.31820  0.87240  0.97460  Biso   1.000  H
  H473     1.0000 0.37240  0.18180  0.52540  Biso   1.000  H
  H474     1.0000 0.62760  0.81820  0.52540  Biso   1.000  H
  H475     1.0000 0.81820  0.37240  0.52540  Biso   1.000  H
  H476     1.0000 0.18180  0.62760  0.52540  Biso   1.000  H
  H477     1.0000 0.87240  0.68180  0.02540  Biso   1.000  H
  H478     1.0000 0.12760  0.31820  0.02540  Biso   1.000  H
  H479     1.0000 0.31820  0.87240  0.02540  Biso   1.000  H
  H480     1.0000 0.68180  0.12760  0.02540  Biso   1.000  H
  H481     1.0000 0.57210  0.90850  0.48390  Biso   1.000  H
  H482     1.0000 0.42790  0.09150  0.48390  Biso   1.000  H
  H483     1.0000 0.09150  0.57210  0.48390  Biso   1.000  H
  H484     1.0000 0.90850  0.42790  0.48390  Biso   1.000  H
  H485     1.0000 0.07210  0.40850  0.98390  Biso   1.000  H
  H486     1.0000 0.92790  0.59150  0.98390  Biso   1.000  H
  H487     1.0000 0.59150  0.07210  0.98390  Biso   1.000  H
  H488     1.0000 0.40850  0.92790  0.98390  Biso   1.000  H
  H489     1.0000 0.42790  0.09150  0.51610  Biso   1.000  H
  H490     1.0000 0.57210  0.90850  0.51610  Biso   1.000  H
  H491     1.0000 0.90850  0.42790  0.51610  Biso   1.000  H
  H492     1.0000 0.09150  0.57210  0.51610  Biso   1.000  H
  H493     1.0000 0.92790  0.59150  0.01610  Biso   1.000  H
  H494     1.0000 0.07210  0.40850  0.01610  Biso   1.000  H
  H495     1.0000 0.40850  0.92790  0.01610  Biso   1.000  H
  H496     1.0000 0.59150  0.07210  0.01610  Biso   1.000  H
  H497     1.0000 0.59990  0.95470  0.49090  Biso   1.000  H
  H498     1.0000 0.40010  0.04530  0.49090  Biso   1.000  H
  H499     1.0000 0.04530  0.59990  0.49090  Biso   1.000  H
  H500     1.0000 0.95470  0.40010  0.49090  Biso   1.000  H
  H501     1.0000 0.09990  0.45470  0.99090  Biso   1.000  H
  H502     1.0000 0.90010  0.54530  0.99090  Biso   1.000  H
  H503     1.0000 0.54530  0.09990  0.99090  Biso   1.000  H
  H504     1.0000 0.45470  0.90010  0.99090  Biso   1.000  H
  H505     1.0000 0.40010  0.04530  0.50910  Biso   1.000  H
  H506     1.0000 0.59990  0.95470  0.50910  Biso   1.000  H
  H507     1.0000 0.95470  0.40010  0.50910  Biso   1.000  H
  H508     1.0000 0.04530  0.59990  0.50910  Biso   1.000  H
  H509     1.0000 0.90010  0.54530  0.00910  Biso   1.000  H
  H510     1.0000 0.09990  0.45470  0.00910  Biso   1.000  H
  H511     1.0000 0.45470  0.90010  0.00910  Biso   1.000  H
  H512     1.0000 0.54530  0.09990  0.00910  Biso   1.000  H
  H513     1.0000 0.58210  0.92520  0.52520  Biso   1.000  H
  H514     1.0000 0.41790  0.07480  0.52520  Biso   1.000  H
  H515     1.0000 0.07480  0.58210  0.52520  Biso   1.000  H
  H516     1.0000 0.92520  0.41790  0.52520  Biso   1.000  H
  H517     1.0000 0.08210  0.42520  0.02520  Biso   1.000  H
  H518     1.0000 0.91790  0.57480  0.02520  Biso   1.000  H
  H519     1.0000 0.57480  0.08210  0.02520  Biso   1.000  H
  H520     1.0000 0.42520  0.91790  0.02520  Biso   1.000  H
  H521     1.0000 0.41790  0.07480  0.47480  Biso   1.000  H
  H522     1.0000 0.58210  0.92520  0.47480  Biso   1.000  H
  H523     1.0000 0.92520  0.41790  0.47480  Biso   1.000  H
  H524     1.0000 0.07480  0.58210  0.47480  Biso   1.000  H
  H525     1.0000 0.91790  0.57480  0.97480  Biso   1.000  H
  H526     1.0000 0.08210  0.42520  0.97480  Biso   1.000  H
  H527     1.0000 0.42520  0.91790  0.97480  Biso   1.000  H
  H528     1.0000 0.57480  0.08210  0.97480  Biso   1.000  H
