data_image0
_cell_length_a       24.616
_cell_length_b       24.616
_cell_length_c       11.6525
_cell_angle_alpha    90
_cell_angle_beta     90
_cell_angle_gamma    90

_symmetry_space_group_name_H-M    "P 1"
_symmetry_int_tables_number       1

loop_
  _symmetry_equiv_pos_as_xyz
  'x, y, z'

loop_
  _atom_site_label
  _atom_site_occupancy
  _atom_site_fract_x
  _atom_site_fract_y
  _atom_site_fract_z
  _atom_site_thermal_displace_type
  _atom_site_B_iso_or_equiv
  _atom_site_type_symbol
  Cu1      1.0000 0.00000  0.50000  0.00000  Biso   1.000  Cu
  Cu2      1.0000 0.25000  0.25000  0.25000  Biso   1.000  Cu
  Cu3      1.0000 0.50000  0.00000  0.50000  Biso   1.000  Cu
  Cu4      1.0000 0.75000  0.75000  0.75000  Biso   1.000  Cu
  Cu5      1.0000 0.75000  0.25000  0.25000  Biso   1.000  Cu
  Cu6      1.0000 0.50000  0.50000  0.50000  Biso   1.000  Cu
  Cu7      1.0000 0.25000  0.75000  0.75000  Biso   1.000  Cu
  Cu8      1.0000 0.00000  0.00000  0.00000  Biso   1.000  Cu
  Cu9      1.0000 0.83110  0.57367  0.15871  Biso   1.000  Cu
  Cu10     1.0000 0.17633  0.08110  0.40871  Biso   1.000  Cu
  Cu11     1.0000 0.33110  0.07367  0.65871  Biso   1.000  Cu
  Cu12     1.0000 0.67633  0.58110  0.90871  Biso   1.000  Cu
  Cu13     1.0000 0.82367  0.41890  0.40871  Biso   1.000  Cu
  Cu14     1.0000 0.66890  0.42633  0.65871  Biso   1.000  Cu
  Cu15     1.0000 0.32367  0.91890  0.90871  Biso   1.000  Cu
  Cu16     1.0000 0.16890  0.92633  0.15871  Biso   1.000  Cu
  Cu17     1.0000 0.16890  0.42633  0.84129  Biso   1.000  Cu
  Cu18     1.0000 0.32367  0.41890  0.09129  Biso   1.000  Cu
  Cu19     1.0000 0.66890  0.92633  0.34129  Biso   1.000  Cu
  Cu20     1.0000 0.82367  0.91890  0.59129  Biso   1.000  Cu
  Cu21     1.0000 0.67633  0.08110  0.09129  Biso   1.000  Cu
  Cu22     1.0000 0.33110  0.57367  0.34129  Biso   1.000  Cu
  Cu23     1.0000 0.17633  0.58110  0.59129  Biso   1.000  Cu
  Cu24     1.0000 0.83110  0.07367  0.84129  Biso   1.000  Cu
  Cl1      1.0000 0.95976  0.45224  0.85580  Biso   1.000  Cl
  Cl2      1.0000 0.29776  0.20976  0.10580  Biso   1.000  Cl
  Cl3      1.0000 0.45976  0.95224  0.35580  Biso   1.000  Cl
  Cl4      1.0000 0.79776  0.70976  0.60580  Biso   1.000  Cl
  Cl5      1.0000 0.70224  0.29024  0.10580  Biso   1.000  Cl
  Cl6      1.0000 0.54024  0.54776  0.35580  Biso   1.000  Cl
  Cl7      1.0000 0.20224  0.79024  0.60580  Biso   1.000  Cl
  Cl8      1.0000 0.04024  0.04776  0.85580  Biso   1.000  Cl
  Cl9      1.0000 0.04024  0.54776  0.14420  Biso   1.000  Cl
  Cl10     1.0000 0.20224  0.29024  0.39420  Biso   1.000  Cl
  Cl11     1.0000 0.54024  0.04776  0.64420  Biso   1.000  Cl
  Cl12     1.0000 0.70224  0.79024  0.89420  Biso   1.000  Cl
  Cl13     1.0000 0.79776  0.20976  0.39420  Biso   1.000  Cl
  Cl14     1.0000 0.45976  0.45224  0.64420  Biso   1.000  Cl
  Cl15     1.0000 0.29776  0.70976  0.89420  Biso   1.000  Cl
  Cl16     1.0000 0.95976  0.95224  0.14420  Biso   1.000  Cl
  O1       1.0000 0.89205  0.53782  0.08045  Biso   1.000  O
  O2       1.0000 0.21218  0.14205  0.33045  Biso   1.000  O
  O3       1.0000 0.39205  0.03782  0.58045  Biso   1.000  O
  O4       1.0000 0.71218  0.64205  0.83045  Biso   1.000  O
  O5       1.0000 0.78782  0.35795  0.33045  Biso   1.000  O
  O6       1.0000 0.60795  0.46218  0.58045  Biso   1.000  O
  O7       1.0000 0.28782  0.85795  0.83045  Biso   1.000  O
  O8       1.0000 0.10795  0.96218  0.08045  Biso   1.000  O
  O9       1.0000 0.10795  0.46218  0.91955  Biso   1.000  O
  O10      1.0000 0.28782  0.35795  0.16955  Biso   1.000  O
  O11      1.0000 0.60795  0.96218  0.41955  Biso   1.000  O
  O12      1.0000 0.78782  0.85795  0.66955  Biso   1.000  O
  O13      1.0000 0.71218  0.14205  0.16955  Biso   1.000  O
  O14      1.0000 0.39205  0.53782  0.41955  Biso   1.000  O
  O15      1.0000 0.21218  0.64205  0.66955  Biso   1.000  O
  O16      1.0000 0.89205  0.03782  0.91955  Biso   1.000  O
  O17      1.0000 0.82567  0.50503  0.24516  Biso   1.000  O
  O18      1.0000 0.24497  0.07567  0.49516  Biso   1.000  O
  O19      1.0000 0.32567  0.00503  0.74516  Biso   1.000  O
  O20      1.0000 0.74497  0.57567  0.99516  Biso   1.000  O
  O21      1.0000 0.75503  0.42433  0.49516  Biso   1.000  O
  O22      1.0000 0.67433  0.49497  0.74516  Biso   1.000  O
  O23      1.0000 0.25503  0.92433  0.99516  Biso   1.000  O
  O24      1.0000 0.17433  0.99497  0.24516  Biso   1.000  O
  O25      1.0000 0.17433  0.49497  0.75484  Biso   1.000  O
  O26      1.0000 0.25503  0.42433  0.00484  Biso   1.000  O
  O27      1.0000 0.67433  0.99497  0.25484  Biso   1.000  O
  O28      1.0000 0.75503  0.92433  0.50484  Biso   1.000  O
  O29      1.0000 0.74497  0.07567  0.00484  Biso   1.000  O
  O30      1.0000 0.32567  0.50503  0.25484  Biso   1.000  O
  O31      1.0000 0.24497  0.57567  0.50484  Biso   1.000  O
  O32      1.0000 0.82567  0.00503  0.75484  Biso   1.000  O
  N1       1.0000 0.94955  0.46672  0.11123  Biso   1.000  N
  N2       1.0000 0.28328  0.19955  0.36123  Biso   1.000  N
  N3       1.0000 0.44955  0.96672  0.61123  Biso   1.000  N
  N4       1.0000 0.78328  0.69955  0.86123  Biso   1.000  N
  N5       1.0000 0.71672  0.30045  0.36123  Biso   1.000  N
  N6       1.0000 0.55045  0.53328  0.61123  Biso   1.000  N
  N7       1.0000 0.21672  0.80045  0.86123  Biso   1.000  N
  N8       1.0000 0.05045  0.03328  0.11123  Biso   1.000  N
  N9       1.0000 0.05045  0.53328  0.88877  Biso   1.000  N
  N10      1.0000 0.21672  0.30045  0.13877  Biso   1.000  N
  N11      1.0000 0.55045  0.03328  0.38877  Biso   1.000  N
  N12      1.0000 0.71672  0.80045  0.63877  Biso   1.000  N
  N13      1.0000 0.78328  0.19955  0.13877  Biso   1.000  N
  N14      1.0000 0.44955  0.46672  0.38877  Biso   1.000  N
  N15      1.0000 0.28328  0.69955  0.63877  Biso   1.000  N
  N16      1.0000 0.94955  0.96672  0.88877  Biso   1.000  N
  C1       1.0000 0.90471  0.49384  0.13340  Biso   1.000  C
  C2       1.0000 0.25616  0.15471  0.38340  Biso   1.000  C
  C3       1.0000 0.40471  0.99384  0.63340  Biso   1.000  C
  C4       1.0000 0.75616  0.65471  0.88340  Biso   1.000  C
  C5       1.0000 0.74384  0.34529  0.38340  Biso   1.000  C
  C6       1.0000 0.59529  0.50616  0.63340  Biso   1.000  C
  C7       1.0000 0.24384  0.84529  0.88340  Biso   1.000  C
  C8       1.0000 0.09529  0.00616  0.13340  Biso   1.000  C
  C9       1.0000 0.09529  0.50616  0.86660  Biso   1.000  C
  C10      1.0000 0.24384  0.34529  0.11660  Biso   1.000  C
  C11      1.0000 0.59529  0.00616  0.36660  Biso   1.000  C
  C12      1.0000 0.74384  0.84529  0.61660  Biso   1.000  C
  C13      1.0000 0.75616  0.15471  0.11660  Biso   1.000  C
  C14      1.0000 0.40471  0.49384  0.36660  Biso   1.000  C
  C15      1.0000 0.25616  0.65471  0.61660  Biso   1.000  C
  C16      1.0000 0.90471  0.99384  0.86660  Biso   1.000  C
  C17      1.0000 0.86709  0.47527  0.22480  Biso   1.000  C
  C18      1.0000 0.27473  0.11709  0.47480  Biso   1.000  C
  C19      1.0000 0.36709  0.97527  0.72480  Biso   1.000  C
  C20      1.0000 0.77473  0.61709  0.97480  Biso   1.000  C
  C21      1.0000 0.72527  0.38291  0.47480  Biso   1.000  C
  C22      1.0000 0.63291  0.52473  0.72480  Biso   1.000  C
  C23      1.0000 0.22527  0.88291  0.97480  Biso   1.000  C
  C24      1.0000 0.13291  0.02473  0.22480  Biso   1.000  C
  C25      1.0000 0.13291  0.52473  0.77520  Biso   1.000  C
  C26      1.0000 0.22527  0.38291  0.02520  Biso   1.000  C
  C27      1.0000 0.63291  0.02473  0.27520  Biso   1.000  C
  C28      1.0000 0.72527  0.88291  0.52520  Biso   1.000  C
  C29      1.0000 0.77473  0.11709  0.02520  Biso   1.000  C
  C30      1.0000 0.36709  0.47527  0.27520  Biso   1.000  C
  C31      1.0000 0.27473  0.61709  0.52520  Biso   1.000  C
  C32      1.0000 0.86709  0.97527  0.77520  Biso   1.000  C
  N17      1.0000 0.87708  0.43051  0.28321  Biso   1.000  N
  N18      1.0000 0.31949  0.12708  0.53321  Biso   1.000  N
  N19      1.0000 0.37708  0.93051  0.78321  Biso   1.000  N
  N20      1.0000 0.81949  0.62708  0.03321  Biso   1.000  N
  N21      1.0000 0.68051  0.37292  0.53321  Biso   1.000  N
  N22      1.0000 0.62292  0.56949  0.78321  Biso   1.000  N
  N23      1.0000 0.18051  0.87292  0.03321  Biso   1.000  N
  N24      1.0000 0.12292  0.06949  0.28321  Biso   1.000  N
  N25      1.0000 0.12292  0.56949  0.71679  Biso   1.000  N
  N26      1.0000 0.18051  0.37292  0.96679  Biso   1.000  N
  N27      1.0000 0.62292  0.06949  0.21679  Biso   1.000  N
  N28      1.0000 0.68051  0.87292  0.46679  Biso   1.000  N
  N29      1.0000 0.81949  0.12708  0.96679  Biso   1.000  N
  N30      1.0000 0.37708  0.43051  0.21679  Biso   1.000  N
  N31      1.0000 0.31949  0.62708  0.46679  Biso   1.000  N
  N32      1.0000 0.87708  0.93051  0.71679  Biso   1.000  N
  C33      1.0000 0.92255  0.40033  0.25470  Biso   1.000  C
  C34      1.0000 0.34967  0.17255  0.50470  Biso   1.000  C
  C35      1.0000 0.42255  0.90033  0.75470  Biso   1.000  C
  C36      1.0000 0.84967  0.67255  0.00470  Biso   1.000  C
  C37      1.0000 0.65033  0.32745  0.50470  Biso   1.000  C
  C38      1.0000 0.57745  0.59967  0.75470  Biso   1.000  C
  C39      1.0000 0.15033  0.82745  0.00470  Biso   1.000  C
  C40      1.0000 0.07745  0.09967  0.25470  Biso   1.000  C
  C41      1.0000 0.07745  0.59967  0.74530  Biso   1.000  C
  C42      1.0000 0.15033  0.32745  0.99530  Biso   1.000  C
  C43      1.0000 0.57745  0.09967  0.24530  Biso   1.000  C
  C44      1.0000 0.65033  0.82745  0.49530  Biso   1.000  C
  C45      1.0000 0.84967  0.17255  0.99530  Biso   1.000  C
  C46      1.0000 0.42255  0.40033  0.24530  Biso   1.000  C
  C47      1.0000 0.34967  0.67255  0.49530  Biso   1.000  C
  C48      1.0000 0.92255  0.90033  0.74530  Biso   1.000  C
  C49      1.0000 0.93215  0.35071  0.30990  Biso   1.000  C
  C50      1.0000 0.39929  0.18215  0.55990  Biso   1.000  C
  C51      1.0000 0.43215  0.85071  0.80990  Biso   1.000  C
  C52      1.0000 0.89929  0.68215  0.05990  Biso   1.000  C
  C53      1.0000 0.60071  0.31785  0.55990  Biso   1.000  C
  C54      1.0000 0.56785  0.64929  0.80990  Biso   1.000  C
  C55      1.0000 0.10071  0.81785  0.05990  Biso   1.000  C
  C56      1.0000 0.06785  0.14929  0.30990  Biso   1.000  C
  C57      1.0000 0.06785  0.64929  0.69010  Biso   1.000  C
  C58      1.0000 0.10071  0.31785  0.94010  Biso   1.000  C
  C59      1.0000 0.56785  0.14929  0.19010  Biso   1.000  C
  C60      1.0000 0.60071  0.81785  0.44010  Biso   1.000  C
  C61      1.0000 0.89929  0.18215  0.94010  Biso   1.000  C
  C62      1.0000 0.43215  0.35071  0.19010  Biso   1.000  C
  C63      1.0000 0.39929  0.68215  0.44010  Biso   1.000  C
  C64      1.0000 0.93215  0.85071  0.69010  Biso   1.000  C
  H1       1.0000 0.90690  0.33710  0.36450  Biso   1.000  H
  H2       1.0000 0.41290  0.15690  0.61450  Biso   1.000  H
  H3       1.0000 0.40690  0.83710  0.86450  Biso   1.000  H
  H4       1.0000 0.91290  0.65690  0.11450  Biso   1.000  H
  H5       1.0000 0.58710  0.34310  0.61450  Biso   1.000  H
  H6       1.0000 0.59310  0.66290  0.86450  Biso   1.000  H
  H7       1.0000 0.08710  0.84310  0.11450  Biso   1.000  H
  H8       1.0000 0.09310  0.16290  0.36450  Biso   1.000  H
  H9       1.0000 0.09310  0.66290  0.63550  Biso   1.000  H
  H10      1.0000 0.08710  0.34310  0.88550  Biso   1.000  H
  H11      1.0000 0.59310  0.16290  0.13550  Biso   1.000  H
  H12      1.0000 0.58710  0.84310  0.38550  Biso   1.000  H
  H13      1.0000 0.91290  0.15690  0.88550  Biso   1.000  H
  H14      1.0000 0.40690  0.33710  0.13550  Biso   1.000  H
  H15      1.0000 0.41290  0.65690  0.38550  Biso   1.000  H
  H16      1.0000 0.90690  0.83710  0.63550  Biso   1.000  H
  C65      1.0000 0.97810  0.32198  0.28450  Biso   1.000  C
  C66      1.0000 0.42802  0.22810  0.53450  Biso   1.000  C
  C67      1.0000 0.47810  0.82198  0.78450  Biso   1.000  C
  C68      1.0000 0.92802  0.72810  0.03450  Biso   1.000  C
  C69      1.0000 0.57198  0.27190  0.53450  Biso   1.000  C
  C70      1.0000 0.52190  0.67802  0.78450  Biso   1.000  C
  C71      1.0000 0.07198  0.77190  0.03450  Biso   1.000  C
  C72      1.0000 0.02190  0.17802  0.28450  Biso   1.000  C
  C73      1.0000 0.02190  0.67802  0.71550  Biso   1.000  C
  C74      1.0000 0.07198  0.27190  0.96550  Biso   1.000  C
  C75      1.0000 0.52190  0.17802  0.21550  Biso   1.000  C
  C76      1.0000 0.57198  0.77190  0.46550  Biso   1.000  C
  C77      1.0000 0.92802  0.22810  0.96550  Biso   1.000  C
  C78      1.0000 0.47810  0.32198  0.21550  Biso   1.000  C
  C79      1.0000 0.42802  0.72810  0.46550  Biso   1.000  C
  C80      1.0000 0.97810  0.82198  0.71550  Biso   1.000  C
  H17      1.0000 0.98440  0.28830  0.32210  Biso   1.000  H
  H18      1.0000 0.46170  0.23440  0.57210  Biso   1.000  H
  H19      1.0000 0.48440  0.78830  0.82210  Biso   1.000  H
  H20      1.0000 0.96170  0.73440  0.07210  Biso   1.000  H
  H21      1.0000 0.53830  0.26560  0.57210  Biso   1.000  H
  H22      1.0000 0.51560  0.71170  0.82210  Biso   1.000  H
  H23      1.0000 0.03830  0.76560  0.07210  Biso   1.000  H
  H24      1.0000 0.01560  0.21170  0.32210  Biso   1.000  H
  H25      1.0000 0.01560  0.71170  0.67790  Biso   1.000  H
  H26      1.0000 0.03830  0.26560  0.92790  Biso   1.000  H
  H27      1.0000 0.51560  0.21170  0.17790  Biso   1.000  H
  H28      1.0000 0.53830  0.76560  0.42790  Biso   1.000  H
  H29      1.0000 0.96170  0.23440  0.92790  Biso   1.000  H
  H30      1.0000 0.48440  0.28830  0.17790  Biso   1.000  H
  H31      1.0000 0.46170  0.73440  0.42790  Biso   1.000  H
  H32      1.0000 0.98440  0.78830  0.67790  Biso   1.000  H
  C81      1.0000 0.01615  0.34069  0.20480  Biso   1.000  C
  C82      1.0000 0.40931  0.26615  0.45480  Biso   1.000  C
  C83      1.0000 0.51615  0.84069  0.70480  Biso   1.000  C
  C84      1.0000 0.90931  0.76615  0.95480  Biso   1.000  C
  C85      1.0000 0.59069  0.23385  0.45480  Biso   1.000  C
  C86      1.0000 0.48385  0.65931  0.70480  Biso   1.000  C
  C87      1.0000 0.09069  0.73385  0.95480  Biso   1.000  C
  C88      1.0000 0.98385  0.15931  0.20480  Biso   1.000  C
  C89      1.0000 0.98385  0.65931  0.79520  Biso   1.000  C
  C90      1.0000 0.09069  0.23385  0.04520  Biso   1.000  C
  C91      1.0000 0.48385  0.15931  0.29520  Biso   1.000  C
  C92      1.0000 0.59069  0.73385  0.54520  Biso   1.000  C
  C93      1.0000 0.90931  0.26615  0.04520  Biso   1.000  C
  C94      1.0000 0.51615  0.34069  0.29520  Biso   1.000  C
  C95      1.0000 0.40931  0.76615  0.54520  Biso   1.000  C
  C96      1.0000 0.01615  0.84069  0.79520  Biso   1.000  C
  H33      1.0000 0.04840  0.32060  0.19080  Biso   1.000  H
  H34      1.0000 0.42940  0.29840  0.44080  Biso   1.000  H
  H35      1.0000 0.54840  0.82060  0.69080  Biso   1.000  H
  H36      1.0000 0.92940  0.79840  0.94080  Biso   1.000  H
  H37      1.0000 0.57060  0.20160  0.44080  Biso   1.000  H
  H38      1.0000 0.45160  0.67940  0.69080  Biso   1.000  H
  H39      1.0000 0.07060  0.70160  0.94080  Biso   1.000  H
  H40      1.0000 0.95160  0.17940  0.19080  Biso   1.000  H
  H41      1.0000 0.95160  0.67940  0.80920  Biso   1.000  H
  H42      1.0000 0.07060  0.20160  0.05920  Biso   1.000  H
  H43      1.0000 0.45160  0.17940  0.30920  Biso   1.000  H
  H44      1.0000 0.57060  0.70160  0.55920  Biso   1.000  H
  H45      1.0000 0.92940  0.29840  0.05920  Biso   1.000  H
  H46      1.0000 0.54840  0.32060  0.30920  Biso   1.000  H
  H47      1.0000 0.42940  0.79840  0.55920  Biso   1.000  H
  H48      1.0000 0.04840  0.82060  0.80920  Biso   1.000  H
  C97      1.0000 0.00654  0.38857  0.14630  Biso   1.000  C
  C98      1.0000 0.36143  0.25654  0.39630  Biso   1.000  C
  C99      1.0000 0.50654  0.88857  0.64630  Biso   1.000  C
  C100     1.0000 0.86143  0.75654  0.89630  Biso   1.000  C
  C101     1.0000 0.63857  0.24346  0.39630  Biso   1.000  C
  C102     1.0000 0.49346  0.61143  0.64630  Biso   1.000  C
  C103     1.0000 0.13857  0.74346  0.89630  Biso   1.000  C
  C104     1.0000 0.99346  0.11143  0.14630  Biso   1.000  C
  C105     1.0000 0.99346  0.61143  0.85370  Biso   1.000  C
  C106     1.0000 0.13857  0.24346  0.10370  Biso   1.000  C
  C107     1.0000 0.49346  0.11143  0.35370  Biso   1.000  C
  C108     1.0000 0.63857  0.74346  0.60370  Biso   1.000  C
  C109     1.0000 0.86143  0.25654  0.10370  Biso   1.000  C
  C110     1.0000 0.50654  0.38857  0.35370  Biso   1.000  C
  C111     1.0000 0.36143  0.75654  0.60370  Biso   1.000  C
  C112     1.0000 0.00654  0.88857  0.85370  Biso   1.000  C
  H49      1.0000 0.03150  0.40100  0.09000  Biso   1.000  H
  H50      1.0000 0.34900  0.28150  0.34000  Biso   1.000  H
  H51      1.0000 0.53150  0.90100  0.59000  Biso   1.000  H
  H52      1.0000 0.84900  0.78150  0.84000  Biso   1.000  H
  H53      1.0000 0.65100  0.21850  0.34000  Biso   1.000  H
  H54      1.0000 0.46850  0.59900  0.59000  Biso   1.000  H
  H55      1.0000 0.15100  0.71850  0.84000  Biso   1.000  H
  H56      1.0000 0.96850  0.09900  0.09000  Biso   1.000  H
  H57      1.0000 0.96850  0.59900  0.91000  Biso   1.000  H
  H58      1.0000 0.15100  0.21850  0.16000  Biso   1.000  H
  H59      1.0000 0.46850  0.09900  0.41000  Biso   1.000  H
  H60      1.0000 0.65100  0.71850  0.66000  Biso   1.000  H
  H61      1.0000 0.84900  0.28150  0.16000  Biso   1.000  H
  H62      1.0000 0.53150  0.40100  0.41000  Biso   1.000  H
  H63      1.0000 0.34900  0.78150  0.66000  Biso   1.000  H
  H64      1.0000 0.03150  0.90100  0.91000  Biso   1.000  H
  C113     1.0000 0.95947  0.41883  0.17080  Biso   1.000  C
  C114     1.0000 0.33117  0.20947  0.42080  Biso   1.000  C
  C115     1.0000 0.45947  0.91883  0.67080  Biso   1.000  C
  C116     1.0000 0.83117  0.70947  0.92080  Biso   1.000  C
  C117     1.0000 0.66883  0.29053  0.42080  Biso   1.000  C
  C118     1.0000 0.54053  0.58117  0.67080  Biso   1.000  C
  C119     1.0000 0.16883  0.79053  0.92080  Biso   1.000  C
  C120     1.0000 0.04053  0.08117  0.17080  Biso   1.000  C
  C121     1.0000 0.04053  0.58117  0.82920  Biso   1.000  C
  C122     1.0000 0.16883  0.29053  0.07920  Biso   1.000  C
  C123     1.0000 0.54053  0.08117  0.32920  Biso   1.000  C
  C124     1.0000 0.66883  0.79053  0.57920  Biso   1.000  C
  C125     1.0000 0.83117  0.20947  0.07920  Biso   1.000  C
  C126     1.0000 0.45947  0.41883  0.32920  Biso   1.000  C
  C127     1.0000 0.33117  0.70947  0.57920  Biso   1.000  C
  C128     1.0000 0.95947  0.91883  0.82920  Biso   1.000  C
  O33      1.0000 0.89053  0.60957  0.29533  Biso   1.000  O
  O34      1.0000 0.14043  0.14053  0.54533  Biso   1.000  O
  O35      1.0000 0.39053  0.10957  0.79533  Biso   1.000  O
  O36      1.0000 0.64043  0.64053  0.04533  Biso   1.000  O
  O37      1.0000 0.85957  0.35947  0.54533  Biso   1.000  O
  O38      1.0000 0.60947  0.39043  0.79533  Biso   1.000  O
  O39      1.0000 0.35957  0.85947  0.04533  Biso   1.000  O
  O40      1.0000 0.10947  0.89043  0.29533  Biso   1.000  O
  O41      1.0000 0.10947  0.39043  0.70467  Biso   1.000  O
  O42      1.0000 0.35957  0.35947  0.95467  Biso   1.000  O
  O43      1.0000 0.60947  0.89043  0.20467  Biso   1.000  O
  O44      1.0000 0.85957  0.85947  0.45467  Biso   1.000  O
  O45      1.0000 0.64043  0.14053  0.95467  Biso   1.000  O
  O46      1.0000 0.39053  0.60957  0.20467  Biso   1.000  O
  O47      1.0000 0.14043  0.64053  0.45467  Biso   1.000  O
  O48      1.0000 0.89053  0.10957  0.70467  Biso   1.000  O
  C129     1.0000 0.93192  0.58699  0.33080  Biso   1.000  C
  C130     1.0000 0.16301  0.18192  0.58080  Biso   1.000  C
  C131     1.0000 0.43192  0.08699  0.83080  Biso   1.000  C
  C132     1.0000 0.66301  0.68192  0.08080  Biso   1.000  C
  C133     1.0000 0.83699  0.31808  0.58080  Biso   1.000  C
  C134     1.0000 0.56808  0.41301  0.83080  Biso   1.000  C
  C135     1.0000 0.33699  0.81808  0.08080  Biso   1.000  C
  C136     1.0000 0.06808  0.91301  0.33080  Biso   1.000  C
  C137     1.0000 0.06808  0.41301  0.66920  Biso   1.000  C
  C138     1.0000 0.33699  0.31808  0.91920  Biso   1.000  C
  C139     1.0000 0.56808  0.91301  0.16920  Biso   1.000  C
  C140     1.0000 0.83699  0.81808  0.41920  Biso   1.000  C
  C141     1.0000 0.66301  0.18192  0.91920  Biso   1.000  C
  C142     1.0000 0.43192  0.58699  0.16920  Biso   1.000  C
  C143     1.0000 0.16301  0.68192  0.41920  Biso   1.000  C
  C144     1.0000 0.93192  0.08699  0.66920  Biso   1.000  C
  H65      1.0000 0.94050  0.55230  0.29990  Biso   1.000  H
  H66      1.0000 0.19770  0.19050  0.54990  Biso   1.000  H
  H67      1.0000 0.44050  0.05230  0.79990  Biso   1.000  H
  H68      1.0000 0.69770  0.69050  0.04990  Biso   1.000  H
  H69      1.0000 0.80230  0.30950  0.54990  Biso   1.000  H
  H70      1.0000 0.55950  0.44770  0.79990  Biso   1.000  H
  H71      1.0000 0.30230  0.80950  0.04990  Biso   1.000  H
  H72      1.0000 0.05950  0.94770  0.29990  Biso   1.000  H
  H73      1.0000 0.05950  0.44770  0.70010  Biso   1.000  H
  H74      1.0000 0.30230  0.30950  0.95010  Biso   1.000  H
  H75      1.0000 0.55950  0.94770  0.20010  Biso   1.000  H
  H76      1.0000 0.80230  0.80950  0.45010  Biso   1.000  H
  H77      1.0000 0.69770  0.19050  0.95010  Biso   1.000  H
  H78      1.0000 0.44050  0.55230  0.20010  Biso   1.000  H
  H79      1.0000 0.19770  0.69050  0.45010  Biso   1.000  H
  H80      1.0000 0.94050  0.05230  0.70010  Biso   1.000  H
  N33      1.0000 0.96522  0.60714  0.40830  Biso   1.000  N
  N34      1.0000 0.14286  0.21522  0.65830  Biso   1.000  N
  N35      1.0000 0.46522  0.10714  0.90830  Biso   1.000  N
  N36      1.0000 0.64286  0.71522  0.15830  Biso   1.000  N
  N37      1.0000 0.85714  0.28478  0.65830  Biso   1.000  N
  N38      1.0000 0.53478  0.39286  0.90830  Biso   1.000  N
  N39      1.0000 0.35714  0.78478  0.15830  Biso   1.000  N
  N40      1.0000 0.03478  0.89286  0.40830  Biso   1.000  N
  N41      1.0000 0.03478  0.39286  0.59170  Biso   1.000  N
  N42      1.0000 0.35714  0.28478  0.84170  Biso   1.000  N
  N43      1.0000 0.53478  0.89286  0.09170  Biso   1.000  N
  N44      1.0000 0.85714  0.78478  0.34170  Biso   1.000  N
  N45      1.0000 0.64286  0.21522  0.84170  Biso   1.000  N
  N46      1.0000 0.46522  0.60714  0.09170  Biso   1.000  N
  N47      1.0000 0.14286  0.71522  0.34170  Biso   1.000  N
  N48      1.0000 0.96522  0.10714  0.59170  Biso   1.000  N
  C145     1.0000 0.01328  0.57710  0.44700  Biso   1.000  C
  C146     1.0000 0.17290  0.26328  0.69700  Biso   1.000  C
  C147     1.0000 0.51328  0.07710  0.94700  Biso   1.000  C
  C148     1.0000 0.67290  0.76328  0.19700  Biso   1.000  C
  C149     1.0000 0.82710  0.23672  0.69700  Biso   1.000  C
  C150     1.0000 0.48672  0.42290  0.94700  Biso   1.000  C
  C151     1.0000 0.32710  0.73672  0.19700  Biso   1.000  C
  C152     1.0000 0.98672  0.92290  0.44700  Biso   1.000  C
  C153     1.0000 0.98672  0.42290  0.55300  Biso   1.000  C
  C154     1.0000 0.32710  0.23672  0.80300  Biso   1.000  C
  C155     1.0000 0.48672  0.92290  0.05300  Biso   1.000  C
  C156     1.0000 0.82710  0.73672  0.30300  Biso   1.000  C
  C157     1.0000 0.67290  0.26328  0.80300  Biso   1.000  C
  C158     1.0000 0.51328  0.57710  0.05300  Biso   1.000  C
  C159     1.0000 0.17290  0.76328  0.30300  Biso   1.000  C
  C160     1.0000 0.01328  0.07710  0.55300  Biso   1.000  C
  H81      1.0000 0.00790  0.56520  0.52640  Biso   1.000  H
  H82      1.0000 0.18480  0.25790  0.77640  Biso   1.000  H
  H83      1.0000 0.50790  0.06520  0.02640  Biso   1.000  H
  H84      1.0000 0.68480  0.75790  0.27640  Biso   1.000  H
  H85      1.0000 0.81520  0.24210  0.77640  Biso   1.000  H
  H86      1.0000 0.49210  0.43480  0.02640  Biso   1.000  H
  H87      1.0000 0.31520  0.74210  0.27640  Biso   1.000  H
  H88      1.0000 0.99210  0.93480  0.52640  Biso   1.000  H
  H89      1.0000 0.99210  0.43480  0.47360  Biso   1.000  H
  H90      1.0000 0.31520  0.24210  0.72360  Biso   1.000  H
  H91      1.0000 0.49210  0.93480  0.97360  Biso   1.000  H
  H92      1.0000 0.81520  0.74210  0.22360  Biso   1.000  H
  H93      1.0000 0.68480  0.25790  0.72360  Biso   1.000  H
  H94      1.0000 0.50790  0.56520  0.97360  Biso   1.000  H
  H95      1.0000 0.18480  0.75790  0.22360  Biso   1.000  H
  H96      1.0000 0.00790  0.06520  0.47360  Biso   1.000  H
  H97      1.0000 0.04530  0.60070  0.44270  Biso   1.000  H
  H98      1.0000 0.14930  0.29530  0.69270  Biso   1.000  H
  H99      1.0000 0.54530  0.10070  0.94270  Biso   1.000  H
  H100     1.0000 0.64930  0.79530  0.19270  Biso   1.000  H
  H101     1.0000 0.85070  0.20470  0.69270  Biso   1.000  H
  H102     1.0000 0.45470  0.39930  0.94270  Biso   1.000  H
  H103     1.0000 0.35070  0.70470  0.19270  Biso   1.000  H
  H104     1.0000 0.95470  0.89930  0.44270  Biso   1.000  H
  H105     1.0000 0.95470  0.39930  0.55730  Biso   1.000  H
  H106     1.0000 0.35070  0.20470  0.80730  Biso   1.000  H
  H107     1.0000 0.45470  0.89930  0.05730  Biso   1.000  H
  H108     1.0000 0.85070  0.70470  0.30730  Biso   1.000  H
  H109     1.0000 0.64930  0.29530  0.80730  Biso   1.000  H
  H110     1.0000 0.54530  0.60070  0.05730  Biso   1.000  H
  H111     1.0000 0.14930  0.79530  0.30730  Biso   1.000  H
  H112     1.0000 0.04530  0.10070  0.55730  Biso   1.000  H
  H113     1.0000 0.01880  0.54530  0.39770  Biso   1.000  H
  H114     1.0000 0.20470  0.26880  0.64770  Biso   1.000  H
  H115     1.0000 0.51880  0.04530  0.89770  Biso   1.000  H
  H116     1.0000 0.70470  0.76880  0.14770  Biso   1.000  H
  H117     1.0000 0.79530  0.23120  0.64770  Biso   1.000  H
  H118     1.0000 0.48120  0.45470  0.89770  Biso   1.000  H
  H119     1.0000 0.29530  0.73120  0.14770  Biso   1.000  H
  H120     1.0000 0.98120  0.95470  0.39770  Biso   1.000  H
  H121     1.0000 0.98120  0.45470  0.60230  Biso   1.000  H
  H122     1.0000 0.29530  0.23120  0.85230  Biso   1.000  H
  H123     1.0000 0.48120  0.95470  0.10230  Biso   1.000  H
  H124     1.0000 0.79530  0.73120  0.35230  Biso   1.000  H
  H125     1.0000 0.70470  0.26880  0.85230  Biso   1.000  H
  H126     1.0000 0.51880  0.54530  0.10230  Biso   1.000  H
  H127     1.0000 0.20470  0.76880  0.35230  Biso   1.000  H
  H128     1.0000 0.01880  0.04530  0.60230  Biso   1.000  H
  C161     1.0000 0.95210  0.66010  0.46230  Biso   1.000  C
  C162     1.0000 0.08990  0.20210  0.71230  Biso   1.000  C
  C163     1.0000 0.45210  0.16010  0.96230  Biso   1.000  C
  C164     1.0000 0.58990  0.70210  0.21230  Biso   1.000  C
  C165     1.0000 0.91010  0.29790  0.71230  Biso   1.000  C
  C166     1.0000 0.54790  0.33990  0.96230  Biso   1.000  C
  C167     1.0000 0.41010  0.79790  0.21230  Biso   1.000  C
  C168     1.0000 0.04790  0.83990  0.46230  Biso   1.000  C
  C169     1.0000 0.04790  0.33990  0.53770  Biso   1.000  C
  C170     1.0000 0.41010  0.29790  0.78770  Biso   1.000  C
  C171     1.0000 0.54790  0.83990  0.03770  Biso   1.000  C
  C172     1.0000 0.91010  0.79790  0.28770  Biso   1.000  C
  C173     1.0000 0.58990  0.20210  0.78770  Biso   1.000  C
  C174     1.0000 0.45210  0.66010  0.03770  Biso   1.000  C
  C175     1.0000 0.08990  0.70210  0.28770  Biso   1.000  C
  C176     1.0000 0.95210  0.16010  0.53770  Biso   1.000  C
  H129     1.0000 0.97590  0.68830  0.43080  Biso   1.000  H
  H130     1.0000 0.06170  0.22590  0.68080  Biso   1.000  H
  H131     1.0000 0.47590  0.18830  0.93080  Biso   1.000  H
  H132     1.0000 0.56170  0.72590  0.18080  Biso   1.000  H
  H133     1.0000 0.93830  0.27410  0.68080  Biso   1.000  H
  H134     1.0000 0.52410  0.31170  0.93080  Biso   1.000  H
  H135     1.0000 0.43830  0.77410  0.18080  Biso   1.000  H
  H136     1.0000 0.02410  0.81170  0.43080  Biso   1.000  H
  H137     1.0000 0.02410  0.31170  0.56920  Biso   1.000  H
  H138     1.0000 0.43830  0.27410  0.81920  Biso   1.000  H
  H139     1.0000 0.52410  0.81170  0.06920  Biso   1.000  H
  H140     1.0000 0.93830  0.77410  0.31920  Biso   1.000  H
  H141     1.0000 0.56170  0.22590  0.81920  Biso   1.000  H
  H142     1.0000 0.47590  0.68830  0.06920  Biso   1.000  H
  H143     1.0000 0.06170  0.72590  0.31920  Biso   1.000  H
  H144     1.0000 0.97590  0.18830  0.56920  Biso   1.000  H
  H145     1.0000 0.95750  0.65750  0.54540  Biso   1.000  H
  H146     1.0000 0.09250  0.20750  0.79540  Biso   1.000  H
  H147     1.0000 0.45750  0.15750  0.04540  Biso   1.000  H
  H148     1.0000 0.59250  0.70750  0.29540  Biso   1.000  H
  H149     1.0000 0.90750  0.29250  0.79540  Biso   1.000  H
  H150     1.0000 0.54250  0.34250  0.04540  Biso   1.000  H
  H151     1.0000 0.40750  0.79250  0.29540  Biso   1.000  H
  H152     1.0000 0.04250  0.84250  0.54540  Biso   1.000  H
  H153     1.0000 0.04250  0.34250  0.45460  Biso   1.000  H
  H154     1.0000 0.40750  0.29250  0.70460  Biso   1.000  H
  H155     1.0000 0.54250  0.84250  0.95460  Biso   1.000  H
  H156     1.0000 0.90750  0.79250  0.20460  Biso   1.000  H
  H157     1.0000 0.59250  0.20750  0.70460  Biso   1.000  H
  H158     1.0000 0.45750  0.65750  0.95460  Biso   1.000  H
  H159     1.0000 0.09250  0.70750  0.20460  Biso   1.000  H
  H160     1.0000 0.95750  0.15750  0.45460  Biso   1.000  H
  H161     1.0000 0.91420  0.66950  0.44620  Biso   1.000  H
  H162     1.0000 0.08050  0.16420  0.69620  Biso   1.000  H
  H163     1.0000 0.41420  0.16950  0.94620  Biso   1.000  H
  H164     1.0000 0.58050  0.66420  0.19620  Biso   1.000  H
  H165     1.0000 0.91950  0.33580  0.69620  Biso   1.000  H
  H166     1.0000 0.58580  0.33050  0.94620  Biso   1.000  H
  H167     1.0000 0.41950  0.83580  0.19620  Biso   1.000  H
  H168     1.0000 0.08580  0.83050  0.44620  Biso   1.000  H
  H169     1.0000 0.08580  0.33050  0.55380  Biso   1.000  H
  H170     1.0000 0.41950  0.33580  0.80380  Biso   1.000  H
  H171     1.0000 0.58580  0.83050  0.05380  Biso   1.000  H
  H172     1.0000 0.91950  0.83580  0.30380  Biso   1.000  H
  H173     1.0000 0.58050  0.16420  0.80380  Biso   1.000  H
  H174     1.0000 0.41420  0.66950  0.05380  Biso   1.000  H
  H175     1.0000 0.08050  0.66420  0.30380  Biso   1.000  H
  H176     1.0000 0.91420  0.16950  0.55380  Biso   1.000  H
  O49      1.0000 0.77103  0.60460  0.25214  Biso   1.000  O
  O50      1.0000 0.14540  0.02103  0.50214  Biso   1.000  O
  O51      1.0000 0.27103  0.10460  0.75214  Biso   1.000  O
  O52      1.0000 0.64540  0.52103  0.00214  Biso   1.000  O
  O53      1.0000 0.85460  0.47897  0.50214  Biso   1.000  O
  O54      1.0000 0.72897  0.39540  0.75214  Biso   1.000  O
  O55      1.0000 0.35460  0.97897  0.00214  Biso   1.000  O
  O56      1.0000 0.22897  0.89540  0.25214  Biso   1.000  O
  O57      1.0000 0.22897  0.39540  0.74786  Biso   1.000  O
  O58      1.0000 0.35460  0.47897  0.99786  Biso   1.000  O
  O59      1.0000 0.72897  0.89540  0.24786  Biso   1.000  O
  O60      1.0000 0.85460  0.97897  0.49786  Biso   1.000  O
  O61      1.0000 0.64540  0.02103  0.99786  Biso   1.000  O
  O62      1.0000 0.27103  0.60460  0.24786  Biso   1.000  O
  O63      1.0000 0.14540  0.52103  0.49786  Biso   1.000  O
  O64      1.0000 0.77103  0.10460  0.74786  Biso   1.000  O
  C177     1.0000 0.76849  0.59037  0.35520  Biso   1.000  C
  C178     1.0000 0.15963  0.01849  0.60520  Biso   1.000  C
  C179     1.0000 0.26849  0.09037  0.85520  Biso   1.000  C
  C180     1.0000 0.65963  0.51849  0.10520  Biso   1.000  C
  C181     1.0000 0.84037  0.48151  0.60520  Biso   1.000  C
  C182     1.0000 0.73151  0.40963  0.85520  Biso   1.000  C
  C183     1.0000 0.34037  0.98151  0.10520  Biso   1.000  C
  C184     1.0000 0.23151  0.90963  0.35520  Biso   1.000  C
  C185     1.0000 0.23151  0.40963  0.64480  Biso   1.000  C
  C186     1.0000 0.34037  0.48151  0.89480  Biso   1.000  C
  C187     1.0000 0.73151  0.90963  0.14480  Biso   1.000  C
  C188     1.0000 0.84037  0.98151  0.39480  Biso   1.000  C
  C189     1.0000 0.65963  0.01849  0.89480  Biso   1.000  C
  C190     1.0000 0.26849  0.59037  0.14480  Biso   1.000  C
  C191     1.0000 0.15963  0.51849  0.39480  Biso   1.000  C
  C192     1.0000 0.76849  0.09037  0.64480  Biso   1.000  C
  H177     1.0000 0.79790  0.56980  0.38540  Biso   1.000  H
  H178     1.0000 0.18020  0.04790  0.63540  Biso   1.000  H
  H179     1.0000 0.29790  0.06980  0.88540  Biso   1.000  H
  H180     1.0000 0.68020  0.54790  0.13540  Biso   1.000  H
  H181     1.0000 0.81980  0.45210  0.63540  Biso   1.000  H
  H182     1.0000 0.70210  0.43020  0.88540  Biso   1.000  H
  H183     1.0000 0.31980  0.95210  0.13540  Biso   1.000  H
  H184     1.0000 0.20210  0.93020  0.38540  Biso   1.000  H
  H185     1.0000 0.20210  0.43020  0.61460  Biso   1.000  H
  H186     1.0000 0.31980  0.45210  0.86460  Biso   1.000  H
  H187     1.0000 0.70210  0.93020  0.11460  Biso   1.000  H
  H188     1.0000 0.81980  0.95210  0.36460  Biso   1.000  H
  H189     1.0000 0.68020  0.04790  0.86460  Biso   1.000  H
  H190     1.0000 0.29790  0.56980  0.11460  Biso   1.000  H
  H191     1.0000 0.18020  0.54790  0.36460  Biso   1.000  H
  H192     1.0000 0.79790  0.06980  0.61460  Biso   1.000  H
  N49      1.0000 0.72824  0.60180  0.42400  Biso   1.000  N
  N50      1.0000 0.14820  0.97824  0.67400  Biso   1.000  N
  N51      1.0000 0.22824  0.10180  0.92400  Biso   1.000  N
  N52      1.0000 0.64820  0.47824  0.17400  Biso   1.000  N
  N53      1.0000 0.85180  0.52176  0.67400  Biso   1.000  N
  N54      1.0000 0.77176  0.39820  0.92400  Biso   1.000  N
  N55      1.0000 0.35180  0.02176  0.17400  Biso   1.000  N
  N56      1.0000 0.27176  0.89820  0.42400  Biso   1.000  N
  N57      1.0000 0.27176  0.39820  0.57600  Biso   1.000  N
  N58      1.0000 0.35180  0.52176  0.82600  Biso   1.000  N
  N59      1.0000 0.77176  0.89820  0.07600  Biso   1.000  N
  N60      1.0000 0.85180  0.02176  0.32600  Biso   1.000  N
  N61      1.0000 0.64820  0.97824  0.82600  Biso   1.000  N
  N62      1.0000 0.22824  0.60180  0.07600  Biso   1.000  N
  N63      1.0000 0.14820  0.47824  0.32600  Biso   1.000  N
  N64      1.0000 0.72824  0.10180  0.57600  Biso   1.000  N
  C193     1.0000 0.68224  0.63340  0.38530  Biso   1.000  C
  C194     1.0000 0.11660  0.93224  0.63530  Biso   1.000  C
  C195     1.0000 0.18224  0.13340  0.88530  Biso   1.000  C
  C196     1.0000 0.61660  0.43224  0.13530  Biso   1.000  C
  C197     1.0000 0.88340  0.56776  0.63530  Biso   1.000  C
  C198     1.0000 0.81776  0.36660  0.88530  Biso   1.000  C
  C199     1.0000 0.38340  0.06776  0.13530  Biso   1.000  C
  C200     1.0000 0.31776  0.86660  0.38530  Biso   1.000  C
  C201     1.0000 0.31776  0.36660  0.61470  Biso   1.000  C
  C202     1.0000 0.38340  0.56776  0.86470  Biso   1.000  C
  C203     1.0000 0.81776  0.86660  0.11470  Biso   1.000  C
  C204     1.0000 0.88340  0.06776  0.36470  Biso   1.000  C
  C205     1.0000 0.61660  0.93224  0.86470  Biso   1.000  C
  C206     1.0000 0.18224  0.63340  0.11470  Biso   1.000  C
  C207     1.0000 0.11660  0.43224  0.36470  Biso   1.000  C
  C208     1.0000 0.68224  0.13340  0.61470  Biso   1.000  C
  H193     1.0000 0.68510  0.63950  0.30240  Biso   1.000  H
  H194     1.0000 0.11050  0.93510  0.55240  Biso   1.000  H
  H195     1.0000 0.18510  0.13950  0.80240  Biso   1.000  H
  H196     1.0000 0.61050  0.43510  0.05240  Biso   1.000  H
  H197     1.0000 0.88950  0.56490  0.55240  Biso   1.000  H
  H198     1.0000 0.81490  0.36050  0.80240  Biso   1.000  H
  H199     1.0000 0.38950  0.06490  0.05240  Biso   1.000  H
  H200     1.0000 0.31490  0.86050  0.30240  Biso   1.000  H
  H201     1.0000 0.31490  0.36050  0.69760  Biso   1.000  H
  H202     1.0000 0.38950  0.56490  0.94760  Biso   1.000  H
  H203     1.0000 0.81490  0.86050  0.19760  Biso   1.000  H
  H204     1.0000 0.88950  0.06490  0.44760  Biso   1.000  H
  H205     1.0000 0.61050  0.93510  0.94760  Biso   1.000  H
  H206     1.0000 0.18510  0.63950  0.19760  Biso   1.000  H
  H207     1.0000 0.11050  0.43510  0.44760  Biso   1.000  H
  H208     1.0000 0.68510  0.13950  0.69760  Biso   1.000  H
  H209     1.0000 0.68180  0.66840  0.42520  Biso   1.000  H
  H210     1.0000 0.08160  0.93180  0.67520  Biso   1.000  H
  H211     1.0000 0.18180  0.16840  0.92520  Biso   1.000  H
  H212     1.0000 0.58160  0.43180  0.17520  Biso   1.000  H
  H213     1.0000 0.91840  0.56820  0.67520  Biso   1.000  H
  H214     1.0000 0.81820  0.33160  0.92520  Biso   1.000  H
  H215     1.0000 0.41840  0.06820  0.17520  Biso   1.000  H
  H216     1.0000 0.31820  0.83160  0.42520  Biso   1.000  H
  H217     1.0000 0.31820  0.33160  0.57480  Biso   1.000  H
  H218     1.0000 0.41840  0.56820  0.82480  Biso   1.000  H
  H219     1.0000 0.81820  0.83160  0.07480  Biso   1.000  H
  H220     1.0000 0.91840  0.06820  0.32480  Biso   1.000  H
  H221     1.0000 0.58160  0.93180  0.82480  Biso   1.000  H
  H222     1.0000 0.18180  0.66840  0.07480  Biso   1.000  H
  H223     1.0000 0.08160  0.43180  0.32480  Biso   1.000  H
  H224     1.0000 0.68180  0.16840  0.57480  Biso   1.000  H
  H225     1.0000 0.64860  0.61370  0.40200  Biso   1.000  H
  H226     1.0000 0.13630  0.89860  0.65200  Biso   1.000  H
  H227     1.0000 0.14860  0.11370  0.90200  Biso   1.000  H
  H228     1.0000 0.63630  0.39860  0.15200  Biso   1.000  H
  H229     1.0000 0.86370  0.60140  0.65200  Biso   1.000  H
  H230     1.0000 0.85140  0.38630  0.90200  Biso   1.000  H
  H231     1.0000 0.36370  0.10140  0.15200  Biso   1.000  H
  H232     1.0000 0.35140  0.88630  0.40200  Biso   1.000  H
  H233     1.0000 0.35140  0.38630  0.59800  Biso   1.000  H
  H234     1.0000 0.36370  0.60140  0.84800  Biso   1.000  H
  H235     1.0000 0.85140  0.88630  0.09800  Biso   1.000  H
  H236     1.0000 0.86370  0.10140  0.34800  Biso   1.000  H
  H237     1.0000 0.63630  0.89860  0.84800  Biso   1.000  H
  H238     1.0000 0.14860  0.61370  0.09800  Biso   1.000  H
  H239     1.0000 0.13630  0.39860  0.34800  Biso   1.000  H
  H240     1.0000 0.64860  0.11370  0.59800  Biso   1.000  H
  C209     1.0000 0.72658  0.58290  0.54230  Biso   1.000  C
  C210     1.0000 0.16710  0.97658  0.79230  Biso   1.000  C
  C211     1.0000 0.22658  0.08290  0.04230  Biso   1.000  C
  C212     1.0000 0.66710  0.47658  0.29230  Biso   1.000  C
  C213     1.0000 0.83290  0.52342  0.79230  Biso   1.000  C
  C214     1.0000 0.77342  0.41710  0.04230  Biso   1.000  C
  C215     1.0000 0.33290  0.02342  0.29230  Biso   1.000  C
  C216     1.0000 0.27342  0.91710  0.54230  Biso   1.000  C
  C217     1.0000 0.27342  0.41710  0.45770  Biso   1.000  C
  C218     1.0000 0.33290  0.52342  0.70770  Biso   1.000  C
  C219     1.0000 0.77342  0.91710  0.95770  Biso   1.000  C
  C220     1.0000 0.83290  0.02342  0.20770  Biso   1.000  C
  C221     1.0000 0.66710  0.97658  0.70770  Biso   1.000  C
  C222     1.0000 0.22658  0.58290  0.95770  Biso   1.000  C
  C223     1.0000 0.16710  0.47658  0.20770  Biso   1.000  C
  C224     1.0000 0.72658  0.08290  0.45770  Biso   1.000  C
  H241     1.0000 0.76000  0.56290  0.55970  Biso   1.000  H
  H242     1.0000 0.18710  0.01000  0.80970  Biso   1.000  H
  H243     1.0000 0.26000  0.06290  0.05970  Biso   1.000  H
  H244     1.0000 0.68710  0.51000  0.30970  Biso   1.000  H
  H245     1.0000 0.81290  0.49000  0.80970  Biso   1.000  H
  H246     1.0000 0.74000  0.43710  0.05970  Biso   1.000  H
  H247     1.0000 0.31290  0.99000  0.30970  Biso   1.000  H
  H248     1.0000 0.24000  0.93710  0.55970  Biso   1.000  H
  H249     1.0000 0.24000  0.43710  0.44030  Biso   1.000  H
  H250     1.0000 0.31290  0.49000  0.69030  Biso   1.000  H
  H251     1.0000 0.74000  0.93710  0.94030  Biso   1.000  H
  H252     1.0000 0.81290  0.99000  0.19030  Biso   1.000  H
  H253     1.0000 0.68710  0.01000  0.69030  Biso   1.000  H
  H254     1.0000 0.26000  0.56290  0.94030  Biso   1.000  H
  H255     1.0000 0.18710  0.51000  0.19030  Biso   1.000  H
  H256     1.0000 0.76000  0.06290  0.44030  Biso   1.000  H
  H257     1.0000 0.69520  0.55890  0.55280  Biso   1.000  H
  H258     1.0000 0.19110  0.94520  0.80280  Biso   1.000  H
  H259     1.0000 0.19520  0.05890  0.05280  Biso   1.000  H
  H260     1.0000 0.69110  0.44520  0.30280  Biso   1.000  H
  H261     1.0000 0.80890  0.55480  0.80280  Biso   1.000  H
  H262     1.0000 0.80480  0.44110  0.05280  Biso   1.000  H
  H263     1.0000 0.30890  0.05480  0.30280  Biso   1.000  H
  H264     1.0000 0.30480  0.94110  0.55280  Biso   1.000  H
  H265     1.0000 0.30480  0.44110  0.44720  Biso   1.000  H
  H266     1.0000 0.30890  0.55480  0.69720  Biso   1.000  H
  H267     1.0000 0.80480  0.94110  0.94720  Biso   1.000  H
  H268     1.0000 0.80890  0.05480  0.19720  Biso   1.000  H
  H269     1.0000 0.69110  0.94520  0.69720  Biso   1.000  H
  H270     1.0000 0.19520  0.55890  0.94720  Biso   1.000  H
  H271     1.0000 0.19110  0.44520  0.19720  Biso   1.000  H
  H272     1.0000 0.69520  0.05890  0.44720  Biso   1.000  H
  H273     1.0000 0.72350  0.61420  0.59400  Biso   1.000  H
  H274     1.0000 0.13580  0.97350  0.84400  Biso   1.000  H
  H275     1.0000 0.22350  0.11420  0.09400  Biso   1.000  H
  H276     1.0000 0.63580  0.47350  0.34400  Biso   1.000  H
  H277     1.0000 0.86420  0.52650  0.84400  Biso   1.000  H
  H278     1.0000 0.77650  0.38580  0.09400  Biso   1.000  H
  H279     1.0000 0.36420  0.02650  0.34400  Biso   1.000  H
  H280     1.0000 0.27650  0.88580  0.59400  Biso   1.000  H
  H281     1.0000 0.27650  0.38580  0.40600  Biso   1.000  H
  H282     1.0000 0.36420  0.52650  0.65600  Biso   1.000  H
  H283     1.0000 0.77650  0.88580  0.90600  Biso   1.000  H
  H284     1.0000 0.86420  0.02650  0.15600  Biso   1.000  H
  H285     1.0000 0.63580  0.97350  0.65600  Biso   1.000  H
  H286     1.0000 0.22350  0.61420  0.90600  Biso   1.000  H
  H287     1.0000 0.13580  0.47350  0.15600  Biso   1.000  H
  H288     1.0000 0.72350  0.11420  0.40600  Biso   1.000  H
