data_image0
_cell_length_a       53.319
_cell_length_b       15.9118
_cell_length_c       22.444
_cell_angle_alpha    90
_cell_angle_beta     102.719
_cell_angle_gamma    90

_symmetry_space_group_name_H-M    "P 1"
_symmetry_int_tables_number       1

loop_
  _symmetry_equiv_pos_as_xyz
  'x, y, z'

loop_
  _atom_site_label
  _atom_site_occupancy
  _atom_site_fract_x
  _atom_site_fract_y
  _atom_site_fract_z
  _atom_site_thermal_displace_type
  _atom_site_B_iso_or_equiv
  _atom_site_type_symbol
  Cu1      1.0000 0.28196  0.39508  0.85532  Biso   1.000  Cu
  Cu2      1.0000 0.78196  0.89508  0.85532  Biso   1.000  Cu
  Cu3      1.0000 0.71804  0.39508  0.64468  Biso   1.000  Cu
  Cu4      1.0000 0.21804  0.89508  0.64468  Biso   1.000  Cu
  Cu5      1.0000 0.71804  0.60492  0.14468  Biso   1.000  Cu
  Cu6      1.0000 0.21804  0.10492  0.14468  Biso   1.000  Cu
  Cu7      1.0000 0.28196  0.60492  0.35532  Biso   1.000  Cu
  Cu8      1.0000 0.78196  0.10492  0.35532  Biso   1.000  Cu
  O1       1.0000 0.27889  0.97610  0.94060  Biso   1.000  O
  O2       1.0000 0.77889  0.47610  0.94060  Biso   1.000  O
  O3       1.0000 0.72111  0.97610  0.55940  Biso   1.000  O
  O4       1.0000 0.22111  0.47610  0.55940  Biso   1.000  O
  O5       1.0000 0.72111  0.02390  0.05940  Biso   1.000  O
  O6       1.0000 0.22111  0.52390  0.05940  Biso   1.000  O
  O7       1.0000 0.27889  0.02390  0.44060  Biso   1.000  O
  O8       1.0000 0.77889  0.52390  0.44060  Biso   1.000  O
  C1       1.0000 0.27819  0.66800  0.94890  Biso   1.000  C
  C2       1.0000 0.77819  0.16800  0.94890  Biso   1.000  C
  C3       1.0000 0.72181  0.66800  0.55110  Biso   1.000  C
  C4       1.0000 0.22181  0.16800  0.55110  Biso   1.000  C
  C5       1.0000 0.72181  0.33200  0.05110  Biso   1.000  C
  C6       1.0000 0.22181  0.83200  0.05110  Biso   1.000  C
  C7       1.0000 0.27819  0.33200  0.44890  Biso   1.000  C
  C8       1.0000 0.77819  0.83200  0.44890  Biso   1.000  C
  H1       1.0000 0.26170  0.67420  0.96200  Biso   1.000  H
  H2       1.0000 0.76170  0.17420  0.96200  Biso   1.000  H
  H3       1.0000 0.73830  0.67420  0.53800  Biso   1.000  H
  H4       1.0000 0.23830  0.17420  0.53800  Biso   1.000  H
  H5       1.0000 0.73830  0.32580  0.03800  Biso   1.000  H
  H6       1.0000 0.23830  0.82580  0.03800  Biso   1.000  H
  H7       1.0000 0.26170  0.32580  0.46200  Biso   1.000  H
  H8       1.0000 0.76170  0.82580  0.46200  Biso   1.000  H
  H9       1.0000 0.27620  0.62050  0.91970  Biso   1.000  H
  H10      1.0000 0.77620  0.12050  0.91970  Biso   1.000  H
  H11      1.0000 0.72380  0.62050  0.58030  Biso   1.000  H
  H12      1.0000 0.22380  0.12050  0.58030  Biso   1.000  H
  H13      1.0000 0.72380  0.37950  0.08030  Biso   1.000  H
  H14      1.0000 0.22380  0.87950  0.08030  Biso   1.000  H
  H15      1.0000 0.27620  0.37950  0.41970  Biso   1.000  H
  H16      1.0000 0.77620  0.87950  0.41970  Biso   1.000  H
  Cu9      1.0000 0.50000  0.65264  0.75000  Biso   1.000  Cu
  Cu10     1.0000 0.00000  0.15264  0.75000  Biso   1.000  Cu
  Cu11     1.0000 0.50000  0.34736  0.25000  Biso   1.000  Cu
  Cu12     1.0000 0.00000  0.84736  0.25000  Biso   1.000  Cu
  O9       1.0000 0.29731  0.97600  0.84250  Biso   1.000  O
  O10      1.0000 0.79731  0.47600  0.84250  Biso   1.000  O
  O11      1.0000 0.70269  0.97600  0.65750  Biso   1.000  O
  O12      1.0000 0.20269  0.47600  0.65750  Biso   1.000  O
  O13      1.0000 0.70269  0.02400  0.15750  Biso   1.000  O
  O14      1.0000 0.20269  0.52400  0.15750  Biso   1.000  O
  O15      1.0000 0.29731  0.02400  0.34250  Biso   1.000  O
  O16      1.0000 0.79731  0.52400  0.34250  Biso   1.000  O
  C9       1.0000 0.28265  0.74530  0.91630  Biso   1.000  C
  C10      1.0000 0.78265  0.24530  0.91630  Biso   1.000  C
  C11      1.0000 0.71735  0.74530  0.58370  Biso   1.000  C
  C12      1.0000 0.21735  0.24530  0.58370  Biso   1.000  C
  C13      1.0000 0.71735  0.25470  0.08370  Biso   1.000  C
  C14      1.0000 0.21735  0.75470  0.08370  Biso   1.000  C
  C15      1.0000 0.28265  0.25470  0.41630  Biso   1.000  C
  C16      1.0000 0.78265  0.75470  0.41630  Biso   1.000  C
  O17      1.0000 0.29120  0.28420  0.82840  Biso   1.000  O
  O18      1.0000 0.79120  0.78420  0.82840  Biso   1.000  O
  O19      1.0000 0.70880  0.28420  0.67160  Biso   1.000  O
  O20      1.0000 0.20880  0.78420  0.67160  Biso   1.000  O
  O21      1.0000 0.70880  0.71580  0.17160  Biso   1.000  O
  O22      1.0000 0.20880  0.21580  0.17160  Biso   1.000  O
  O23      1.0000 0.29120  0.71580  0.32840  Biso   1.000  O
  O24      1.0000 0.79120  0.21580  0.32840  Biso   1.000  O
  C17      1.0000 0.27815  0.82100  0.94090  Biso   1.000  C
  C18      1.0000 0.77815  0.32100  0.94090  Biso   1.000  C
  C19      1.0000 0.72185  0.82100  0.55910  Biso   1.000  C
  C20      1.0000 0.22185  0.32100  0.55910  Biso   1.000  C
  C21      1.0000 0.72185  0.17900  0.05910  Biso   1.000  C
  C22      1.0000 0.22185  0.67900  0.05910  Biso   1.000  C
  C23      1.0000 0.27815  0.17900  0.44090  Biso   1.000  C
  C24      1.0000 0.77815  0.67900  0.44090  Biso   1.000  C
  H17      1.0000 0.27170  0.82070  0.97720  Biso   1.000  H
  H18      1.0000 0.77170  0.32070  0.97720  Biso   1.000  H
  H19      1.0000 0.72830  0.82070  0.52280  Biso   1.000  H
  H20      1.0000 0.22830  0.32070  0.52280  Biso   1.000  H
  H21      1.0000 0.72830  0.17930  0.02280  Biso   1.000  H
  H22      1.0000 0.22830  0.67930  0.02280  Biso   1.000  H
  H23      1.0000 0.27170  0.17930  0.47720  Biso   1.000  H
  H24      1.0000 0.77170  0.67930  0.47720  Biso   1.000  H
  O25      1.0000 0.32930  0.34400  0.86890  Biso   1.000  O
  O26      1.0000 0.82930  0.84400  0.86890  Biso   1.000  O
  O27      1.0000 0.67070  0.34400  0.63110  Biso   1.000  O
  O28      1.0000 0.17070  0.84400  0.63110  Biso   1.000  O
  O29      1.0000 0.67070  0.65600  0.13110  Biso   1.000  O
  O30      1.0000 0.17070  0.15600  0.13110  Biso   1.000  O
  O31      1.0000 0.32930  0.65600  0.36890  Biso   1.000  O
  O32      1.0000 0.82930  0.15600  0.36890  Biso   1.000  O
  C25      1.0000 0.28226  0.89670  0.91650  Biso   1.000  C
  C26      1.0000 0.78226  0.39670  0.91650  Biso   1.000  C
  C27      1.0000 0.71774  0.89670  0.58350  Biso   1.000  C
  C28      1.0000 0.21774  0.39670  0.58350  Biso   1.000  C
  C29      1.0000 0.71774  0.10330  0.08350  Biso   1.000  C
  C30      1.0000 0.21774  0.60330  0.08350  Biso   1.000  C
  C31      1.0000 0.28226  0.10330  0.41650  Biso   1.000  C
  C32      1.0000 0.78226  0.60330  0.41650  Biso   1.000  C
  O33      1.0000 0.40641  0.07300  0.80460  Biso   1.000  O
  O34      1.0000 0.90641  0.57300  0.80460  Biso   1.000  O
  O35      1.0000 0.59359  0.07300  0.69540  Biso   1.000  O
  O36      1.0000 0.09359  0.57300  0.69540  Biso   1.000  O
  O37      1.0000 0.59359  0.92700  0.19540  Biso   1.000  O
  O38      1.0000 0.09359  0.42700  0.19540  Biso   1.000  O
  O39      1.0000 0.40641  0.92700  0.30460  Biso   1.000  O
  O40      1.0000 0.90641  0.42700  0.30460  Biso   1.000  O
  C33      1.0000 0.29196  0.89870  0.86230  Biso   1.000  C
  C34      1.0000 0.79196  0.39870  0.86230  Biso   1.000  C
  C35      1.0000 0.70804  0.89870  0.63770  Biso   1.000  C
  C36      1.0000 0.20804  0.39870  0.63770  Biso   1.000  C
  C37      1.0000 0.70804  0.10130  0.13770  Biso   1.000  C
  C38      1.0000 0.20804  0.60130  0.13770  Biso   1.000  C
  C39      1.0000 0.29196  0.10130  0.36230  Biso   1.000  C
  C40      1.0000 0.79196  0.60130  0.36230  Biso   1.000  C
  O41      1.0000 0.43994  0.95430  0.83490  Biso   1.000  O
  O42      1.0000 0.93994  0.45430  0.83490  Biso   1.000  O
  O43      1.0000 0.56006  0.95430  0.66510  Biso   1.000  O
  O44      1.0000 0.06006  0.45430  0.66510  Biso   1.000  O
  O45      1.0000 0.56006  0.04570  0.16510  Biso   1.000  O
  O46      1.0000 0.06006  0.54570  0.16510  Biso   1.000  O
  O47      1.0000 0.43994  0.04570  0.33490  Biso   1.000  O
  O48      1.0000 0.93994  0.54570  0.33490  Biso   1.000  O
  C41      1.0000 0.29558  0.82410  0.83750  Biso   1.000  C
  C42      1.0000 0.79558  0.32410  0.83750  Biso   1.000  C
  C43      1.0000 0.70442  0.82410  0.66250  Biso   1.000  C
  C44      1.0000 0.20442  0.32410  0.66250  Biso   1.000  C
  C45      1.0000 0.70442  0.17590  0.16250  Biso   1.000  C
  C46      1.0000 0.20442  0.67590  0.16250  Biso   1.000  C
  C47      1.0000 0.29558  0.17590  0.33750  Biso   1.000  C
  C48      1.0000 0.79558  0.67590  0.33750  Biso   1.000  C
  H25      1.0000 0.30140  0.82450  0.80040  Biso   1.000  H
  H26      1.0000 0.80140  0.32450  0.80040  Biso   1.000  H
  H27      1.0000 0.69860  0.82450  0.69960  Biso   1.000  H
  H28      1.0000 0.19860  0.32450  0.69960  Biso   1.000  H
  H29      1.0000 0.69860  0.17550  0.19960  Biso   1.000  H
  H30      1.0000 0.19860  0.67550  0.19960  Biso   1.000  H
  H31      1.0000 0.30140  0.17550  0.30040  Biso   1.000  H
  H32      1.0000 0.80140  0.67550  0.30040  Biso   1.000  H
  O49      1.0000 0.38657  0.74830  0.81070  Biso   1.000  O
  O50      1.0000 0.88657  0.24830  0.81070  Biso   1.000  O
  O51      1.0000 0.61343  0.74830  0.68930  Biso   1.000  O
  O52      1.0000 0.11343  0.24830  0.68930  Biso   1.000  O
  O53      1.0000 0.61343  0.25170  0.18930  Biso   1.000  O
  O54      1.0000 0.11343  0.75170  0.18930  Biso   1.000  O
  O55      1.0000 0.38657  0.25170  0.31070  Biso   1.000  O
  O56      1.0000 0.88657  0.75170  0.31070  Biso   1.000  O
  C49      1.0000 0.29150  0.74660  0.86170  Biso   1.000  C
  C50      1.0000 0.79150  0.24660  0.86170  Biso   1.000  C
  C51      1.0000 0.70850  0.74660  0.63830  Biso   1.000  C
  C52      1.0000 0.20850  0.24660  0.63830  Biso   1.000  C
  C53      1.0000 0.70850  0.25340  0.13830  Biso   1.000  C
  C54      1.0000 0.20850  0.75340  0.13830  Biso   1.000  C
  C55      1.0000 0.29150  0.25340  0.36170  Biso   1.000  C
  C56      1.0000 0.79150  0.75340  0.36170  Biso   1.000  C
  O57      1.0000 0.41000  0.63570  0.91670  Biso   1.000  O
  O58      1.0000 0.91000  0.13570  0.91670  Biso   1.000  O
  O59      1.0000 0.59000  0.63570  0.58330  Biso   1.000  O
  O60      1.0000 0.09000  0.13570  0.58330  Biso   1.000  O
  O61      1.0000 0.59000  0.36430  0.08330  Biso   1.000  O
  O62      1.0000 0.09000  0.86430  0.08330  Biso   1.000  O
  O63      1.0000 0.41000  0.36430  0.41670  Biso   1.000  O
  O64      1.0000 0.91000  0.86430  0.41670  Biso   1.000  O
  C57      1.0000 0.26410  0.97880  0.98540  Biso   1.000  C
  C58      1.0000 0.76410  0.47880  0.98540  Biso   1.000  C
  C59      1.0000 0.73590  0.97880  0.51460  Biso   1.000  C
  C60      1.0000 0.23590  0.47880  0.51460  Biso   1.000  C
  C61      1.0000 0.73590  0.02120  0.01460  Biso   1.000  C
  C62      1.0000 0.23590  0.52120  0.01460  Biso   1.000  C
  C63      1.0000 0.26410  0.02120  0.48540  Biso   1.000  C
  C64      1.0000 0.76410  0.52120  0.48540  Biso   1.000  C
  H33      1.0000 0.26500  0.03520  0.00320  Biso   1.000  H
  H34      1.0000 0.76500  0.53520  0.00320  Biso   1.000  H
  H35      1.0000 0.73500  0.03520  0.49680  Biso   1.000  H
  H36      1.0000 0.23500  0.53520  0.49680  Biso   1.000  H
  H37      1.0000 0.73500  0.96480  0.99680  Biso   1.000  H
  H38      1.0000 0.23500  0.46480  0.99680  Biso   1.000  H
  H39      1.0000 0.26500  0.96480  0.50320  Biso   1.000  H
  H40      1.0000 0.76500  0.46480  0.50320  Biso   1.000  H
  H41      1.0000 0.24620  0.96520  0.96660  Biso   1.000  H
  H42      1.0000 0.74620  0.46520  0.96660  Biso   1.000  H
  H43      1.0000 0.75380  0.96520  0.53340  Biso   1.000  H
  H44      1.0000 0.25380  0.46520  0.53340  Biso   1.000  H
  H45      1.0000 0.75380  0.03480  0.03340  Biso   1.000  H
  H46      1.0000 0.25380  0.53480  0.03340  Biso   1.000  H
  H47      1.0000 0.24620  0.03480  0.46660  Biso   1.000  H
  H48      1.0000 0.74620  0.53480  0.46660  Biso   1.000  H
  H49      1.0000 0.27080  0.93770  0.01750  Biso   1.000  H
  H50      1.0000 0.77080  0.43770  0.01750  Biso   1.000  H
  H51      1.0000 0.72920  0.93770  0.48250  Biso   1.000  H
  H52      1.0000 0.22920  0.43770  0.48250  Biso   1.000  H
  H53      1.0000 0.72920  0.06230  0.98250  Biso   1.000  H
  H54      1.0000 0.22920  0.56230  0.98250  Biso   1.000  H
  H55      1.0000 0.27080  0.06230  0.51750  Biso   1.000  H
  H56      1.0000 0.77080  0.56230  0.51750  Biso   1.000  H
  O65      1.0000 0.48690  0.67050  0.82300  Biso   1.000  O
  O66      1.0000 0.98690  0.17050  0.82300  Biso   1.000  O
  O67      1.0000 0.51310  0.67050  0.67700  Biso   1.000  O
  O68      1.0000 0.01310  0.17050  0.67700  Biso   1.000  O
  O69      1.0000 0.51310  0.32950  0.17700  Biso   1.000  O
  O70      1.0000 0.01310  0.82950  0.17700  Biso   1.000  O
  O71      1.0000 0.48690  0.32950  0.32300  Biso   1.000  O
  O72      1.0000 0.98690  0.82950  0.32300  Biso   1.000  O
  C65      1.0000 0.31503  0.97470  0.80120  Biso   1.000  C
  C66      1.0000 0.81503  0.47470  0.80120  Biso   1.000  C
  C67      1.0000 0.68497  0.97470  0.69880  Biso   1.000  C
  C68      1.0000 0.18497  0.47470  0.69880  Biso   1.000  C
  C69      1.0000 0.68497  0.02530  0.19880  Biso   1.000  C
  C70      1.0000 0.18497  0.52530  0.19880  Biso   1.000  C
  C71      1.0000 0.31503  0.02530  0.30120  Biso   1.000  C
  C72      1.0000 0.81503  0.52530  0.30120  Biso   1.000  C
  H57      1.0000 0.32820  0.93040  0.81350  Biso   1.000  H
  H58      1.0000 0.82820  0.43040  0.81350  Biso   1.000  H
  H59      1.0000 0.67180  0.93040  0.68650  Biso   1.000  H
  H60      1.0000 0.17180  0.43040  0.68650  Biso   1.000  H
  H61      1.0000 0.67180  0.06960  0.18650  Biso   1.000  H
  H62      1.0000 0.17180  0.56960  0.18650  Biso   1.000  H
  H63      1.0000 0.32820  0.06960  0.31350  Biso   1.000  H
  H64      1.0000 0.82820  0.56960  0.31350  Biso   1.000  H
  H65      1.0000 0.30560  0.96380  0.75880  Biso   1.000  H
  H66      1.0000 0.80560  0.46380  0.75880  Biso   1.000  H
  H67      1.0000 0.69440  0.96380  0.74120  Biso   1.000  H
  H68      1.0000 0.19440  0.46380  0.74120  Biso   1.000  H
  H69      1.0000 0.69440  0.03620  0.24120  Biso   1.000  H
  H70      1.0000 0.19440  0.53620  0.24120  Biso   1.000  H
  H71      1.0000 0.30560  0.03620  0.25880  Biso   1.000  H
  H72      1.0000 0.80560  0.53620  0.25880  Biso   1.000  H
  O73      1.0000 0.98850  0.76010  0.13850  Biso   1.000  O
  O74      1.0000 0.48850  0.26010  0.13850  Biso   1.000  O
  O75      1.0000 0.01150  0.76010  0.36150  Biso   1.000  O
  O76      1.0000 0.51150  0.26010  0.36150  Biso   1.000  O
  O77      1.0000 0.01150  0.23990  0.86150  Biso   1.000  O
  O78      1.0000 0.51150  0.73990  0.86150  Biso   1.000  O
  O79      1.0000 0.98850  0.23990  0.63850  Biso   1.000  O
  O80      1.0000 0.48850  0.73990  0.63850  Biso   1.000  O
  C73      1.0000 0.32742  0.06030  0.80630  Biso   1.000  C
  C74      1.0000 0.82742  0.56030  0.80630  Biso   1.000  C
  C75      1.0000 0.67258  0.06030  0.69370  Biso   1.000  C
  C76      1.0000 0.17258  0.56030  0.69370  Biso   1.000  C
  C77      1.0000 0.67258  0.93970  0.19370  Biso   1.000  C
  C78      1.0000 0.17258  0.43970  0.19370  Biso   1.000  C
  C79      1.0000 0.32742  0.93970  0.30630  Biso   1.000  C
  C80      1.0000 0.82742  0.43970  0.30630  Biso   1.000  C
  O81      1.0000 0.48987  0.78370  0.13450  Biso   1.000  O
  O82      1.0000 0.98987  0.28370  0.13450  Biso   1.000  O
  O83      1.0000 0.51013  0.78370  0.36550  Biso   1.000  O
  O84      1.0000 0.01013  0.28370  0.36550  Biso   1.000  O
  O85      1.0000 0.51013  0.21630  0.86550  Biso   1.000  O
  O86      1.0000 0.01013  0.71630  0.86550  Biso   1.000  O
  O87      1.0000 0.48987  0.21630  0.63450  Biso   1.000  O
  O88      1.0000 0.98987  0.71630  0.63450  Biso   1.000  O
  C81      1.0000 0.35251  0.06310  0.79640  Biso   1.000  C
  C82      1.0000 0.85251  0.56310  0.79640  Biso   1.000  C
  C83      1.0000 0.64749  0.06310  0.70360  Biso   1.000  C
  C84      1.0000 0.14749  0.56310  0.70360  Biso   1.000  C
  C85      1.0000 0.64749  0.93690  0.20360  Biso   1.000  C
  C86      1.0000 0.14749  0.43690  0.20360  Biso   1.000  C
  C87      1.0000 0.35251  0.93690  0.29640  Biso   1.000  C
  C88      1.0000 0.85251  0.43690  0.29640  Biso   1.000  C
  H73      1.0000 0.36070  0.01330  0.78720  Biso   1.000  H
  H74      1.0000 0.86070  0.51330  0.78720  Biso   1.000  H
  H75      1.0000 0.63930  0.01330  0.71280  Biso   1.000  H
  H76      1.0000 0.13930  0.51330  0.71280  Biso   1.000  H
  H77      1.0000 0.63930  0.98670  0.21280  Biso   1.000  H
  H78      1.0000 0.13930  0.48670  0.21280  Biso   1.000  H
  H79      1.0000 0.36070  0.98670  0.28720  Biso   1.000  H
  H80      1.0000 0.86070  0.48670  0.28720  Biso   1.000  H
  O89      1.0000 0.46564  0.81400  0.21720  Biso   1.000  O
  O90      1.0000 0.96564  0.31400  0.21720  Biso   1.000  O
  O91      1.0000 0.53436  0.81400  0.28280  Biso   1.000  O
  O92      1.0000 0.03436  0.31400  0.28280  Biso   1.000  O
  O93      1.0000 0.53436  0.18600  0.78280  Biso   1.000  O
  O94      1.0000 0.03436  0.68600  0.78280  Biso   1.000  O
  O95      1.0000 0.46564  0.18600  0.71720  Biso   1.000  O
  O96      1.0000 0.96564  0.68600  0.71720  Biso   1.000  O
  C89      1.0000 0.36520  0.14090  0.80050  Biso   1.000  C
  C90      1.0000 0.86520  0.64090  0.80050  Biso   1.000  C
  C91      1.0000 0.63480  0.14090  0.69950  Biso   1.000  C
  C92      1.0000 0.13480  0.64090  0.69950  Biso   1.000  C
  C93      1.0000 0.63480  0.85910  0.19950  Biso   1.000  C
  C94      1.0000 0.13480  0.35910  0.19950  Biso   1.000  C
  C95      1.0000 0.36520  0.85910  0.30050  Biso   1.000  C
  C96      1.0000 0.86520  0.35910  0.30050  Biso   1.000  C
  O97      1.0000 0.35309  0.58940  0.16200  Biso   1.000  O
  O98      1.0000 0.85309  0.08940  0.16200  Biso   1.000  O
  O99      1.0000 0.64691  0.58940  0.33800  Biso   1.000  O
  O100     1.0000 0.14691  0.08940  0.33800  Biso   1.000  O
  O101     1.0000 0.64691  0.41060  0.83800  Biso   1.000  O
  O102     1.0000 0.14691  0.91060  0.83800  Biso   1.000  O
  O103     1.0000 0.35309  0.41060  0.66200  Biso   1.000  O
  O104     1.0000 0.85309  0.91060  0.66200  Biso   1.000  O
  C97      1.0000 0.35340  0.20990  0.81570  Biso   1.000  C
  C98      1.0000 0.85340  0.70990  0.81570  Biso   1.000  C
  C99      1.0000 0.64660  0.20990  0.68430  Biso   1.000  C
  C100     1.0000 0.14660  0.70990  0.68430  Biso   1.000  C
  C101     1.0000 0.64660  0.79010  0.18430  Biso   1.000  C
  C102     1.0000 0.14660  0.29010  0.18430  Biso   1.000  C
  C103     1.0000 0.35340  0.79010  0.31570  Biso   1.000  C
  C104     1.0000 0.85340  0.29010  0.31570  Biso   1.000  C
  H81      1.0000 0.36240  0.26180  0.82130  Biso   1.000  H
  H82      1.0000 0.86240  0.76180  0.82130  Biso   1.000  H
  H83      1.0000 0.63760  0.26180  0.67870  Biso   1.000  H
  H84      1.0000 0.13760  0.76180  0.67870  Biso   1.000  H
  H85      1.0000 0.63760  0.73820  0.17870  Biso   1.000  H
  H86      1.0000 0.13760  0.23820  0.17870  Biso   1.000  H
  H87      1.0000 0.36240  0.73820  0.32130  Biso   1.000  H
  H88      1.0000 0.86240  0.23820  0.32130  Biso   1.000  H
  O105     1.0000 0.31169  0.67790  0.17090  Biso   1.000  O
  O106     1.0000 0.81169  0.17790  0.17090  Biso   1.000  O
  O107     1.0000 0.68831  0.67790  0.32910  Biso   1.000  O
  O108     1.0000 0.18831  0.17790  0.32910  Biso   1.000  O
  O109     1.0000 0.68831  0.32210  0.82910  Biso   1.000  O
  O110     1.0000 0.18831  0.82210  0.82910  Biso   1.000  O
  O111     1.0000 0.31169  0.32210  0.67090  Biso   1.000  O
  O112     1.0000 0.81169  0.82210  0.67090  Biso   1.000  O
  C105     1.0000 0.32830  0.20640  0.82320  Biso   1.000  C
  C106     1.0000 0.82830  0.70640  0.82320  Biso   1.000  C
  C107     1.0000 0.67170  0.20640  0.67680  Biso   1.000  C
  C108     1.0000 0.17170  0.70640  0.67680  Biso   1.000  C
  C109     1.0000 0.67170  0.79360  0.17680  Biso   1.000  C
  C110     1.0000 0.17170  0.29360  0.17680  Biso   1.000  C
  C111     1.0000 0.32830  0.79360  0.32320  Biso   1.000  C
  C112     1.0000 0.82830  0.29360  0.32320  Biso   1.000  C
  O113     1.0000 0.26112  0.49040  0.86780  Biso   1.000  O
  O114     1.0000 0.76112  0.99040  0.86780  Biso   1.000  O
  O115     1.0000 0.73888  0.49040  0.63220  Biso   1.000  O
  O116     1.0000 0.23888  0.99040  0.63220  Biso   1.000  O
  O117     1.0000 0.73888  0.50960  0.13220  Biso   1.000  O
  O118     1.0000 0.23888  0.00960  0.13220  Biso   1.000  O
  O119     1.0000 0.26112  0.50960  0.36780  Biso   1.000  O
  O120     1.0000 0.76112  0.00960  0.36780  Biso   1.000  O
  C113     1.0000 0.31620  0.13340  0.81960  Biso   1.000  C
  C114     1.0000 0.81620  0.63340  0.81960  Biso   1.000  C
  C115     1.0000 0.68380  0.13340  0.68040  Biso   1.000  C
  C116     1.0000 0.18380  0.63340  0.68040  Biso   1.000  C
  C117     1.0000 0.68380  0.86660  0.18040  Biso   1.000  C
  C118     1.0000 0.18380  0.36660  0.18040  Biso   1.000  C
  C119     1.0000 0.31620  0.86660  0.31960  Biso   1.000  C
  C120     1.0000 0.81620  0.36660  0.31960  Biso   1.000  C
  H89      1.0000 0.29920  0.13160  0.82640  Biso   1.000  H
  H90      1.0000 0.79920  0.63160  0.82640  Biso   1.000  H
  H91      1.0000 0.70080  0.13160  0.67360  Biso   1.000  H
  H92      1.0000 0.20080  0.63160  0.67360  Biso   1.000  H
  H93      1.0000 0.70080  0.86840  0.17360  Biso   1.000  H
  H94      1.0000 0.20080  0.36840  0.17360  Biso   1.000  H
  H95      1.0000 0.29920  0.86840  0.32640  Biso   1.000  H
  H96      1.0000 0.79920  0.36840  0.32640  Biso   1.000  H
  O121     1.0000 0.23083  0.39580  0.83530  Biso   1.000  O
  O122     1.0000 0.73083  0.89580  0.83530  Biso   1.000  O
  O123     1.0000 0.76917  0.39580  0.66470  Biso   1.000  O
  O124     1.0000 0.26917  0.89580  0.66470  Biso   1.000  O
  O125     1.0000 0.76917  0.60420  0.16470  Biso   1.000  O
  O126     1.0000 0.26917  0.10420  0.16470  Biso   1.000  O
  O127     1.0000 0.23083  0.60420  0.33530  Biso   1.000  O
  O128     1.0000 0.73083  0.10420  0.33530  Biso   1.000  O
  C121     1.0000 0.31650  0.28500  0.84320  Biso   1.000  C
  C122     1.0000 0.81650  0.78500  0.84320  Biso   1.000  C
  C123     1.0000 0.68350  0.28500  0.65680  Biso   1.000  C
  C124     1.0000 0.18350  0.78500  0.65680  Biso   1.000  C
  C125     1.0000 0.68350  0.71500  0.15680  Biso   1.000  C
  C126     1.0000 0.18350  0.21500  0.15680  Biso   1.000  C
  C127     1.0000 0.31650  0.71500  0.34320  Biso   1.000  C
  C128     1.0000 0.81650  0.21500  0.34320  Biso   1.000  C
  O129     1.0000 0.35653  0.03750  0.14280  Biso   1.000  O
  O130     1.0000 0.85653  0.53750  0.14280  Biso   1.000  O
  O131     1.0000 0.64347  0.03750  0.35720  Biso   1.000  O
  O132     1.0000 0.14347  0.53750  0.35720  Biso   1.000  O
  O133     1.0000 0.64347  0.96250  0.85720  Biso   1.000  O
  O134     1.0000 0.14347  0.46250  0.85720  Biso   1.000  O
  O135     1.0000 0.35653  0.96250  0.64280  Biso   1.000  O
  O136     1.0000 0.85653  0.46250  0.64280  Biso   1.000  O
  C129     1.0000 0.39084  0.14640  0.78500  Biso   1.000  C
  C130     1.0000 0.89084  0.64640  0.78500  Biso   1.000  C
  C131     1.0000 0.60916  0.14640  0.71500  Biso   1.000  C
  C132     1.0000 0.10916  0.64640  0.71500  Biso   1.000  C
  C133     1.0000 0.60916  0.85360  0.21500  Biso   1.000  C
  C134     1.0000 0.10916  0.35360  0.21500  Biso   1.000  C
  C135     1.0000 0.39084  0.85360  0.28500  Biso   1.000  C
  C136     1.0000 0.89084  0.35360  0.28500  Biso   1.000  C
  H97      1.0000 0.39990  0.19690  0.80460  Biso   1.000  H
  H98      1.0000 0.89990  0.69690  0.80460  Biso   1.000  H
  H99      1.0000 0.60010  0.19690  0.69540  Biso   1.000  H
  H100     1.0000 0.10010  0.69690  0.69540  Biso   1.000  H
  H101     1.0000 0.60010  0.80310  0.19540  Biso   1.000  H
  H102     1.0000 0.10010  0.30310  0.19540  Biso   1.000  H
  H103     1.0000 0.39990  0.80310  0.30460  Biso   1.000  H
  H104     1.0000 0.89990  0.30310  0.30460  Biso   1.000  H
  H105     1.0000 0.38850  0.15290  0.74020  Biso   1.000  H
  H106     1.0000 0.88850  0.65290  0.74020  Biso   1.000  H
  H107     1.0000 0.61150  0.15290  0.75980  Biso   1.000  H
  H108     1.0000 0.11150  0.65290  0.75980  Biso   1.000  H
  H109     1.0000 0.61150  0.84710  0.25980  Biso   1.000  H
  H110     1.0000 0.11150  0.34710  0.25980  Biso   1.000  H
  H111     1.0000 0.38850  0.84710  0.24020  Biso   1.000  H
  H112     1.0000 0.88850  0.34710  0.24020  Biso   1.000  H
  O137     1.0000 0.33997  0.10350  0.03100  Biso   1.000  O
  O138     1.0000 0.83997  0.60350  0.03100  Biso   1.000  O
  O139     1.0000 0.66003  0.10350  0.46900  Biso   1.000  O
  O140     1.0000 0.16003  0.60350  0.46900  Biso   1.000  O
  O141     1.0000 0.66003  0.89650  0.96900  Biso   1.000  O
  O142     1.0000 0.16003  0.39650  0.96900  Biso   1.000  O
  O143     1.0000 0.33997  0.89650  0.53100  Biso   1.000  O
  O144     1.0000 0.83997  0.39650  0.53100  Biso   1.000  O
  C137     1.0000 0.42017  0.07160  0.86420  Biso   1.000  C
  C138     1.0000 0.92017  0.57160  0.86420  Biso   1.000  C
  C139     1.0000 0.57983  0.07160  0.63580  Biso   1.000  C
  C140     1.0000 0.07983  0.57160  0.63580  Biso   1.000  C
  C141     1.0000 0.57983  0.92840  0.13580  Biso   1.000  C
  C142     1.0000 0.07983  0.42840  0.13580  Biso   1.000  C
  C143     1.0000 0.42017  0.92840  0.36420  Biso   1.000  C
  C144     1.0000 0.92017  0.42840  0.36420  Biso   1.000  C
  C145     1.0000 0.41728  0.12740  0.90930  Biso   1.000  C
  C146     1.0000 0.91728  0.62740  0.90930  Biso   1.000  C
  C147     1.0000 0.58272  0.12740  0.59070  Biso   1.000  C
  C148     1.0000 0.08272  0.62740  0.59070  Biso   1.000  C
  C149     1.0000 0.58272  0.87260  0.09070  Biso   1.000  C
  C150     1.0000 0.08272  0.37260  0.09070  Biso   1.000  C
  C151     1.0000 0.41728  0.87260  0.40930  Biso   1.000  C
  C152     1.0000 0.91728  0.37260  0.40930  Biso   1.000  C
  H113     1.0000 0.40400  0.16850  0.90000  Biso   1.000  H
  H114     1.0000 0.90400  0.66850  0.90000  Biso   1.000  H
  H115     1.0000 0.59600  0.16850  0.60000  Biso   1.000  H
  H116     1.0000 0.09600  0.66850  0.60000  Biso   1.000  H
  H117     1.0000 0.59600  0.83150  0.10000  Biso   1.000  H
  H118     1.0000 0.09600  0.33150  0.10000  Biso   1.000  H
  H119     1.0000 0.40400  0.83150  0.40000  Biso   1.000  H
  H120     1.0000 0.90400  0.33150  0.40000  Biso   1.000  H
  C153     1.0000 0.43320  0.12610  0.96850  Biso   1.000  C
  C154     1.0000 0.93320  0.62610  0.96850  Biso   1.000  C
  C155     1.0000 0.56680  0.12610  0.53150  Biso   1.000  C
  C156     1.0000 0.06680  0.62610  0.53150  Biso   1.000  C
  C157     1.0000 0.56680  0.87390  0.03150  Biso   1.000  C
  C158     1.0000 0.06680  0.37390  0.03150  Biso   1.000  C
  C159     1.0000 0.43320  0.87390  0.46850  Biso   1.000  C
  C160     1.0000 0.93320  0.37390  0.46850  Biso   1.000  C
  C161     1.0000 0.45242  0.06600  0.98280  Biso   1.000  C
  C162     1.0000 0.95242  0.56600  0.98280  Biso   1.000  C
  C163     1.0000 0.54758  0.06600  0.51720  Biso   1.000  C
  C164     1.0000 0.04758  0.56600  0.51720  Biso   1.000  C
  C165     1.0000 0.54758  0.93400  0.01720  Biso   1.000  C
  C166     1.0000 0.04758  0.43400  0.01720  Biso   1.000  C
  C167     1.0000 0.45242  0.93400  0.48280  Biso   1.000  C
  C168     1.0000 0.95242  0.43400  0.48280  Biso   1.000  C
  C169     1.0000 0.45435  0.00890  0.93860  Biso   1.000  C
  C170     1.0000 0.95435  0.50890  0.93860  Biso   1.000  C
  C171     1.0000 0.54565  0.00890  0.56140  Biso   1.000  C
  C172     1.0000 0.04565  0.50890  0.56140  Biso   1.000  C
  C173     1.0000 0.54565  0.99110  0.06140  Biso   1.000  C
  C174     1.0000 0.04565  0.49110  0.06140  Biso   1.000  C
  C175     1.0000 0.45435  0.99110  0.43860  Biso   1.000  C
  C176     1.0000 0.95435  0.49110  0.43860  Biso   1.000  C
  H121     1.0000 0.46750  0.96760  0.94780  Biso   1.000  H
  H122     1.0000 0.96750  0.46760  0.94780  Biso   1.000  H
  H123     1.0000 0.53250  0.96760  0.55220  Biso   1.000  H
  H124     1.0000 0.03250  0.46760  0.55220  Biso   1.000  H
  H125     1.0000 0.53250  0.03240  0.05220  Biso   1.000  H
  H126     1.0000 0.03250  0.53240  0.05220  Biso   1.000  H
  H127     1.0000 0.46750  0.03240  0.44780  Biso   1.000  H
  H128     1.0000 0.96750  0.53240  0.44780  Biso   1.000  H
  C177     1.0000 0.43830  0.00780  0.88110  Biso   1.000  C
  C178     1.0000 0.93830  0.50780  0.88110  Biso   1.000  C
  C179     1.0000 0.56170  0.00780  0.61890  Biso   1.000  C
  C180     1.0000 0.06170  0.50780  0.61890  Biso   1.000  C
  C181     1.0000 0.56170  0.99220  0.11890  Biso   1.000  C
  C182     1.0000 0.06170  0.49220  0.11890  Biso   1.000  C
  C183     1.0000 0.43830  0.99220  0.38110  Biso   1.000  C
  C184     1.0000 0.93830  0.49220  0.38110  Biso   1.000  C
  C185     1.0000 0.46090  0.89220  0.84360  Biso   1.000  C
  C186     1.0000 0.96090  0.39220  0.84360  Biso   1.000  C
  C187     1.0000 0.53910  0.89220  0.65640  Biso   1.000  C
  C188     1.0000 0.03910  0.39220  0.65640  Biso   1.000  C
  C189     1.0000 0.53910  0.10780  0.15640  Biso   1.000  C
  C190     1.0000 0.03910  0.60780  0.15640  Biso   1.000  C
  C191     1.0000 0.46090  0.10780  0.34360  Biso   1.000  C
  C192     1.0000 0.96090  0.60780  0.34360  Biso   1.000  C
  H129     1.0000 0.46150  0.86140  0.88170  Biso   1.000  H
  H130     1.0000 0.96150  0.36140  0.88170  Biso   1.000  H
  H131     1.0000 0.53850  0.86140  0.61830  Biso   1.000  H
  H132     1.0000 0.03850  0.36140  0.61830  Biso   1.000  H
  H133     1.0000 0.53850  0.13860  0.11830  Biso   1.000  H
  H134     1.0000 0.03850  0.63860  0.11830  Biso   1.000  H
  H135     1.0000 0.46150  0.13860  0.38170  Biso   1.000  H
  H136     1.0000 0.96150  0.63860  0.38170  Biso   1.000  H
  H137     1.0000 0.45780  0.85280  0.80920  Biso   1.000  H
  H138     1.0000 0.95780  0.35280  0.80920  Biso   1.000  H
  H139     1.0000 0.54220  0.85280  0.69080  Biso   1.000  H
  H140     1.0000 0.04220  0.35280  0.69080  Biso   1.000  H
  H141     1.0000 0.54220  0.14720  0.19080  Biso   1.000  H
  H142     1.0000 0.04220  0.64720  0.19080  Biso   1.000  H
  H143     1.0000 0.45780  0.14720  0.30920  Biso   1.000  H
  H144     1.0000 0.95780  0.64720  0.30920  Biso   1.000  H
  H145     1.0000 0.47730  0.92120  0.84570  Biso   1.000  H
  H146     1.0000 0.97730  0.42120  0.84570  Biso   1.000  H
  H147     1.0000 0.52270  0.92120  0.65430  Biso   1.000  H
  H148     1.0000 0.02270  0.42120  0.65430  Biso   1.000  H
  H149     1.0000 0.52270  0.07880  0.15430  Biso   1.000  H
  H150     1.0000 0.02270  0.57880  0.15430  Biso   1.000  H
  H151     1.0000 0.47730  0.07880  0.34570  Biso   1.000  H
  H152     1.0000 0.97730  0.57880  0.34570  Biso   1.000  H
  C193     1.0000 0.47190  0.06500  0.04150  Biso   1.000  C
  C194     1.0000 0.97190  0.56500  0.04150  Biso   1.000  C
  C195     1.0000 0.52810  0.06500  0.45850  Biso   1.000  C
  C196     1.0000 0.02810  0.56500  0.45850  Biso   1.000  C
  C197     1.0000 0.52810  0.93500  0.95850  Biso   1.000  C
  C198     1.0000 0.02810  0.43500  0.95850  Biso   1.000  C
  C199     1.0000 0.47190  0.93500  0.54150  Biso   1.000  C
  C200     1.0000 0.97190  0.43500  0.54150  Biso   1.000  C
  H153     1.0000 0.47210  0.12160  0.05990  Biso   1.000  H
  H154     1.0000 0.97210  0.62160  0.05990  Biso   1.000  H
  H155     1.0000 0.52790  0.12160  0.44010  Biso   1.000  H
  H156     1.0000 0.02790  0.62160  0.44010  Biso   1.000  H
  H157     1.0000 0.52790  0.87840  0.94010  Biso   1.000  H
  H158     1.0000 0.02790  0.37840  0.94010  Biso   1.000  H
  H159     1.0000 0.47210  0.87840  0.55990  Biso   1.000  H
  H160     1.0000 0.97210  0.37840  0.55990  Biso   1.000  H
  H161     1.0000 0.48890  0.05630  0.03180  Biso   1.000  H
  H162     1.0000 0.98890  0.55630  0.03180  Biso   1.000  H
  H163     1.0000 0.51110  0.05630  0.46820  Biso   1.000  H
  H164     1.0000 0.01110  0.55630  0.46820  Biso   1.000  H
  H165     1.0000 0.51110  0.94370  0.96820  Biso   1.000  H
  H166     1.0000 0.01110  0.44370  0.96820  Biso   1.000  H
  H167     1.0000 0.48890  0.94370  0.53180  Biso   1.000  H
  H168     1.0000 0.98890  0.44370  0.53180  Biso   1.000  H
  C201     1.0000 0.29992  0.66900  0.83290  Biso   1.000  C
  C202     1.0000 0.79992  0.16900  0.83290  Biso   1.000  C
  C203     1.0000 0.70008  0.66900  0.66710  Biso   1.000  C
  C204     1.0000 0.20008  0.16900  0.66710  Biso   1.000  C
  C205     1.0000 0.70008  0.33100  0.16710  Biso   1.000  C
  C206     1.0000 0.20008  0.83100  0.16710  Biso   1.000  C
  C207     1.0000 0.29992  0.33100  0.33290  Biso   1.000  C
  C208     1.0000 0.79992  0.83100  0.33290  Biso   1.000  C
  H169     1.0000 0.29080  0.61920  0.84390  Biso   1.000  H
  H170     1.0000 0.79080  0.11920  0.84390  Biso   1.000  H
  H171     1.0000 0.70920  0.61920  0.65610  Biso   1.000  H
  H172     1.0000 0.20920  0.11920  0.65610  Biso   1.000  H
  H173     1.0000 0.70920  0.38080  0.15610  Biso   1.000  H
  H174     1.0000 0.20920  0.88080  0.15610  Biso   1.000  H
  H175     1.0000 0.29080  0.38080  0.34390  Biso   1.000  H
  H176     1.0000 0.79080  0.88080  0.34390  Biso   1.000  H
  H177     1.0000 0.29560  0.67470  0.78780  Biso   1.000  H
  H178     1.0000 0.79560  0.17470  0.78780  Biso   1.000  H
  H179     1.0000 0.70440  0.67470  0.71220  Biso   1.000  H
  H180     1.0000 0.20440  0.17470  0.71220  Biso   1.000  H
  H181     1.0000 0.70440  0.32530  0.21220  Biso   1.000  H
  H182     1.0000 0.20440  0.82530  0.21220  Biso   1.000  H
  H183     1.0000 0.29560  0.32530  0.28780  Biso   1.000  H
  H184     1.0000 0.79560  0.82530  0.28780  Biso   1.000  H
  C209     1.0000 0.32870  0.65720  0.85520  Biso   1.000  C
  C210     1.0000 0.82870  0.15720  0.85520  Biso   1.000  C
  C211     1.0000 0.67130  0.65720  0.64480  Biso   1.000  C
  C212     1.0000 0.17130  0.15720  0.64480  Biso   1.000  C
  C213     1.0000 0.67130  0.34280  0.14480  Biso   1.000  C
  C214     1.0000 0.17130  0.84280  0.14480  Biso   1.000  C
  C215     1.0000 0.32870  0.34280  0.35520  Biso   1.000  C
  C216     1.0000 0.82870  0.84280  0.35520  Biso   1.000  C
  C217     1.0000 0.34390  0.70310  0.82240  Biso   1.000  C
  C218     1.0000 0.84390  0.20310  0.82240  Biso   1.000  C
  C219     1.0000 0.65610  0.70310  0.67760  Biso   1.000  C
  C220     1.0000 0.15610  0.20310  0.67760  Biso   1.000  C
  C221     1.0000 0.65610  0.29690  0.17760  Biso   1.000  C
  C222     1.0000 0.15610  0.79690  0.17760  Biso   1.000  C
  C223     1.0000 0.34390  0.29690  0.32240  Biso   1.000  C
  C224     1.0000 0.84390  0.79690  0.32240  Biso   1.000  C
  H185     1.0000 0.33560  0.73270  0.78670  Biso   1.000  H
  H186     1.0000 0.83560  0.23270  0.78670  Biso   1.000  H
  H187     1.0000 0.66440  0.73270  0.71330  Biso   1.000  H
  H188     1.0000 0.16440  0.23270  0.71330  Biso   1.000  H
  H189     1.0000 0.66440  0.26730  0.21330  Biso   1.000  H
  H190     1.0000 0.16440  0.76730  0.21330  Biso   1.000  H
  H191     1.0000 0.33560  0.26730  0.28670  Biso   1.000  H
  H192     1.0000 0.83560  0.76730  0.28670  Biso   1.000  H
  C225     1.0000 0.36910  0.70650  0.83920  Biso   1.000  C
  C226     1.0000 0.86910  0.20650  0.83920  Biso   1.000  C
  C227     1.0000 0.63090  0.70650  0.66080  Biso   1.000  C
  C228     1.0000 0.13090  0.20650  0.66080  Biso   1.000  C
  C229     1.0000 0.63090  0.29350  0.16080  Biso   1.000  C
  C230     1.0000 0.13090  0.79350  0.16080  Biso   1.000  C
  C231     1.0000 0.36910  0.29350  0.33920  Biso   1.000  C
  C232     1.0000 0.86910  0.79350  0.33920  Biso   1.000  C
  C233     1.0000 0.38097  0.66140  0.88940  Biso   1.000  C
  C234     1.0000 0.88097  0.16140  0.88940  Biso   1.000  C
  C235     1.0000 0.61903  0.66140  0.61060  Biso   1.000  C
  C236     1.0000 0.11903  0.16140  0.61060  Biso   1.000  C
  C237     1.0000 0.61903  0.33860  0.11060  Biso   1.000  C
  C238     1.0000 0.11903  0.83860  0.11060  Biso   1.000  C
  C239     1.0000 0.38097  0.33860  0.38940  Biso   1.000  C
  C240     1.0000 0.88097  0.83860  0.38940  Biso   1.000  C
  C241     1.0000 0.36670  0.61220  0.92260  Biso   1.000  C
  C242     1.0000 0.86670  0.11220  0.92260  Biso   1.000  C
  C243     1.0000 0.63330  0.61220  0.57740  Biso   1.000  C
  C244     1.0000 0.13330  0.11220  0.57740  Biso   1.000  C
  C245     1.0000 0.63330  0.38780  0.07740  Biso   1.000  C
  C246     1.0000 0.13330  0.88780  0.07740  Biso   1.000  C
  C247     1.0000 0.36670  0.38780  0.42260  Biso   1.000  C
  C248     1.0000 0.86670  0.88780  0.42260  Biso   1.000  C
  H193     1.0000 0.37530  0.57960  0.95650  Biso   1.000  H
  H194     1.0000 0.87530  0.07960  0.95650  Biso   1.000  H
  H195     1.0000 0.62470  0.57960  0.54350  Biso   1.000  H
  H196     1.0000 0.12470  0.07960  0.54350  Biso   1.000  H
  H197     1.0000 0.62470  0.42040  0.04350  Biso   1.000  H
  H198     1.0000 0.12470  0.92040  0.04350  Biso   1.000  H
  H199     1.0000 0.37530  0.42040  0.45650  Biso   1.000  H
  H200     1.0000 0.87530  0.92040  0.45650  Biso   1.000  H
  C249     1.0000 0.34002  0.61180  0.90540  Biso   1.000  C
  C250     1.0000 0.84002  0.11180  0.90540  Biso   1.000  C
  C251     1.0000 0.65998  0.61180  0.59460  Biso   1.000  C
  C252     1.0000 0.15998  0.11180  0.59460  Biso   1.000  C
  C253     1.0000 0.65998  0.38820  0.09460  Biso   1.000  C
  C254     1.0000 0.15998  0.88820  0.09460  Biso   1.000  C
  C255     1.0000 0.34002  0.38820  0.40540  Biso   1.000  C
  C256     1.0000 0.84002  0.88820  0.40540  Biso   1.000  C
  C257     1.0000 0.37280  0.80400  0.75060  Biso   1.000  C
  C258     1.0000 0.87280  0.30400  0.75060  Biso   1.000  C
  C259     1.0000 0.62720  0.80400  0.74940  Biso   1.000  C
  C260     1.0000 0.12720  0.30400  0.74940  Biso   1.000  C
  C261     1.0000 0.62720  0.19600  0.24940  Biso   1.000  C
  C262     1.0000 0.12720  0.69600  0.24940  Biso   1.000  C
  C263     1.0000 0.37280  0.19600  0.25060  Biso   1.000  C
  C264     1.0000 0.87280  0.69600  0.25060  Biso   1.000  C
  H201     1.0000 0.37800  0.78280  0.71430  Biso   1.000  H
  H202     1.0000 0.87800  0.28280  0.71430  Biso   1.000  H
  H203     1.0000 0.62200  0.78280  0.78570  Biso   1.000  H
  H204     1.0000 0.12200  0.28280  0.78570  Biso   1.000  H
  H205     1.0000 0.62200  0.21720  0.28570  Biso   1.000  H
  H206     1.0000 0.12200  0.71720  0.28570  Biso   1.000  H
  H207     1.0000 0.37800  0.21720  0.21430  Biso   1.000  H
  H208     1.0000 0.87800  0.71720  0.21430  Biso   1.000  H
  H209     1.0000 0.35410  0.80060  0.74470  Biso   1.000  H
  H210     1.0000 0.85410  0.30060  0.74470  Biso   1.000  H
  H211     1.0000 0.64590  0.80060  0.75530  Biso   1.000  H
  H212     1.0000 0.14590  0.30060  0.75530  Biso   1.000  H
  H213     1.0000 0.64590  0.19940  0.25530  Biso   1.000  H
  H214     1.0000 0.14590  0.69940  0.25530  Biso   1.000  H
  H215     1.0000 0.35410  0.19940  0.24470  Biso   1.000  H
  H216     1.0000 0.85410  0.69940  0.24470  Biso   1.000  H
  H217     1.0000 0.37820  0.86320  0.75710  Biso   1.000  H
  H218     1.0000 0.87820  0.36320  0.75710  Biso   1.000  H
  H219     1.0000 0.62180  0.86320  0.74290  Biso   1.000  H
  H220     1.0000 0.12180  0.36320  0.74290  Biso   1.000  H
  H221     1.0000 0.62180  0.13680  0.24290  Biso   1.000  H
  H222     1.0000 0.12180  0.63680  0.24290  Biso   1.000  H
  H223     1.0000 0.37820  0.13680  0.25710  Biso   1.000  H
  H224     1.0000 0.87820  0.63680  0.25710  Biso   1.000  H
  C265     1.0000 0.42210  0.64010  0.96280  Biso   1.000  C
  C266     1.0000 0.92210  0.14010  0.96280  Biso   1.000  C
  C267     1.0000 0.57790  0.64010  0.53720  Biso   1.000  C
  C268     1.0000 0.07790  0.14010  0.53720  Biso   1.000  C
  C269     1.0000 0.57790  0.35990  0.03720  Biso   1.000  C
  C270     1.0000 0.07790  0.85990  0.03720  Biso   1.000  C
  C271     1.0000 0.42210  0.35990  0.46280  Biso   1.000  C
  C272     1.0000 0.92210  0.85990  0.46280  Biso   1.000  C
  H225     1.0000 0.41250  0.67060  0.98900  Biso   1.000  H
  H226     1.0000 0.91250  0.17060  0.98900  Biso   1.000  H
  H227     1.0000 0.58750  0.67060  0.51100  Biso   1.000  H
  H228     1.0000 0.08750  0.17060  0.51100  Biso   1.000  H
  H229     1.0000 0.58750  0.32940  0.01100  Biso   1.000  H
  H230     1.0000 0.08750  0.82940  0.01100  Biso   1.000  H
  H231     1.0000 0.41250  0.32940  0.48900  Biso   1.000  H
  H232     1.0000 0.91250  0.82940  0.48900  Biso   1.000  H
  H233     1.0000 0.42540  0.58250  0.97950  Biso   1.000  H
  H234     1.0000 0.92540  0.08250  0.97950  Biso   1.000  H
  H235     1.0000 0.57460  0.58250  0.52050  Biso   1.000  H
  H236     1.0000 0.07460  0.08250  0.52050  Biso   1.000  H
  H237     1.0000 0.57460  0.41750  0.02050  Biso   1.000  H
  H238     1.0000 0.07460  0.91750  0.02050  Biso   1.000  H
  H239     1.0000 0.42540  0.41750  0.47950  Biso   1.000  H
  H240     1.0000 0.92540  0.91750  0.47950  Biso   1.000  H
  C273     1.0000 0.44875  0.68500  0.96770  Biso   1.000  C
  C274     1.0000 0.94875  0.18500  0.96770  Biso   1.000  C
  C275     1.0000 0.55125  0.68500  0.53230  Biso   1.000  C
  C276     1.0000 0.05125  0.18500  0.53230  Biso   1.000  C
  C277     1.0000 0.55125  0.31500  0.03230  Biso   1.000  C
  C278     1.0000 0.05125  0.81500  0.03230  Biso   1.000  C
  C279     1.0000 0.44875  0.31500  0.46770  Biso   1.000  C
  C280     1.0000 0.94875  0.81500  0.46770  Biso   1.000  C
  C281     1.0000 0.46310  0.71660  0.02320  Biso   1.000  C
  C282     1.0000 0.96310  0.21660  0.02320  Biso   1.000  C
  C283     1.0000 0.53690  0.71660  0.47680  Biso   1.000  C
  C284     1.0000 0.03690  0.21660  0.47680  Biso   1.000  C
  C285     1.0000 0.53690  0.28340  0.97680  Biso   1.000  C
  C286     1.0000 0.03690  0.78340  0.97680  Biso   1.000  C
  C287     1.0000 0.46310  0.28340  0.52320  Biso   1.000  C
  C288     1.0000 0.96310  0.78340  0.52320  Biso   1.000  C
  H241     1.0000 0.45500  0.72480  0.05640  Biso   1.000  H
  H242     1.0000 0.95500  0.22480  0.05640  Biso   1.000  H
  H243     1.0000 0.54500  0.72480  0.44360  Biso   1.000  H
  H244     1.0000 0.04500  0.22480  0.44360  Biso   1.000  H
  H245     1.0000 0.54500  0.27520  0.94360  Biso   1.000  H
  H246     1.0000 0.04500  0.77520  0.94360  Biso   1.000  H
  H247     1.0000 0.45500  0.27520  0.55640  Biso   1.000  H
  H248     1.0000 0.95500  0.77520  0.55640  Biso   1.000  H
  C289     1.0000 0.48880  0.73600  0.03050  Biso   1.000  C
  C290     1.0000 0.98880  0.23600  0.03050  Biso   1.000  C
  C291     1.0000 0.51120  0.73600  0.46950  Biso   1.000  C
  C292     1.0000 0.01120  0.23600  0.46950  Biso   1.000  C
  C293     1.0000 0.51120  0.26400  0.96950  Biso   1.000  C
  C294     1.0000 0.01120  0.76400  0.96950  Biso   1.000  C
  C295     1.0000 0.48880  0.26400  0.53050  Biso   1.000  C
  C296     1.0000 0.98880  0.76400  0.53050  Biso   1.000  C
  C297     1.0000 0.49961  0.72500  0.98000  Biso   1.000  C
  C298     1.0000 0.99961  0.22500  0.98000  Biso   1.000  C
  C299     1.0000 0.50039  0.72500  0.52000  Biso   1.000  C
  C300     1.0000 0.00039  0.22500  0.52000  Biso   1.000  C
  C301     1.0000 0.50039  0.27500  0.02000  Biso   1.000  C
  C302     1.0000 0.00039  0.77500  0.02000  Biso   1.000  C
  C303     1.0000 0.49961  0.27500  0.48000  Biso   1.000  C
  C304     1.0000 0.99961  0.77500  0.48000  Biso   1.000  C
  H249     1.0000 0.51730  0.73810  0.98410  Biso   1.000  H
  H250     1.0000 0.01730  0.23810  0.98410  Biso   1.000  H
  H251     1.0000 0.48270  0.73810  0.51590  Biso   1.000  H
  H252     1.0000 0.98270  0.23810  0.51590  Biso   1.000  H
  H253     1.0000 0.48270  0.26190  0.01590  Biso   1.000  H
  H254     1.0000 0.98270  0.76190  0.01590  Biso   1.000  H
  H255     1.0000 0.51730  0.26190  0.48410  Biso   1.000  H
  H256     1.0000 0.01730  0.76190  0.48410  Biso   1.000  H
  C305     1.0000 0.48614  0.69650  0.92520  Biso   1.000  C
  C306     1.0000 0.98614  0.19650  0.92520  Biso   1.000  C
  C307     1.0000 0.51386  0.69650  0.57480  Biso   1.000  C
  C308     1.0000 0.01386  0.19650  0.57480  Biso   1.000  C
  C309     1.0000 0.51386  0.30350  0.07480  Biso   1.000  C
  C310     1.0000 0.01386  0.80350  0.07480  Biso   1.000  C
  C311     1.0000 0.48614  0.30350  0.42520  Biso   1.000  C
  C312     1.0000 0.98614  0.80350  0.42520  Biso   1.000  C
  C313     1.0000 0.46125  0.67710  0.91650  Biso   1.000  C
  C314     1.0000 0.96125  0.17710  0.91650  Biso   1.000  C
  C315     1.0000 0.53875  0.67710  0.58350  Biso   1.000  C
  C316     1.0000 0.03875  0.17710  0.58350  Biso   1.000  C
  C317     1.0000 0.53875  0.32290  0.08350  Biso   1.000  C
  C318     1.0000 0.03875  0.82290  0.08350  Biso   1.000  C
  C319     1.0000 0.46125  0.32290  0.41650  Biso   1.000  C
  C320     1.0000 0.96125  0.82290  0.41650  Biso   1.000  C
  H257     1.0000 0.45190  0.65840  0.87780  Biso   1.000  H
  H258     1.0000 0.95190  0.15840  0.87780  Biso   1.000  H
  H259     1.0000 0.54810  0.65840  0.62220  Biso   1.000  H
  H260     1.0000 0.04810  0.15840  0.62220  Biso   1.000  H
  H261     1.0000 0.54810  0.34160  0.12220  Biso   1.000  H
  H262     1.0000 0.04810  0.84160  0.12220  Biso   1.000  H
  H263     1.0000 0.45190  0.34160  0.37780  Biso   1.000  H
  H264     1.0000 0.95190  0.84160  0.37780  Biso   1.000  H
  C321     1.0000 0.50100  0.68730  0.87400  Biso   1.000  C
  C322     1.0000 0.00100  0.18730  0.87400  Biso   1.000  C
  C323     1.0000 0.49900  0.68730  0.62600  Biso   1.000  C
  C324     1.0000 0.99900  0.18730  0.62600  Biso   1.000  C
  C325     1.0000 0.49900  0.31270  0.12600  Biso   1.000  C
  C326     1.0000 0.99900  0.81270  0.12600  Biso   1.000  C
  C327     1.0000 0.50100  0.31270  0.37400  Biso   1.000  C
  C328     1.0000 0.00100  0.81270  0.37400  Biso   1.000  C
  C329     1.0000 0.50425  0.76150  0.08990  Biso   1.000  C
  C330     1.0000 0.00425  0.26150  0.08990  Biso   1.000  C
  C331     1.0000 0.49575  0.76150  0.41010  Biso   1.000  C
  C332     1.0000 0.99575  0.26150  0.41010  Biso   1.000  C
  C333     1.0000 0.49575  0.23850  0.91010  Biso   1.000  C
  C334     1.0000 0.99575  0.73850  0.91010  Biso   1.000  C
  C335     1.0000 0.50425  0.23850  0.58990  Biso   1.000  C
  C336     1.0000 0.00425  0.73850  0.58990  Biso   1.000  C
  H265     1.0000 0.51490  0.81020  0.08370  Biso   1.000  H
  H266     1.0000 0.01490  0.31020  0.08370  Biso   1.000  H
  H267     1.0000 0.48510  0.81020  0.41630  Biso   1.000  H
  H268     1.0000 0.98510  0.31020  0.41630  Biso   1.000  H
  H269     1.0000 0.48510  0.18980  0.91630  Biso   1.000  H
  H270     1.0000 0.98510  0.68980  0.91630  Biso   1.000  H
  H271     1.0000 0.51490  0.18980  0.58370  Biso   1.000  H
  H272     1.0000 0.01490  0.68980  0.58370  Biso   1.000  H
  H273     1.0000 0.51610  0.71490  0.10630  Biso   1.000  H
  H274     1.0000 0.01610  0.21490  0.10630  Biso   1.000  H
  H275     1.0000 0.48390  0.71490  0.39370  Biso   1.000  H
  H276     1.0000 0.98390  0.21490  0.39370  Biso   1.000  H
  H277     1.0000 0.48390  0.28510  0.89370  Biso   1.000  H
  H278     1.0000 0.98390  0.78510  0.89370  Biso   1.000  H
  H279     1.0000 0.51610  0.28510  0.60630  Biso   1.000  H
  H280     1.0000 0.01610  0.78510  0.60630  Biso   1.000  H
  C337     1.0000 0.47840  0.86100  0.12930  Biso   1.000  C
  C338     1.0000 0.97840  0.36100  0.12930  Biso   1.000  C
  C339     1.0000 0.52160  0.86100  0.37070  Biso   1.000  C
  C340     1.0000 0.02160  0.36100  0.37070  Biso   1.000  C
  C341     1.0000 0.52160  0.13900  0.87070  Biso   1.000  C
  C342     1.0000 0.02160  0.63900  0.87070  Biso   1.000  C
  C343     1.0000 0.47840  0.13900  0.62930  Biso   1.000  C
  C344     1.0000 0.97840  0.63900  0.62930  Biso   1.000  C
  C345     1.0000 0.48001  0.92020  0.08820  Biso   1.000  C
  C346     1.0000 0.98001  0.42020  0.08820  Biso   1.000  C
  C347     1.0000 0.51999  0.92020  0.41180  Biso   1.000  C
  C348     1.0000 0.01999  0.42020  0.41180  Biso   1.000  C
  C349     1.0000 0.51999  0.07980  0.91180  Biso   1.000  C
  C350     1.0000 0.01999  0.57980  0.91180  Biso   1.000  C
  C351     1.0000 0.48001  0.07980  0.58820  Biso   1.000  C
  C352     1.0000 0.98001  0.57980  0.58820  Biso   1.000  C
  H281     1.0000 0.48880  0.90690  0.05680  Biso   1.000  H
  H282     1.0000 0.98880  0.40690  0.05680  Biso   1.000  H
  H283     1.0000 0.51120  0.90690  0.44320  Biso   1.000  H
  H284     1.0000 0.01120  0.40690  0.44320  Biso   1.000  H
  H285     1.0000 0.51120  0.09310  0.94320  Biso   1.000  H
  H286     1.0000 0.01120  0.59310  0.94320  Biso   1.000  H
  H287     1.0000 0.48880  0.09310  0.55680  Biso   1.000  H
  H288     1.0000 0.98880  0.59310  0.55680  Biso   1.000  H
  C353     1.0000 0.46921  0.00270  0.08880  Biso   1.000  C
  C354     1.0000 0.96921  0.50270  0.08880  Biso   1.000  C
  C355     1.0000 0.53079  0.00270  0.41120  Biso   1.000  C
  C356     1.0000 0.03079  0.50270  0.41120  Biso   1.000  C
  C357     1.0000 0.53079  0.99730  0.91120  Biso   1.000  C
  C358     1.0000 0.03079  0.49730  0.91120  Biso   1.000  C
  C359     1.0000 0.46921  0.99730  0.58880  Biso   1.000  C
  C360     1.0000 0.96921  0.49730  0.58880  Biso   1.000  C
  C361     1.0000 0.45702  0.01960  0.13790  Biso   1.000  C
  C362     1.0000 0.95702  0.51960  0.13790  Biso   1.000  C
  C363     1.0000 0.54298  0.01960  0.36210  Biso   1.000  C
  C364     1.0000 0.04298  0.51960  0.36210  Biso   1.000  C
  C365     1.0000 0.54298  0.98040  0.86210  Biso   1.000  C
  C366     1.0000 0.04298  0.48040  0.86210  Biso   1.000  C
  C367     1.0000 0.45702  0.98040  0.63790  Biso   1.000  C
  C368     1.0000 0.95702  0.48040  0.63790  Biso   1.000  C
  C369     1.0000 0.45584  0.95870  0.18010  Biso   1.000  C
  C370     1.0000 0.95584  0.45870  0.18010  Biso   1.000  C
  C371     1.0000 0.54416  0.95870  0.31990  Biso   1.000  C
  C372     1.0000 0.04416  0.45870  0.31990  Biso   1.000  C
  C373     1.0000 0.54416  0.04130  0.81990  Biso   1.000  C
  C374     1.0000 0.04416  0.54130  0.81990  Biso   1.000  C
  C375     1.0000 0.45584  0.04130  0.68010  Biso   1.000  C
  C376     1.0000 0.95584  0.54130  0.68010  Biso   1.000  C
  H289     1.0000 0.44800  0.97170  0.21310  Biso   1.000  H
  H290     1.0000 0.94800  0.47170  0.21310  Biso   1.000  H
  H291     1.0000 0.55200  0.97170  0.28690  Biso   1.000  H
  H292     1.0000 0.05200  0.47170  0.28690  Biso   1.000  H
  H293     1.0000 0.55200  0.02830  0.78690  Biso   1.000  H
  H294     1.0000 0.05200  0.52830  0.78690  Biso   1.000  H
  H295     1.0000 0.44800  0.02830  0.71310  Biso   1.000  H
  H296     1.0000 0.94800  0.52830  0.71310  Biso   1.000  H
  C377     1.0000 0.46551  0.88020  0.17660  Biso   1.000  C
  C378     1.0000 0.96551  0.38020  0.17660  Biso   1.000  C
  C379     1.0000 0.53449  0.88020  0.32340  Biso   1.000  C
  C380     1.0000 0.03449  0.38020  0.32340  Biso   1.000  C
  C381     1.0000 0.53449  0.11980  0.82340  Biso   1.000  C
  C382     1.0000 0.03449  0.61980  0.82340  Biso   1.000  C
  C383     1.0000 0.46551  0.11980  0.67660  Biso   1.000  C
  C384     1.0000 0.96551  0.61980  0.67660  Biso   1.000  C
  C385     1.0000 0.45640  0.83250  0.27050  Biso   1.000  C
  C386     1.0000 0.95640  0.33250  0.27050  Biso   1.000  C
  C387     1.0000 0.54360  0.83250  0.22950  Biso   1.000  C
  C388     1.0000 0.04360  0.33250  0.22950  Biso   1.000  C
  C389     1.0000 0.54360  0.16750  0.72950  Biso   1.000  C
  C390     1.0000 0.04360  0.66750  0.72950  Biso   1.000  C
  C391     1.0000 0.45640  0.16750  0.77050  Biso   1.000  C
  C392     1.0000 0.95640  0.66750  0.77050  Biso   1.000  C
  H297     1.0000 0.43750  0.83380  0.26010  Biso   1.000  H
  H298     1.0000 0.93750  0.33380  0.26010  Biso   1.000  H
  H299     1.0000 0.56250  0.83380  0.23990  Biso   1.000  H
  H300     1.0000 0.06250  0.33380  0.23990  Biso   1.000  H
  H301     1.0000 0.56250  0.16620  0.73990  Biso   1.000  H
  H302     1.0000 0.06250  0.66620  0.73990  Biso   1.000  H
  H303     1.0000 0.43750  0.16620  0.76010  Biso   1.000  H
  H304     1.0000 0.93750  0.66620  0.76010  Biso   1.000  H
  H305     1.0000 0.46220  0.78900  0.30140  Biso   1.000  H
  H306     1.0000 0.96220  0.28900  0.30140  Biso   1.000  H
  H307     1.0000 0.53780  0.78900  0.19860  Biso   1.000  H
  H308     1.0000 0.03780  0.28900  0.19860  Biso   1.000  H
  H309     1.0000 0.53780  0.21100  0.69860  Biso   1.000  H
  H310     1.0000 0.03780  0.71100  0.69860  Biso   1.000  H
  H311     1.0000 0.46220  0.21100  0.80140  Biso   1.000  H
  H312     1.0000 0.96220  0.71100  0.80140  Biso   1.000  H
  H313     1.0000 0.46300  0.88730  0.28670  Biso   1.000  H
  H314     1.0000 0.96300  0.38730  0.28670  Biso   1.000  H
  H315     1.0000 0.53700  0.88730  0.21330  Biso   1.000  H
  H316     1.0000 0.03700  0.38730  0.21330  Biso   1.000  H
  H317     1.0000 0.53700  0.11270  0.71330  Biso   1.000  H
  H318     1.0000 0.03700  0.61270  0.71330  Biso   1.000  H
  H319     1.0000 0.46300  0.11270  0.78670  Biso   1.000  H
  H320     1.0000 0.96300  0.61270  0.78670  Biso   1.000  H
  C393     1.0000 0.44489  0.10360  0.14210  Biso   1.000  C
  C394     1.0000 0.94489  0.60360  0.14210  Biso   1.000  C
  C395     1.0000 0.55511  0.10360  0.35790  Biso   1.000  C
  C396     1.0000 0.05511  0.60360  0.35790  Biso   1.000  C
  C397     1.0000 0.55511  0.89640  0.85790  Biso   1.000  C
  C398     1.0000 0.05511  0.39640  0.85790  Biso   1.000  C
  C399     1.0000 0.44489  0.89640  0.64210  Biso   1.000  C
  C400     1.0000 0.94489  0.39640  0.64210  Biso   1.000  C
  H321     1.0000 0.45510  0.14670  0.12600  Biso   1.000  H
  H322     1.0000 0.95510  0.64670  0.12600  Biso   1.000  H
  H323     1.0000 0.54490  0.14670  0.37400  Biso   1.000  H
  H324     1.0000 0.04490  0.64670  0.37400  Biso   1.000  H
  H325     1.0000 0.54490  0.85330  0.87400  Biso   1.000  H
  H326     1.0000 0.04490  0.35330  0.87400  Biso   1.000  H
  H327     1.0000 0.45510  0.85330  0.62600  Biso   1.000  H
  H328     1.0000 0.95510  0.35330  0.62600  Biso   1.000  H
  H329     1.0000 0.44600  0.11650  0.18570  Biso   1.000  H
  H330     1.0000 0.94600  0.61650  0.18570  Biso   1.000  H
  H331     1.0000 0.55400  0.11650  0.31430  Biso   1.000  H
  H332     1.0000 0.05400  0.61650  0.31430  Biso   1.000  H
  H333     1.0000 0.55400  0.88350  0.81430  Biso   1.000  H
  H334     1.0000 0.05400  0.38350  0.81430  Biso   1.000  H
  H335     1.0000 0.44600  0.88350  0.68570  Biso   1.000  H
  H336     1.0000 0.94600  0.38350  0.68570  Biso   1.000  H
  C401     1.0000 0.32512  0.55880  0.93950  Biso   1.000  C
  C402     1.0000 0.82512  0.05880  0.93950  Biso   1.000  C
  C403     1.0000 0.67488  0.55880  0.56050  Biso   1.000  C
  C404     1.0000 0.17488  0.05880  0.56050  Biso   1.000  C
  C405     1.0000 0.67488  0.44120  0.06050  Biso   1.000  C
  C406     1.0000 0.17488  0.94120  0.06050  Biso   1.000  C
  C407     1.0000 0.32512  0.44120  0.43950  Biso   1.000  C
  C408     1.0000 0.82512  0.94120  0.43950  Biso   1.000  C
  H337     1.0000 0.30790  0.54850  0.91320  Biso   1.000  H
  H338     1.0000 0.80790  0.04850  0.91320  Biso   1.000  H
  H339     1.0000 0.69210  0.54850  0.58680  Biso   1.000  H
  H340     1.0000 0.19210  0.04850  0.58680  Biso   1.000  H
  H341     1.0000 0.69210  0.45150  0.08680  Biso   1.000  H
  H342     1.0000 0.19210  0.95150  0.08680  Biso   1.000  H
  H343     1.0000 0.30790  0.45150  0.41320  Biso   1.000  H
  H344     1.0000 0.80790  0.95150  0.41320  Biso   1.000  H
  H345     1.0000 0.33380  0.50370  0.94780  Biso   1.000  H
  H346     1.0000 0.83380  0.00370  0.94780  Biso   1.000  H
  H347     1.0000 0.66620  0.50370  0.55220  Biso   1.000  H
  H348     1.0000 0.16620  0.00370  0.55220  Biso   1.000  H
  H349     1.0000 0.66620  0.49630  0.05220  Biso   1.000  H
  H350     1.0000 0.16620  0.99630  0.05220  Biso   1.000  H
  H351     1.0000 0.33380  0.49630  0.44780  Biso   1.000  H
  H352     1.0000 0.83380  0.99630  0.44780  Biso   1.000  H
  C409     1.0000 0.32170  0.59650  0.00090  Biso   1.000  C
  C410     1.0000 0.82170  0.09650  0.00090  Biso   1.000  C
  C411     1.0000 0.67830  0.59650  0.49910  Biso   1.000  C
  C412     1.0000 0.17830  0.09650  0.49910  Biso   1.000  C
  C413     1.0000 0.67830  0.40350  0.99910  Biso   1.000  C
  C414     1.0000 0.17830  0.90350  0.99910  Biso   1.000  C
  C415     1.0000 0.32170  0.40350  0.50090  Biso   1.000  C
  C416     1.0000 0.82170  0.90350  0.50090  Biso   1.000  C
  C417     1.0000 0.33930  0.57850  0.05370  Biso   1.000  C
  C418     1.0000 0.83930  0.07850  0.05370  Biso   1.000  C
  C419     1.0000 0.66070  0.57850  0.44630  Biso   1.000  C
  C420     1.0000 0.16070  0.07850  0.44630  Biso   1.000  C
  C421     1.0000 0.66070  0.42150  0.94630  Biso   1.000  C
  C422     1.0000 0.16070  0.92150  0.94630  Biso   1.000  C
  C423     1.0000 0.33930  0.42150  0.55370  Biso   1.000  C
  C424     1.0000 0.83930  0.92150  0.55370  Biso   1.000  C
  H353     1.0000 0.35420  0.54630  0.05200  Biso   1.000  H
  H354     1.0000 0.85420  0.04630  0.05200  Biso   1.000  H
  H355     1.0000 0.64580  0.54630  0.44800  Biso   1.000  H
  H356     1.0000 0.14580  0.04630  0.44800  Biso   1.000  H
  H357     1.0000 0.64580  0.45370  0.94800  Biso   1.000  H
  H358     1.0000 0.14580  0.95370  0.94800  Biso   1.000  H
  H359     1.0000 0.35420  0.45370  0.55200  Biso   1.000  H
  H360     1.0000 0.85420  0.95370  0.55200  Biso   1.000  H
  C425     1.0000 0.33580  0.60590  0.10720  Biso   1.000  C
  C426     1.0000 0.83580  0.10590  0.10720  Biso   1.000  C
  C427     1.0000 0.66420  0.60590  0.39280  Biso   1.000  C
  C428     1.0000 0.16420  0.10590  0.39280  Biso   1.000  C
  C429     1.0000 0.66420  0.39410  0.89280  Biso   1.000  C
  C430     1.0000 0.16420  0.89410  0.89280  Biso   1.000  C
  C431     1.0000 0.33580  0.39410  0.60720  Biso   1.000  C
  C432     1.0000 0.83580  0.89410  0.60720  Biso   1.000  C
  C433     1.0000 0.31500  0.65270  0.11350  Biso   1.000  C
  C434     1.0000 0.81500  0.15270  0.11350  Biso   1.000  C
  C435     1.0000 0.68500  0.65270  0.38650  Biso   1.000  C
  C436     1.0000 0.18500  0.15270  0.38650  Biso   1.000  C
  C437     1.0000 0.68500  0.34730  0.88650  Biso   1.000  C
  C438     1.0000 0.18500  0.84730  0.88650  Biso   1.000  C
  C439     1.0000 0.31500  0.34730  0.61350  Biso   1.000  C
  C440     1.0000 0.81500  0.84730  0.61350  Biso   1.000  C
  C441     1.0000 0.29689  0.67420  0.06140  Biso   1.000  C
  C442     1.0000 0.79689  0.17420  0.06140  Biso   1.000  C
  C443     1.0000 0.70311  0.67420  0.43860  Biso   1.000  C
  C444     1.0000 0.20311  0.17420  0.43860  Biso   1.000  C
  C445     1.0000 0.70311  0.32580  0.93860  Biso   1.000  C
  C446     1.0000 0.20311  0.82580  0.93860  Biso   1.000  C
  C447     1.0000 0.29689  0.32580  0.56140  Biso   1.000  C
  C448     1.0000 0.79689  0.82580  0.56140  Biso   1.000  C
  H361     1.0000 0.28290  0.70920  0.06490  Biso   1.000  H
  H362     1.0000 0.78290  0.20920  0.06490  Biso   1.000  H
  H363     1.0000 0.71710  0.70920  0.43510  Biso   1.000  H
  H364     1.0000 0.21710  0.20920  0.43510  Biso   1.000  H
  H365     1.0000 0.71710  0.29080  0.93510  Biso   1.000  H
  H366     1.0000 0.21710  0.79080  0.93510  Biso   1.000  H
  H367     1.0000 0.28290  0.29080  0.56490  Biso   1.000  H
  H368     1.0000 0.78290  0.79080  0.56490  Biso   1.000  H
  C449     1.0000 0.29879  0.64540  0.00390  Biso   1.000  C
  C450     1.0000 0.79879  0.14540  0.00390  Biso   1.000  C
  C451     1.0000 0.70121  0.64540  0.49610  Biso   1.000  C
  C452     1.0000 0.20121  0.14540  0.49610  Biso   1.000  C
  C453     1.0000 0.70121  0.35460  0.99610  Biso   1.000  C
  C454     1.0000 0.20121  0.85460  0.99610  Biso   1.000  C
  C455     1.0000 0.29879  0.35460  0.50390  Biso   1.000  C
  C456     1.0000 0.79879  0.85460  0.50390  Biso   1.000  C
  C457     1.0000 0.37290  0.54370  0.16150  Biso   1.000  C
  C458     1.0000 0.87290  0.04370  0.16150  Biso   1.000  C
  C459     1.0000 0.62710  0.54370  0.33850  Biso   1.000  C
  C460     1.0000 0.12710  0.04370  0.33850  Biso   1.000  C
  C461     1.0000 0.62710  0.45630  0.83850  Biso   1.000  C
  C462     1.0000 0.12710  0.95630  0.83850  Biso   1.000  C
  C463     1.0000 0.37290  0.45630  0.66150  Biso   1.000  C
  C464     1.0000 0.87290  0.95630  0.66150  Biso   1.000  C
  H369     1.0000 0.37740  0.51140  0.19960  Biso   1.000  H
  H370     1.0000 0.87740  0.01140  0.19960  Biso   1.000  H
  H371     1.0000 0.62260  0.51140  0.30040  Biso   1.000  H
  H372     1.0000 0.12260  0.01140  0.30040  Biso   1.000  H
  H373     1.0000 0.62260  0.48860  0.80040  Biso   1.000  H
  H374     1.0000 0.12260  0.98860  0.80040  Biso   1.000  H
  H375     1.0000 0.37740  0.48860  0.69960  Biso   1.000  H
  H376     1.0000 0.87740  0.98860  0.69960  Biso   1.000  H
  H377     1.0000 0.36910  0.50510  0.12670  Biso   1.000  H
  H378     1.0000 0.86910  0.00510  0.12670  Biso   1.000  H
  H379     1.0000 0.63090  0.50510  0.37330  Biso   1.000  H
  H380     1.0000 0.13090  0.00510  0.37330  Biso   1.000  H
  H381     1.0000 0.63090  0.49490  0.87330  Biso   1.000  H
  H382     1.0000 0.13090  0.99490  0.87330  Biso   1.000  H
  H383     1.0000 0.36910  0.49490  0.62670  Biso   1.000  H
  H384     1.0000 0.86910  0.99490  0.62670  Biso   1.000  H
  H385     1.0000 0.38740  0.57980  0.15800  Biso   1.000  H
  H386     1.0000 0.88740  0.07980  0.15800  Biso   1.000  H
  H387     1.0000 0.61260  0.57980  0.34200  Biso   1.000  H
  H388     1.0000 0.11260  0.07980  0.34200  Biso   1.000  H
  H389     1.0000 0.61260  0.42020  0.84200  Biso   1.000  H
  H390     1.0000 0.11260  0.92020  0.84200  Biso   1.000  H
  H391     1.0000 0.38740  0.42020  0.65800  Biso   1.000  H
  H392     1.0000 0.88740  0.92020  0.65800  Biso   1.000  H
  C465     1.0000 0.29195  0.73440  0.17730  Biso   1.000  C
  C466     1.0000 0.79195  0.23440  0.17730  Biso   1.000  C
  C467     1.0000 0.70805  0.73440  0.32270  Biso   1.000  C
  C468     1.0000 0.20805  0.23440  0.32270  Biso   1.000  C
  C469     1.0000 0.70805  0.26560  0.82270  Biso   1.000  C
  C470     1.0000 0.20805  0.76560  0.82270  Biso   1.000  C
  C471     1.0000 0.29195  0.26560  0.67730  Biso   1.000  C
  C472     1.0000 0.79195  0.76560  0.67730  Biso   1.000  C
  H393     1.0000 0.27560  0.71540  0.15080  Biso   1.000  H
  H394     1.0000 0.77560  0.21540  0.15080  Biso   1.000  H
  H395     1.0000 0.72440  0.71540  0.34920  Biso   1.000  H
  H396     1.0000 0.22440  0.21540  0.34920  Biso   1.000  H
  H397     1.0000 0.72440  0.28460  0.84920  Biso   1.000  H
  H398     1.0000 0.22440  0.78460  0.84920  Biso   1.000  H
  H399     1.0000 0.27560  0.28460  0.65080  Biso   1.000  H
  H400     1.0000 0.77560  0.78460  0.65080  Biso   1.000  H
  H401     1.0000 0.28990  0.73280  0.22010  Biso   1.000  H
  H402     1.0000 0.78990  0.23280  0.22010  Biso   1.000  H
  H403     1.0000 0.71010  0.73280  0.27990  Biso   1.000  H
  H404     1.0000 0.21010  0.23280  0.27990  Biso   1.000  H
  H405     1.0000 0.71010  0.26720  0.77990  Biso   1.000  H
  H406     1.0000 0.21010  0.76720  0.77990  Biso   1.000  H
  H407     1.0000 0.28990  0.26720  0.72010  Biso   1.000  H
  H408     1.0000 0.78990  0.76720  0.72010  Biso   1.000  H
  C473     1.0000 0.29693  0.82250  0.16120  Biso   1.000  C
  C474     1.0000 0.79693  0.32250  0.16120  Biso   1.000  C
  C475     1.0000 0.70307  0.82250  0.33880  Biso   1.000  C
  C476     1.0000 0.20307  0.32250  0.33880  Biso   1.000  C
  C477     1.0000 0.70307  0.17750  0.83880  Biso   1.000  C
  C478     1.0000 0.20307  0.67750  0.83880  Biso   1.000  C
  C479     1.0000 0.29693  0.17750  0.66120  Biso   1.000  C
  C480     1.0000 0.79693  0.67750  0.66120  Biso   1.000  C
  C481     1.0000 0.32037  0.84840  0.15130  Biso   1.000  C
  C482     1.0000 0.82037  0.34840  0.15130  Biso   1.000  C
  C483     1.0000 0.67963  0.84840  0.34870  Biso   1.000  C
  C484     1.0000 0.17963  0.34840  0.34870  Biso   1.000  C
  C485     1.0000 0.67963  0.15160  0.84870  Biso   1.000  C
  C486     1.0000 0.17963  0.65160  0.84870  Biso   1.000  C
  C487     1.0000 0.32037  0.15160  0.65130  Biso   1.000  C
  C488     1.0000 0.82037  0.65160  0.65130  Biso   1.000  C
  H409     1.0000 0.33360  0.80830  0.15180  Biso   1.000  H
  H410     1.0000 0.83360  0.30830  0.15180  Biso   1.000  H
  H411     1.0000 0.66640  0.80830  0.34820  Biso   1.000  H
  H412     1.0000 0.16640  0.30830  0.34820  Biso   1.000  H
  H413     1.0000 0.66640  0.19170  0.84820  Biso   1.000  H
  H414     1.0000 0.16640  0.69170  0.84820  Biso   1.000  H
  H415     1.0000 0.33360  0.19170  0.65180  Biso   1.000  H
  H416     1.0000 0.83360  0.69170  0.65180  Biso   1.000  H
  C489     1.0000 0.32476  0.93270  0.14040  Biso   1.000  C
  C490     1.0000 0.82476  0.43270  0.14040  Biso   1.000  C
  C491     1.0000 0.67524  0.93270  0.35960  Biso   1.000  C
  C492     1.0000 0.17524  0.43270  0.35960  Biso   1.000  C
  C493     1.0000 0.67524  0.06730  0.85960  Biso   1.000  C
  C494     1.0000 0.17524  0.56730  0.85960  Biso   1.000  C
  C495     1.0000 0.32476  0.06730  0.64040  Biso   1.000  C
  C496     1.0000 0.82476  0.56730  0.64040  Biso   1.000  C
  C497     1.0000 0.30635  0.99140  0.14010  Biso   1.000  C
  C498     1.0000 0.80635  0.49140  0.14010  Biso   1.000  C
  C499     1.0000 0.69365  0.99140  0.35990  Biso   1.000  C
  C500     1.0000 0.19365  0.49140  0.35990  Biso   1.000  C
  C501     1.0000 0.69365  0.00860  0.85990  Biso   1.000  C
  C502     1.0000 0.19365  0.50860  0.85990  Biso   1.000  C
  C503     1.0000 0.30635  0.00860  0.64010  Biso   1.000  C
  C504     1.0000 0.80635  0.50860  0.64010  Biso   1.000  C
  H417     1.0000 0.30990  0.04890  0.13390  Biso   1.000  H
  H418     1.0000 0.80990  0.54890  0.13390  Biso   1.000  H
  H419     1.0000 0.69010  0.04890  0.36610  Biso   1.000  H
  H420     1.0000 0.19010  0.54890  0.36610  Biso   1.000  H
  H421     1.0000 0.69010  0.95110  0.86610  Biso   1.000  H
  H422     1.0000 0.19010  0.45110  0.86610  Biso   1.000  H
  H423     1.0000 0.30990  0.95110  0.63390  Biso   1.000  H
  H424     1.0000 0.80990  0.45110  0.63390  Biso   1.000  H
  C505     1.0000 0.28253  0.96780  0.14860  Biso   1.000  C
  C506     1.0000 0.78253  0.46780  0.14860  Biso   1.000  C
  C507     1.0000 0.71747  0.96780  0.35140  Biso   1.000  C
  C508     1.0000 0.21747  0.46780  0.35140  Biso   1.000  C
  C509     1.0000 0.71747  0.03220  0.85140  Biso   1.000  C
  C510     1.0000 0.21747  0.53220  0.85140  Biso   1.000  C
  C511     1.0000 0.28253  0.03220  0.64860  Biso   1.000  C
  C512     1.0000 0.78253  0.53220  0.64860  Biso   1.000  C
  C513     1.0000 0.27792  0.88510  0.15880  Biso   1.000  C
  C514     1.0000 0.77792  0.38510  0.15880  Biso   1.000  C
  C515     1.0000 0.72208  0.88510  0.34120  Biso   1.000  C
  C516     1.0000 0.22208  0.38510  0.34120  Biso   1.000  C
  C517     1.0000 0.72208  0.11490  0.84120  Biso   1.000  C
  C518     1.0000 0.22208  0.61490  0.84120  Biso   1.000  C
  C519     1.0000 0.27792  0.11490  0.65880  Biso   1.000  C
  C520     1.0000 0.77792  0.61490  0.65880  Biso   1.000  C
  H425     1.0000 0.26140  0.86920  0.16430  Biso   1.000  H
  H426     1.0000 0.76140  0.36920  0.16430  Biso   1.000  H
  H427     1.0000 0.73860  0.86920  0.33570  Biso   1.000  H
  H428     1.0000 0.23860  0.36920  0.33570  Biso   1.000  H
  H429     1.0000 0.73860  0.13080  0.83570  Biso   1.000  H
  H430     1.0000 0.23860  0.63080  0.83570  Biso   1.000  H
  H431     1.0000 0.26140  0.13080  0.66430  Biso   1.000  H
  H432     1.0000 0.76140  0.63080  0.66430  Biso   1.000  H
  C521     1.0000 0.23711  0.46820  0.85080  Biso   1.000  C
  C522     1.0000 0.73711  0.96820  0.85080  Biso   1.000  C
  C523     1.0000 0.76289  0.46820  0.64920  Biso   1.000  C
  C524     1.0000 0.26289  0.96820  0.64920  Biso   1.000  C
  C525     1.0000 0.76289  0.53180  0.14920  Biso   1.000  C
  C526     1.0000 0.26289  0.03180  0.14920  Biso   1.000  C
  C527     1.0000 0.23711  0.53180  0.35080  Biso   1.000  C
  C528     1.0000 0.73711  0.03180  0.35080  Biso   1.000  C
  C529     1.0000 0.35007  0.95910  0.12500  Biso   1.000  C
  C530     1.0000 0.85007  0.45910  0.12500  Biso   1.000  C
  C531     1.0000 0.64993  0.95910  0.37500  Biso   1.000  C
  C532     1.0000 0.14993  0.45910  0.37500  Biso   1.000  C
  C533     1.0000 0.64993  0.04090  0.87500  Biso   1.000  C
  C534     1.0000 0.14993  0.54090  0.87500  Biso   1.000  C
  C535     1.0000 0.35007  0.04090  0.62500  Biso   1.000  C
  C536     1.0000 0.85007  0.54090  0.62500  Biso   1.000  C
  H433     1.0000 0.34850  0.95450  0.08040  Biso   1.000  H
  H434     1.0000 0.84850  0.45450  0.08040  Biso   1.000  H
  H435     1.0000 0.65150  0.95450  0.41960  Biso   1.000  H
  H436     1.0000 0.15150  0.45450  0.41960  Biso   1.000  H
  H437     1.0000 0.65150  0.04550  0.91960  Biso   1.000  H
  H438     1.0000 0.15150  0.54550  0.91960  Biso   1.000  H
  H439     1.0000 0.34850  0.04550  0.58040  Biso   1.000  H
  H440     1.0000 0.84850  0.54550  0.58040  Biso   1.000  H
  H441     1.0000 0.36390  0.92030  0.14530  Biso   1.000  H
  H442     1.0000 0.86390  0.42030  0.14530  Biso   1.000  H
  H443     1.0000 0.63610  0.92030  0.35470  Biso   1.000  H
  H444     1.0000 0.13610  0.42030  0.35470  Biso   1.000  H
  H445     1.0000 0.63610  0.07970  0.85470  Biso   1.000  H
  H446     1.0000 0.13610  0.57970  0.85470  Biso   1.000  H
  H447     1.0000 0.36390  0.07970  0.64530  Biso   1.000  H
  H448     1.0000 0.86390  0.57970  0.64530  Biso   1.000  H
  C537     1.0000 0.37430  0.07240  0.11330  Biso   1.000  C
  C538     1.0000 0.87430  0.57240  0.11330  Biso   1.000  C
  C539     1.0000 0.62570  0.07240  0.38670  Biso   1.000  C
  C540     1.0000 0.12570  0.57240  0.38670  Biso   1.000  C
  C541     1.0000 0.62570  0.92760  0.88670  Biso   1.000  C
  C542     1.0000 0.12570  0.42760  0.88670  Biso   1.000  C
  C543     1.0000 0.37430  0.92760  0.61330  Biso   1.000  C
  C544     1.0000 0.87430  0.42760  0.61330  Biso   1.000  C
  C545     1.0000 0.39916  0.07220  0.13990  Biso   1.000  C
  C546     1.0000 0.89916  0.57220  0.13990  Biso   1.000  C
  C547     1.0000 0.60084  0.07220  0.36010  Biso   1.000  C
  C548     1.0000 0.10084  0.57220  0.36010  Biso   1.000  C
  C549     1.0000 0.60084  0.92780  0.86010  Biso   1.000  C
  C550     1.0000 0.10084  0.42780  0.86010  Biso   1.000  C
  C551     1.0000 0.39916  0.92780  0.63990  Biso   1.000  C
  C552     1.0000 0.89916  0.42780  0.63990  Biso   1.000  C
  H449     1.0000 0.40490  0.04670  0.17870  Biso   1.000  H
  H450     1.0000 0.90490  0.54670  0.17870  Biso   1.000  H
  H451     1.0000 0.59510  0.04670  0.32130  Biso   1.000  H
  H452     1.0000 0.09510  0.54670  0.32130  Biso   1.000  H
  H453     1.0000 0.59510  0.95330  0.82130  Biso   1.000  H
  H454     1.0000 0.09510  0.45330  0.82130  Biso   1.000  H
  H455     1.0000 0.40490  0.95330  0.67870  Biso   1.000  H
  H456     1.0000 0.90490  0.45330  0.67870  Biso   1.000  H
  C553     1.0000 0.41761  0.11130  0.10900  Biso   1.000  C
  C554     1.0000 0.91761  0.61130  0.10900  Biso   1.000  C
  C555     1.0000 0.58239  0.11130  0.39100  Biso   1.000  C
  C556     1.0000 0.08239  0.61130  0.39100  Biso   1.000  C
  C557     1.0000 0.58239  0.88870  0.89100  Biso   1.000  C
  C558     1.0000 0.08239  0.38870  0.89100  Biso   1.000  C
  C559     1.0000 0.41761  0.88870  0.60900  Biso   1.000  C
  C560     1.0000 0.91761  0.38870  0.60900  Biso   1.000  C
  C561     1.0000 0.40988  0.14680  0.05400  Biso   1.000  C
  C562     1.0000 0.90988  0.64680  0.05400  Biso   1.000  C
  C563     1.0000 0.59012  0.14680  0.44600  Biso   1.000  C
  C564     1.0000 0.09012  0.64680  0.44600  Biso   1.000  C
  C565     1.0000 0.59012  0.85320  0.94600  Biso   1.000  C
  C566     1.0000 0.09012  0.35320  0.94600  Biso   1.000  C
  C567     1.0000 0.40988  0.85320  0.55400  Biso   1.000  C
  C568     1.0000 0.90988  0.35320  0.55400  Biso   1.000  C
  C569     1.0000 0.38347  0.14950  0.02600  Biso   1.000  C
  C570     1.0000 0.88347  0.64950  0.02600  Biso   1.000  C
  C571     1.0000 0.61653  0.14950  0.47400  Biso   1.000  C
  C572     1.0000 0.11653  0.64950  0.47400  Biso   1.000  C
  C573     1.0000 0.61653  0.85050  0.97400  Biso   1.000  C
  C574     1.0000 0.11653  0.35050  0.97400  Biso   1.000  C
  C575     1.0000 0.38347  0.85050  0.52600  Biso   1.000  C
  C576     1.0000 0.88347  0.35050  0.52600  Biso   1.000  C
  H457     1.0000 0.37760  0.17840  0.98850  Biso   1.000  H
  H458     1.0000 0.87760  0.67840  0.98850  Biso   1.000  H
  H459     1.0000 0.62240  0.17840  0.51150  Biso   1.000  H
  H460     1.0000 0.12240  0.67840  0.51150  Biso   1.000  H
  H461     1.0000 0.62240  0.82160  0.01150  Biso   1.000  H
  H462     1.0000 0.12240  0.32160  0.01150  Biso   1.000  H
  H463     1.0000 0.37760  0.82160  0.48850  Biso   1.000  H
  H464     1.0000 0.87760  0.32160  0.48850  Biso   1.000  H
  C577     1.0000 0.36537  0.10660  0.05630  Biso   1.000  C
  C578     1.0000 0.86537  0.60660  0.05630  Biso   1.000  C
  C579     1.0000 0.63463  0.10660  0.44370  Biso   1.000  C
  C580     1.0000 0.13463  0.60660  0.44370  Biso   1.000  C
  C581     1.0000 0.63463  0.89340  0.94370  Biso   1.000  C
  C582     1.0000 0.13463  0.39340  0.94370  Biso   1.000  C
  C583     1.0000 0.36537  0.89340  0.55630  Biso   1.000  C
  C584     1.0000 0.86537  0.39340  0.55630  Biso   1.000  C
  C585     1.0000 0.33220  0.12450  0.96860  Biso   1.000  C
  C586     1.0000 0.83220  0.62450  0.96860  Biso   1.000  C
  C587     1.0000 0.66780  0.12450  0.53140  Biso   1.000  C
  C588     1.0000 0.16780  0.62450  0.53140  Biso   1.000  C
  C589     1.0000 0.66780  0.87550  0.03140  Biso   1.000  C
  C590     1.0000 0.16780  0.37550  0.03140  Biso   1.000  C
  C591     1.0000 0.33220  0.87550  0.46860  Biso   1.000  C
  C592     1.0000 0.83220  0.37550  0.46860  Biso   1.000  C
  H465     1.0000 0.34410  0.09930  0.94600  Biso   1.000  H
  H466     1.0000 0.84410  0.59930  0.94600  Biso   1.000  H
  H467     1.0000 0.65590  0.09930  0.55400  Biso   1.000  H
  H468     1.0000 0.15590  0.59930  0.55400  Biso   1.000  H
  H469     1.0000 0.65590  0.90070  0.05400  Biso   1.000  H
  H470     1.0000 0.15590  0.40070  0.05400  Biso   1.000  H
  H471     1.0000 0.34410  0.90070  0.44600  Biso   1.000  H
  H472     1.0000 0.84410  0.40070  0.44600  Biso   1.000  H
  H473     1.0000 0.31480  0.10310  0.95240  Biso   1.000  H
  H474     1.0000 0.81480  0.60310  0.95240  Biso   1.000  H
  H475     1.0000 0.68520  0.10310  0.54760  Biso   1.000  H
  H476     1.0000 0.18520  0.60310  0.54760  Biso   1.000  H
  H477     1.0000 0.68520  0.89690  0.04760  Biso   1.000  H
  H478     1.0000 0.18520  0.39690  0.04760  Biso   1.000  H
  H479     1.0000 0.31480  0.89690  0.45240  Biso   1.000  H
  H480     1.0000 0.81480  0.39690  0.45240  Biso   1.000  H
  H481     1.0000 0.33230  0.18580  0.96400  Biso   1.000  H
  H482     1.0000 0.83230  0.68580  0.96400  Biso   1.000  H
  H483     1.0000 0.66770  0.18580  0.53600  Biso   1.000  H
  H484     1.0000 0.16770  0.68580  0.53600  Biso   1.000  H
  H485     1.0000 0.66770  0.81420  0.03600  Biso   1.000  H
  H486     1.0000 0.16770  0.31420  0.03600  Biso   1.000  H
  H487     1.0000 0.33230  0.81420  0.46400  Biso   1.000  H
  H488     1.0000 0.83230  0.31420  0.46400  Biso   1.000  H
  C593     1.0000 0.42724  0.18760  0.01750  Biso   1.000  C
  C594     1.0000 0.92724  0.68760  0.01750  Biso   1.000  C
  C595     1.0000 0.57276  0.18760  0.48250  Biso   1.000  C
  C596     1.0000 0.07276  0.68760  0.48250  Biso   1.000  C
  C597     1.0000 0.57276  0.81240  0.98250  Biso   1.000  C
  C598     1.0000 0.07276  0.31240  0.98250  Biso   1.000  C
  C599     1.0000 0.42724  0.81240  0.51750  Biso   1.000  C
  C600     1.0000 0.92724  0.31240  0.51750  Biso   1.000  C
  H489     1.0000 0.41880  0.23870  0.99710  Biso   1.000  H
  H490     1.0000 0.91880  0.73870  0.99710  Biso   1.000  H
  H491     1.0000 0.58120  0.23870  0.50290  Biso   1.000  H
  H492     1.0000 0.08120  0.73870  0.50290  Biso   1.000  H
  H493     1.0000 0.58120  0.76130  0.00290  Biso   1.000  H
  H494     1.0000 0.08120  0.26130  0.00290  Biso   1.000  H
  H495     1.0000 0.41880  0.76130  0.49710  Biso   1.000  H
  H496     1.0000 0.91880  0.26130  0.49710  Biso   1.000  H
  H497     1.0000 0.44350  0.20480  0.04530  Biso   1.000  H
  H498     1.0000 0.94350  0.70480  0.04530  Biso   1.000  H
  H499     1.0000 0.55650  0.20480  0.45470  Biso   1.000  H
  H500     1.0000 0.05650  0.70480  0.45470  Biso   1.000  H
  H501     1.0000 0.55650  0.79520  0.95470  Biso   1.000  H
  H502     1.0000 0.05650  0.29520  0.95470  Biso   1.000  H
  H503     1.0000 0.44350  0.79520  0.54530  Biso   1.000  H
  H504     1.0000 0.94350  0.29520  0.54530  Biso   1.000  H
  O145     1.0000 0.09390  0.81680  0.09900  Biso   1.000  O
  O146     1.0000 0.59390  0.31680  0.09900  Biso   1.000  O
  O147     1.0000 0.90610  0.81680  0.40100  Biso   1.000  O
  O148     1.0000 0.40610  0.31680  0.40100  Biso   1.000  O
  O149     1.0000 0.90610  0.18320  0.90100  Biso   1.000  O
  O150     1.0000 0.40610  0.68320  0.90100  Biso   1.000  O
  O151     1.0000 0.09390  0.18320  0.59900  Biso   1.000  O
  O152     1.0000 0.59390  0.68320  0.59900  Biso   1.000  O
  C601     1.0000 0.21820  0.52400  0.99690  Biso   1.000  C
  C602     1.0000 0.71820  0.02400  0.99690  Biso   1.000  C
  C603     1.0000 0.78180  0.52400  0.50310  Biso   1.000  C
  C604     1.0000 0.28180  0.02400  0.50310  Biso   1.000  C
  C605     1.0000 0.78180  0.47600  0.00310  Biso   1.000  C
  C606     1.0000 0.28180  0.97600  0.00310  Biso   1.000  C
  C607     1.0000 0.21820  0.47600  0.49690  Biso   1.000  C
  C608     1.0000 0.71820  0.97600  0.49690  Biso   1.000  C
  H505     1.0000 0.20090  0.54410  0.97770  Biso   1.000  H
  H506     1.0000 0.70090  0.04410  0.97770  Biso   1.000  H
  H507     1.0000 0.79910  0.54410  0.52230  Biso   1.000  H
  H508     1.0000 0.29910  0.04410  0.52230  Biso   1.000  H
  H509     1.0000 0.79910  0.45590  0.02230  Biso   1.000  H
  H510     1.0000 0.29910  0.95590  0.02230  Biso   1.000  H
  H511     1.0000 0.20090  0.45590  0.47770  Biso   1.000  H
  H512     1.0000 0.70090  0.95590  0.47770  Biso   1.000  H
  H513     1.0000 0.22060  0.46700  0.98280  Biso   1.000  H
  H514     1.0000 0.72060  0.96700  0.98280  Biso   1.000  H
  H515     1.0000 0.77940  0.46700  0.51720  Biso   1.000  H
  H516     1.0000 0.27940  0.96700  0.51720  Biso   1.000  H
  H517     1.0000 0.77940  0.53300  0.01720  Biso   1.000  H
  H518     1.0000 0.27940  0.03300  0.01720  Biso   1.000  H
  H519     1.0000 0.22060  0.53300  0.48280  Biso   1.000  H
  H520     1.0000 0.72060  0.03300  0.48280  Biso   1.000  H
  H521     1.0000 0.23110  0.56150  0.98580  Biso   1.000  H
  H522     1.0000 0.73110  0.06150  0.98580  Biso   1.000  H
  H523     1.0000 0.76890  0.56150  0.51420  Biso   1.000  H
  H524     1.0000 0.26890  0.06150  0.51420  Biso   1.000  H
  H525     1.0000 0.76890  0.43850  0.01420  Biso   1.000  H
  H526     1.0000 0.26890  0.93850  0.01420  Biso   1.000  H
  H527     1.0000 0.23110  0.43850  0.48580  Biso   1.000  H
  H528     1.0000 0.73110  0.93850  0.48580  Biso   1.000  H
  O153     1.0000 0.00770  0.87190  0.16620  Biso   1.000  O
  O154     1.0000 0.50770  0.37190  0.16620  Biso   1.000  O
  O155     1.0000 0.99230  0.87190  0.33380  Biso   1.000  O
  O156     1.0000 0.49230  0.37190  0.33380  Biso   1.000  O
  O157     1.0000 0.99230  0.12810  0.83380  Biso   1.000  O
  O158     1.0000 0.49230  0.62810  0.83380  Biso   1.000  O
  O159     1.0000 0.00770  0.12810  0.66620  Biso   1.000  O
  O160     1.0000 0.50770  0.62810  0.66620  Biso   1.000  O
  O161     1.0000 0.52500  0.70080  0.88620  Biso   1.000  O
  O162     1.0000 0.02500  0.20080  0.88620  Biso   1.000  O
  O163     1.0000 0.47500  0.70080  0.61380  Biso   1.000  O
  O164     1.0000 0.97500  0.20080  0.61380  Biso   1.000  O
  O165     1.0000 0.47500  0.29920  0.11380  Biso   1.000  O
  O166     1.0000 0.97500  0.79920  0.11380  Biso   1.000  O
  O167     1.0000 0.52500  0.29920  0.38620  Biso   1.000  O
  O168     1.0000 0.02500  0.79920  0.38620  Biso   1.000  O
  C609     1.0000 0.06030  0.63900  0.13300  Biso   1.000  C
  C610     1.0000 0.56030  0.13900  0.13300  Biso   1.000  C
  C611     1.0000 0.93970  0.63900  0.36700  Biso   1.000  C
  C612     1.0000 0.43970  0.13900  0.36700  Biso   1.000  C
  C613     1.0000 0.93970  0.36100  0.86700  Biso   1.000  C
  C614     1.0000 0.43970  0.86100  0.86700  Biso   1.000  C
  C615     1.0000 0.06030  0.36100  0.63300  Biso   1.000  C
  C616     1.0000 0.56030  0.86100  0.63300  Biso   1.000  C
  H529     1.0000 0.07010  0.67790  0.16310  Biso   1.000  H
  H530     1.0000 0.57010  0.17790  0.16310  Biso   1.000  H
  H531     1.0000 0.92990  0.67790  0.33690  Biso   1.000  H
  H532     1.0000 0.42990  0.17790  0.33690  Biso   1.000  H
  H533     1.0000 0.92990  0.32210  0.83690  Biso   1.000  H
  H534     1.0000 0.42990  0.82210  0.83690  Biso   1.000  H
  H535     1.0000 0.07010  0.32210  0.66310  Biso   1.000  H
  H536     1.0000 0.57010  0.82210  0.66310  Biso   1.000  H
  H537     1.0000 0.04260  0.65890  0.11980  Biso   1.000  H
  H538     1.0000 0.54260  0.15890  0.11980  Biso   1.000  H
  H539     1.0000 0.95740  0.65890  0.38020  Biso   1.000  H
  H540     1.0000 0.45740  0.15890  0.38020  Biso   1.000  H
  H541     1.0000 0.95740  0.34110  0.88020  Biso   1.000  H
  H542     1.0000 0.45740  0.84110  0.88020  Biso   1.000  H
  H543     1.0000 0.04260  0.34110  0.61980  Biso   1.000  H
  H544     1.0000 0.54260  0.84110  0.61980  Biso   1.000  H
  H545     1.0000 0.06830  0.63420  0.09800  Biso   1.000  H
  H546     1.0000 0.56830  0.13420  0.09800  Biso   1.000  H
  H547     1.0000 0.93170  0.63420  0.40200  Biso   1.000  H
  H548     1.0000 0.43170  0.13420  0.40200  Biso   1.000  H
  H549     1.0000 0.93170  0.36580  0.90200  Biso   1.000  H
  H550     1.0000 0.43170  0.86580  0.90200  Biso   1.000  H
  H551     1.0000 0.06830  0.36580  0.59800  Biso   1.000  H
  H552     1.0000 0.56830  0.86580  0.59800  Biso   1.000  H
  C617     1.0000 0.11730  0.67700  0.20570  Biso   1.000  C
  C618     1.0000 0.61730  0.17700  0.20570  Biso   1.000  C
  C619     1.0000 0.88270  0.67700  0.29430  Biso   1.000  C
  C620     1.0000 0.38270  0.17700  0.29430  Biso   1.000  C
  C621     1.0000 0.88270  0.32300  0.79430  Biso   1.000  C
  C622     1.0000 0.38270  0.82300  0.79430  Biso   1.000  C
  C623     1.0000 0.11730  0.32300  0.70570  Biso   1.000  C
  C624     1.0000 0.61730  0.82300  0.70570  Biso   1.000  C
  H553     1.0000 0.12290  0.64560  0.17350  Biso   1.000  H
  H554     1.0000 0.62290  0.14560  0.17350  Biso   1.000  H
  H555     1.0000 0.87710  0.64560  0.32650  Biso   1.000  H
  H556     1.0000 0.37710  0.14560  0.32650  Biso   1.000  H
  H557     1.0000 0.87710  0.35440  0.82650  Biso   1.000  H
  H558     1.0000 0.37710  0.85440  0.82650  Biso   1.000  H
  H559     1.0000 0.12290  0.35440  0.67350  Biso   1.000  H
  H560     1.0000 0.62290  0.85440  0.67350  Biso   1.000  H
  H561     1.0000 0.10140  0.65310  0.21310  Biso   1.000  H
  H562     1.0000 0.60140  0.15310  0.21310  Biso   1.000  H
  H563     1.0000 0.89860  0.65310  0.28690  Biso   1.000  H
  H564     1.0000 0.39860  0.15310  0.28690  Biso   1.000  H
  H565     1.0000 0.89860  0.34690  0.78690  Biso   1.000  H
  H566     1.0000 0.39860  0.84690  0.78690  Biso   1.000  H
  H567     1.0000 0.10140  0.34690  0.71310  Biso   1.000  H
  H568     1.0000 0.60140  0.84690  0.71310  Biso   1.000  H
  H569     1.0000 0.13070  0.67510  0.24330  Biso   1.000  H
  H570     1.0000 0.63070  0.17510  0.24330  Biso   1.000  H
  H571     1.0000 0.86930  0.67510  0.25670  Biso   1.000  H
  H572     1.0000 0.36930  0.17510  0.25670  Biso   1.000  H
  H573     1.0000 0.86930  0.32490  0.75670  Biso   1.000  H
  H574     1.0000 0.36930  0.82490  0.75670  Biso   1.000  H
  H575     1.0000 0.13070  0.32490  0.74330  Biso   1.000  H
  H576     1.0000 0.63070  0.82490  0.74330  Biso   1.000  H
  C625     1.0000 0.08090  0.80230  0.05010  Biso   1.000  C
  C626     1.0000 0.58090  0.30230  0.05010  Biso   1.000  C
  C627     1.0000 0.91910  0.80230  0.44990  Biso   1.000  C
  C628     1.0000 0.41910  0.30230  0.44990  Biso   1.000  C
  C629     1.0000 0.91910  0.19770  0.94990  Biso   1.000  C
  C630     1.0000 0.41910  0.69770  0.94990  Biso   1.000  C
  C631     1.0000 0.08090  0.19770  0.55010  Biso   1.000  C
  C632     1.0000 0.58090  0.69770  0.55010  Biso   1.000  C
  H577     1.0000 0.08400  0.74270  0.04140  Biso   1.000  H
  H578     1.0000 0.58400  0.24270  0.04140  Biso   1.000  H
  H579     1.0000 0.91600  0.74270  0.45860  Biso   1.000  H
  H580     1.0000 0.41600  0.24270  0.45860  Biso   1.000  H
  H581     1.0000 0.91600  0.25730  0.95860  Biso   1.000  H
  H582     1.0000 0.41600  0.75730  0.95860  Biso   1.000  H
  H583     1.0000 0.08400  0.25730  0.54140  Biso   1.000  H
  H584     1.0000 0.58400  0.75730  0.54140  Biso   1.000  H
  H585     1.0000 0.08810  0.83610  0.02070  Biso   1.000  H
  H586     1.0000 0.58810  0.33610  0.02070  Biso   1.000  H
  H587     1.0000 0.91190  0.83610  0.47930  Biso   1.000  H
  H588     1.0000 0.41190  0.33610  0.47930  Biso   1.000  H
  H589     1.0000 0.91190  0.16390  0.97930  Biso   1.000  H
  H590     1.0000 0.41190  0.66390  0.97930  Biso   1.000  H
  H591     1.0000 0.08810  0.16390  0.52070  Biso   1.000  H
  H592     1.0000 0.58810  0.66390  0.52070  Biso   1.000  H
  C633     1.0000 0.13050  0.86300  0.81330  Biso   1.000  C
  C634     1.0000 0.63050  0.36300  0.81330  Biso   1.000  C
  C635     1.0000 0.86950  0.86300  0.68670  Biso   1.000  C
  C636     1.0000 0.36950  0.36300  0.68670  Biso   1.000  C
  C637     1.0000 0.86950  0.13700  0.18670  Biso   1.000  C
  C638     1.0000 0.36950  0.63700  0.18670  Biso   1.000  C
  C639     1.0000 0.13050  0.13700  0.31330  Biso   1.000  C
  C640     1.0000 0.63050  0.63700  0.31330  Biso   1.000  C
  H593     1.0000 0.11880  0.85100  0.84040  Biso   1.000  H
  H594     1.0000 0.61880  0.35100  0.84040  Biso   1.000  H
  H595     1.0000 0.88120  0.85100  0.65960  Biso   1.000  H
  H596     1.0000 0.38120  0.35100  0.65960  Biso   1.000  H
  H597     1.0000 0.88120  0.14900  0.15960  Biso   1.000  H
  H598     1.0000 0.38120  0.64900  0.15960  Biso   1.000  H
  H599     1.0000 0.11880  0.14900  0.34040  Biso   1.000  H
  H600     1.0000 0.61880  0.64900  0.34040  Biso   1.000  H
  H601     1.0000 0.13850  0.81040  0.80390  Biso   1.000  H
  H602     1.0000 0.63850  0.31040  0.80390  Biso   1.000  H
  H603     1.0000 0.86150  0.81040  0.69610  Biso   1.000  H
  H604     1.0000 0.36150  0.31040  0.69610  Biso   1.000  H
  H605     1.0000 0.86150  0.18960  0.19610  Biso   1.000  H
  H606     1.0000 0.36150  0.68960  0.19610  Biso   1.000  H
  H607     1.0000 0.13850  0.18960  0.30390  Biso   1.000  H
  H608     1.0000 0.63850  0.68960  0.30390  Biso   1.000  H
  H609     1.0000 0.12080  0.88820  0.77530  Biso   1.000  H
  H610     1.0000 0.62080  0.38820  0.77530  Biso   1.000  H
  H611     1.0000 0.87920  0.88820  0.72470  Biso   1.000  H
  H612     1.0000 0.37920  0.38820  0.72470  Biso   1.000  H
  H613     1.0000 0.87920  0.11180  0.22470  Biso   1.000  H
  H614     1.0000 0.37920  0.61180  0.22470  Biso   1.000  H
  H615     1.0000 0.12080  0.11180  0.27530  Biso   1.000  H
  H616     1.0000 0.62080  0.61180  0.27530  Biso   1.000  H
  N1       1.0000 0.28672  0.44930  0.77890  Biso   1.000  N
  N2       1.0000 0.78672  0.94930  0.77890  Biso   1.000  N
  N3       1.0000 0.71328  0.44930  0.72110  Biso   1.000  N
  N4       1.0000 0.21328  0.94930  0.72110  Biso   1.000  N
  N5       1.0000 0.71328  0.55070  0.22110  Biso   1.000  N
  N6       1.0000 0.21328  0.05070  0.22110  Biso   1.000  N
  N7       1.0000 0.28672  0.55070  0.27890  Biso   1.000  N
  N8       1.0000 0.78672  0.05070  0.27890  Biso   1.000  N
  C641     1.0000 0.31117  0.47600  0.77530  Biso   1.000  C
  C642     1.0000 0.81117  0.97600  0.77530  Biso   1.000  C
  C643     1.0000 0.68883  0.47600  0.72470  Biso   1.000  C
  C644     1.0000 0.18883  0.97600  0.72470  Biso   1.000  C
  C645     1.0000 0.68883  0.52400  0.22470  Biso   1.000  C
  C646     1.0000 0.18883  0.02400  0.22470  Biso   1.000  C
  C647     1.0000 0.31117  0.52400  0.27530  Biso   1.000  C
  C648     1.0000 0.81117  0.02400  0.27530  Biso   1.000  C
  H617     1.0000 0.32550  0.46350  0.80750  Biso   1.000  H
  H618     1.0000 0.82550  0.96350  0.80750  Biso   1.000  H
  H619     1.0000 0.67450  0.46350  0.69250  Biso   1.000  H
  H620     1.0000 0.17450  0.96350  0.69250  Biso   1.000  H
  H621     1.0000 0.67450  0.53650  0.19250  Biso   1.000  H
  H622     1.0000 0.17450  0.03650  0.19250  Biso   1.000  H
  H623     1.0000 0.32550  0.53650  0.30750  Biso   1.000  H
  H624     1.0000 0.82550  0.03650  0.30750  Biso   1.000  H
  C649     1.0000 0.31464  0.52110  0.72460  Biso   1.000  C
  C650     1.0000 0.81464  0.02110  0.72460  Biso   1.000  C
  C651     1.0000 0.68536  0.52110  0.77540  Biso   1.000  C
  C652     1.0000 0.18536  0.02110  0.77540  Biso   1.000  C
  C653     1.0000 0.68536  0.47890  0.27540  Biso   1.000  C
  C654     1.0000 0.18536  0.97890  0.27540  Biso   1.000  C
  C655     1.0000 0.31464  0.47890  0.22460  Biso   1.000  C
  C656     1.0000 0.81464  0.97890  0.22460  Biso   1.000  C
  H625     1.0000 0.33130  0.53930  0.72220  Biso   1.000  H
  H626     1.0000 0.83130  0.03930  0.72220  Biso   1.000  H
  H627     1.0000 0.66870  0.53930  0.77780  Biso   1.000  H
  H628     1.0000 0.16870  0.03930  0.77780  Biso   1.000  H
  H629     1.0000 0.66870  0.46070  0.27780  Biso   1.000  H
  H630     1.0000 0.16870  0.96070  0.27780  Biso   1.000  H
  H631     1.0000 0.33130  0.46070  0.22220  Biso   1.000  H
  H632     1.0000 0.83130  0.96070  0.22220  Biso   1.000  H
  C657     1.0000 0.29370  0.53940  0.67760  Biso   1.000  C
  C658     1.0000 0.79370  0.03940  0.67760  Biso   1.000  C
  C659     1.0000 0.70630  0.53940  0.82240  Biso   1.000  C
  C660     1.0000 0.20630  0.03940  0.82240  Biso   1.000  C
  C661     1.0000 0.70630  0.46060  0.32240  Biso   1.000  C
  C662     1.0000 0.20630  0.96060  0.32240  Biso   1.000  C
  C663     1.0000 0.29370  0.46060  0.17760  Biso   1.000  C
  C664     1.0000 0.79370  0.96060  0.17760  Biso   1.000  C
  H633     1.0000 0.29600  0.57020  0.64290  Biso   1.000  H
  H634     1.0000 0.79600  0.07020  0.64290  Biso   1.000  H
  H635     1.0000 0.70400  0.57020  0.85710  Biso   1.000  H
  H636     1.0000 0.20400  0.07020  0.85710  Biso   1.000  H
  H637     1.0000 0.70400  0.42980  0.35710  Biso   1.000  H
  H638     1.0000 0.20400  0.92980  0.35710  Biso   1.000  H
  H639     1.0000 0.29600  0.42980  0.14290  Biso   1.000  H
  H640     1.0000 0.79600  0.92980  0.14290  Biso   1.000  H
  C665     1.0000 0.26920  0.51270  0.68110  Biso   1.000  C
  C666     1.0000 0.76920  0.01270  0.68110  Biso   1.000  C
  C667     1.0000 0.73080  0.51270  0.81890  Biso   1.000  C
  C668     1.0000 0.23080  0.01270  0.81890  Biso   1.000  C
  C669     1.0000 0.73080  0.48730  0.31890  Biso   1.000  C
  C670     1.0000 0.23080  0.98730  0.31890  Biso   1.000  C
  C671     1.0000 0.26920  0.48730  0.18110  Biso   1.000  C
  C672     1.0000 0.76920  0.98730  0.18110  Biso   1.000  C
  H641     1.0000 0.25490  0.52520  0.64900  Biso   1.000  H
  H642     1.0000 0.75490  0.02520  0.64900  Biso   1.000  H
  H643     1.0000 0.74510  0.52520  0.85100  Biso   1.000  H
  H644     1.0000 0.24510  0.02520  0.85100  Biso   1.000  H
  H645     1.0000 0.74510  0.47480  0.35100  Biso   1.000  H
  H646     1.0000 0.24510  0.97480  0.35100  Biso   1.000  H
  H647     1.0000 0.25490  0.47480  0.14900  Biso   1.000  H
  H648     1.0000 0.75490  0.97480  0.14900  Biso   1.000  H
  C673     1.0000 0.26574  0.46770  0.73180  Biso   1.000  C
  C674     1.0000 0.76574  0.96770  0.73180  Biso   1.000  C
  C675     1.0000 0.73426  0.46770  0.76820  Biso   1.000  C
  C676     1.0000 0.23426  0.96770  0.76820  Biso   1.000  C
  C677     1.0000 0.73426  0.53230  0.26820  Biso   1.000  C
  C678     1.0000 0.23426  0.03230  0.26820  Biso   1.000  C
  C679     1.0000 0.26574  0.53230  0.23180  Biso   1.000  C
  C680     1.0000 0.76574  0.03230  0.23180  Biso   1.000  C
  H649     1.0000 0.24900  0.44940  0.73420  Biso   1.000  H
  H650     1.0000 0.74900  0.94940  0.73420  Biso   1.000  H
  H651     1.0000 0.75100  0.44940  0.76580  Biso   1.000  H
  H652     1.0000 0.25100  0.94940  0.76580  Biso   1.000  H
  H653     1.0000 0.75100  0.55060  0.26580  Biso   1.000  H
  H654     1.0000 0.25100  0.05060  0.26580  Biso   1.000  H
  H655     1.0000 0.24900  0.55060  0.23420  Biso   1.000  H
  H656     1.0000 0.74900  0.05060  0.23420  Biso   1.000  H
  N9       1.0000 0.27960  0.35200  0.92970  Biso   1.000  N
  N10      1.0000 0.77960  0.85200  0.92970  Biso   1.000  N
  N11      1.0000 0.72040  0.35200  0.57030  Biso   1.000  N
  N12      1.0000 0.22040  0.85200  0.57030  Biso   1.000  N
  N13      1.0000 0.72040  0.64800  0.07030  Biso   1.000  N
  N14      1.0000 0.22040  0.14800  0.07030  Biso   1.000  N
  N15      1.0000 0.27960  0.64800  0.42970  Biso   1.000  N
  N16      1.0000 0.77960  0.14800  0.42970  Biso   1.000  N
  C681     1.0000 0.28430  0.26900  0.94820  Biso   1.000  C
  C682     1.0000 0.78430  0.76900  0.94820  Biso   1.000  C
  C683     1.0000 0.71570  0.26900  0.55180  Biso   1.000  C
  C684     1.0000 0.21570  0.76900  0.55180  Biso   1.000  C
  C685     1.0000 0.71570  0.73100  0.05180  Biso   1.000  C
  C686     1.0000 0.21570  0.23100  0.05180  Biso   1.000  C
  C687     1.0000 0.28430  0.73100  0.44820  Biso   1.000  C
  C688     1.0000 0.78430  0.23100  0.44820  Biso   1.000  C
  H657     1.0000 0.28500  0.22650  0.91890  Biso   1.000  H
  H658     1.0000 0.78500  0.72650  0.91890  Biso   1.000  H
  H659     1.0000 0.71500  0.22650  0.58110  Biso   1.000  H
  H660     1.0000 0.21500  0.72650  0.58110  Biso   1.000  H
  H661     1.0000 0.71500  0.77350  0.08110  Biso   1.000  H
  H662     1.0000 0.21500  0.27350  0.08110  Biso   1.000  H
  H663     1.0000 0.28500  0.77350  0.41890  Biso   1.000  H
  H664     1.0000 0.78500  0.27350  0.41890  Biso   1.000  H
  C689     1.0000 0.28790  0.24810  0.00970  Biso   1.000  C
  C690     1.0000 0.78790  0.74810  0.00970  Biso   1.000  C
  C691     1.0000 0.71210  0.24810  0.49030  Biso   1.000  C
  C692     1.0000 0.21210  0.74810  0.49030  Biso   1.000  C
  C693     1.0000 0.71210  0.75190  0.99030  Biso   1.000  C
  C694     1.0000 0.21210  0.25190  0.99030  Biso   1.000  C
  C695     1.0000 0.28790  0.75190  0.50970  Biso   1.000  C
  C696     1.0000 0.78790  0.25190  0.50970  Biso   1.000  C
  H665     1.0000 0.29110  0.19140  0.02230  Biso   1.000  H
  H666     1.0000 0.79110  0.69140  0.02230  Biso   1.000  H
  H667     1.0000 0.70890  0.19140  0.47770  Biso   1.000  H
  H668     1.0000 0.20890  0.69140  0.47770  Biso   1.000  H
  H669     1.0000 0.70890  0.80860  0.97770  Biso   1.000  H
  H670     1.0000 0.20890  0.30860  0.97770  Biso   1.000  H
  H671     1.0000 0.29110  0.80860  0.52230  Biso   1.000  H
  H672     1.0000 0.79110  0.30860  0.52230  Biso   1.000  H
  C697     1.0000 0.28680  0.31000  0.05260  Biso   1.000  C
  C698     1.0000 0.78680  0.81000  0.05260  Biso   1.000  C
  C699     1.0000 0.71320  0.31000  0.44740  Biso   1.000  C
  C700     1.0000 0.21320  0.81000  0.44740  Biso   1.000  C
  C701     1.0000 0.71320  0.69000  0.94740  Biso   1.000  C
  C702     1.0000 0.21320  0.19000  0.94740  Biso   1.000  C
  C703     1.0000 0.28680  0.69000  0.55260  Biso   1.000  C
  C704     1.0000 0.78680  0.19000  0.55260  Biso   1.000  C
  H673     1.0000 0.28930  0.29600  0.09460  Biso   1.000  H
  H674     1.0000 0.78930  0.79600  0.09460  Biso   1.000  H
  H675     1.0000 0.71070  0.29600  0.40540  Biso   1.000  H
  H676     1.0000 0.21070  0.79600  0.40540  Biso   1.000  H
  H677     1.0000 0.71070  0.70400  0.90540  Biso   1.000  H
  H678     1.0000 0.21070  0.20400  0.90540  Biso   1.000  H
  H679     1.0000 0.28930  0.70400  0.59460  Biso   1.000  H
  H680     1.0000 0.78930  0.20400  0.59460  Biso   1.000  H
  C705     1.0000 0.28220  0.39320  0.03410  Biso   1.000  C
  C706     1.0000 0.78220  0.89320  0.03410  Biso   1.000  C
  C707     1.0000 0.71780  0.39320  0.46590  Biso   1.000  C
  C708     1.0000 0.21780  0.89320  0.46590  Biso   1.000  C
  C709     1.0000 0.71780  0.60680  0.96590  Biso   1.000  C
  C710     1.0000 0.21780  0.10680  0.96590  Biso   1.000  C
  C711     1.0000 0.28220  0.60680  0.53410  Biso   1.000  C
  C712     1.0000 0.78220  0.10680  0.53410  Biso   1.000  C
  H681     1.0000 0.28140  0.43570  0.06340  Biso   1.000  H
  H682     1.0000 0.78140  0.93570  0.06340  Biso   1.000  H
  H683     1.0000 0.71860  0.43570  0.43660  Biso   1.000  H
  H684     1.0000 0.21860  0.93570  0.43660  Biso   1.000  H
  H685     1.0000 0.71860  0.56430  0.93660  Biso   1.000  H
  H686     1.0000 0.21860  0.06430  0.93660  Biso   1.000  H
  H687     1.0000 0.28140  0.56430  0.56340  Biso   1.000  H
  H688     1.0000 0.78140  0.06430  0.56340  Biso   1.000  H
  C713     1.0000 0.27860  0.41410  0.97260  Biso   1.000  C
  C714     1.0000 0.77860  0.91410  0.97260  Biso   1.000  C
  C715     1.0000 0.72140  0.41410  0.52740  Biso   1.000  C
  C716     1.0000 0.22140  0.91410  0.52740  Biso   1.000  C
  C717     1.0000 0.72140  0.58590  0.02740  Biso   1.000  C
  C718     1.0000 0.22140  0.08590  0.02740  Biso   1.000  C
  C719     1.0000 0.27860  0.58590  0.47260  Biso   1.000  C
  C720     1.0000 0.77860  0.08590  0.47260  Biso   1.000  C
  H689     1.0000 0.27540  0.47080  0.96000  Biso   1.000  H
  H690     1.0000 0.77540  0.97080  0.96000  Biso   1.000  H
  H691     1.0000 0.72460  0.47080  0.54000  Biso   1.000  H
  H692     1.0000 0.22460  0.97080  0.54000  Biso   1.000  H
  H693     1.0000 0.72460  0.52920  0.04000  Biso   1.000  H
  H694     1.0000 0.22460  0.02920  0.04000  Biso   1.000  H
  H695     1.0000 0.27540  0.52920  0.46000  Biso   1.000  H
  H696     1.0000 0.77540  0.02920  0.46000  Biso   1.000  H
  N17      1.0000 0.29190  0.35750  0.95730  Biso   1.000  N
  N18      1.0000 0.79190  0.85750  0.95730  Biso   1.000  N
  N19      1.0000 0.70810  0.35750  0.54270  Biso   1.000  N
  N20      1.0000 0.20810  0.85750  0.54270  Biso   1.000  N
  N21      1.0000 0.70810  0.64250  0.04270  Biso   1.000  N
  N22      1.0000 0.20810  0.14250  0.04270  Biso   1.000  N
  N23      1.0000 0.29190  0.64250  0.45730  Biso   1.000  N
  N24      1.0000 0.79190  0.14250  0.45730  Biso   1.000  N
  C721     1.0000 0.31440  0.36780  0.00170  Biso   1.000  C
  C722     1.0000 0.81440  0.86780  0.00170  Biso   1.000  C
  C723     1.0000 0.68560  0.36780  0.49830  Biso   1.000  C
  C724     1.0000 0.18560  0.86780  0.49830  Biso   1.000  C
  C725     1.0000 0.68560  0.63220  0.99830  Biso   1.000  C
  C726     1.0000 0.18560  0.13220  0.99830  Biso   1.000  C
  C727     1.0000 0.31440  0.63220  0.50170  Biso   1.000  C
  C728     1.0000 0.81440  0.13220  0.50170  Biso   1.000  C
  H697     1.0000 0.32700  0.40710  0.99560  Biso   1.000  H
  H698     1.0000 0.82700  0.90710  0.99560  Biso   1.000  H
  H699     1.0000 0.67300  0.40710  0.50440  Biso   1.000  H
  H700     1.0000 0.17300  0.90710  0.50440  Biso   1.000  H
  H701     1.0000 0.67300  0.59290  0.00440  Biso   1.000  H
  H702     1.0000 0.17300  0.09290  0.00440  Biso   1.000  H
  H703     1.0000 0.32700  0.59290  0.49560  Biso   1.000  H
  H704     1.0000 0.82700  0.09290  0.49560  Biso   1.000  H
  C729     1.0000 0.31840  0.32050  0.05500  Biso   1.000  C
  C730     1.0000 0.81840  0.82050  0.05500  Biso   1.000  C
  C731     1.0000 0.68160  0.32050  0.44500  Biso   1.000  C
  C732     1.0000 0.18160  0.82050  0.44500  Biso   1.000  C
  C733     1.0000 0.68160  0.67950  0.94500  Biso   1.000  C
  C734     1.0000 0.18160  0.17950  0.94500  Biso   1.000  C
  C735     1.0000 0.31840  0.67950  0.55500  Biso   1.000  C
  C736     1.0000 0.81840  0.17950  0.55500  Biso   1.000  C
  H705     1.0000 0.33380  0.32750  0.08540  Biso   1.000  H
  H706     1.0000 0.83380  0.82750  0.08540  Biso   1.000  H
  H707     1.0000 0.66620  0.32750  0.41460  Biso   1.000  H
  H708     1.0000 0.16620  0.82750  0.41460  Biso   1.000  H
  H709     1.0000 0.66620  0.67250  0.91460  Biso   1.000  H
  H710     1.0000 0.16620  0.17250  0.91460  Biso   1.000  H
  H711     1.0000 0.33380  0.67250  0.58540  Biso   1.000  H
  H712     1.0000 0.83380  0.17250  0.58540  Biso   1.000  H
  C737     1.0000 0.30000  0.26300  0.06400  Biso   1.000  C
  C738     1.0000 0.80000  0.76300  0.06400  Biso   1.000  C
  C739     1.0000 0.70000  0.26300  0.43600  Biso   1.000  C
  C740     1.0000 0.20000  0.76300  0.43600  Biso   1.000  C
  C741     1.0000 0.70000  0.73700  0.93600  Biso   1.000  C
  C742     1.0000 0.20000  0.23700  0.93600  Biso   1.000  C
  C743     1.0000 0.30000  0.73700  0.56400  Biso   1.000  C
  C744     1.0000 0.80000  0.23700  0.56400  Biso   1.000  C
  H713     1.0000 0.30280  0.23070  0.10050  Biso   1.000  H
  H714     1.0000 0.80280  0.73070  0.10050  Biso   1.000  H
  H715     1.0000 0.69720  0.23070  0.39950  Biso   1.000  H
  H716     1.0000 0.19720  0.73070  0.39950  Biso   1.000  H
  H717     1.0000 0.69720  0.76930  0.89950  Biso   1.000  H
  H718     1.0000 0.19720  0.26930  0.89950  Biso   1.000  H
  H719     1.0000 0.30280  0.76930  0.60050  Biso   1.000  H
  H720     1.0000 0.80280  0.26930  0.60050  Biso   1.000  H
  C745     1.0000 0.27750  0.25280  0.01960  Biso   1.000  C
  C746     1.0000 0.77750  0.75280  0.01960  Biso   1.000  C
  C747     1.0000 0.72250  0.25280  0.48040  Biso   1.000  C
  C748     1.0000 0.22250  0.75280  0.48040  Biso   1.000  C
  C749     1.0000 0.72250  0.74720  0.98040  Biso   1.000  C
  C750     1.0000 0.22250  0.24720  0.98040  Biso   1.000  C
  C751     1.0000 0.27750  0.74720  0.51960  Biso   1.000  C
  C752     1.0000 0.77750  0.24720  0.51960  Biso   1.000  C
  H721     1.0000 0.26490  0.21350  0.02570  Biso   1.000  H
  H722     1.0000 0.76490  0.71350  0.02570  Biso   1.000  H
  H723     1.0000 0.73510  0.21350  0.47430  Biso   1.000  H
  H724     1.0000 0.23510  0.71350  0.47430  Biso   1.000  H
  H725     1.0000 0.73510  0.78650  0.97430  Biso   1.000  H
  H726     1.0000 0.23510  0.28650  0.97430  Biso   1.000  H
  H727     1.0000 0.26490  0.78650  0.52570  Biso   1.000  H
  H728     1.0000 0.76490  0.28650  0.52570  Biso   1.000  H
  C753     1.0000 0.27340  0.30000  0.96620  Biso   1.000  C
  C754     1.0000 0.77340  0.80000  0.96620  Biso   1.000  C
  C755     1.0000 0.72660  0.30000  0.53380  Biso   1.000  C
  C756     1.0000 0.22660  0.80000  0.53380  Biso   1.000  C
  C757     1.0000 0.72660  0.70000  0.03380  Biso   1.000  C
  C758     1.0000 0.22660  0.20000  0.03380  Biso   1.000  C
  C759     1.0000 0.27340  0.70000  0.46620  Biso   1.000  C
  C760     1.0000 0.77340  0.20000  0.46620  Biso   1.000  C
  H729     1.0000 0.25810  0.29300  0.93590  Biso   1.000  H
  H730     1.0000 0.75810  0.79300  0.93590  Biso   1.000  H
  H731     1.0000 0.74190  0.29300  0.56410  Biso   1.000  H
  H732     1.0000 0.24190  0.79300  0.56410  Biso   1.000  H
  H733     1.0000 0.74190  0.70700  0.06410  Biso   1.000  H
  H734     1.0000 0.24190  0.20700  0.06410  Biso   1.000  H
  H735     1.0000 0.25810  0.70700  0.43590  Biso   1.000  H
  H736     1.0000 0.75810  0.20700  0.43590  Biso   1.000  H
  N25      1.0000 0.49440  0.53290  0.73900  Biso   1.000  N
  N26      1.0000 0.99440  0.03290  0.73900  Biso   1.000  N
  N27      1.0000 0.50560  0.53290  0.76100  Biso   1.000  N
  N28      1.0000 0.00560  0.03290  0.76100  Biso   1.000  N
  N29      1.0000 0.50560  0.46710  0.26100  Biso   1.000  N
  N30      1.0000 0.00560  0.96710  0.26100  Biso   1.000  N
  N31      1.0000 0.49440  0.46710  0.23900  Biso   1.000  N
  N32      1.0000 0.99440  0.96710  0.23900  Biso   1.000  N
  C761     1.0000 0.50770  0.49070  0.79060  Biso   1.000  C
  C762     1.0000 0.00770  0.99070  0.79060  Biso   1.000  C
  C763     1.0000 0.49230  0.49070  0.70940  Biso   1.000  C
  C764     1.0000 0.99230  0.99070  0.70940  Biso   1.000  C
  C765     1.0000 0.49230  0.50930  0.20940  Biso   1.000  C
  C766     1.0000 0.99230  0.00930  0.20940  Biso   1.000  C
  C767     1.0000 0.50770  0.50930  0.29060  Biso   1.000  C
  C768     1.0000 0.00770  0.00930  0.29060  Biso   1.000  C
  H737     1.0000 0.51670  0.52150  0.82490  Biso   1.000  H
  H738     1.0000 0.01670  0.02150  0.82490  Biso   1.000  H
  H739     1.0000 0.48330  0.52150  0.67510  Biso   1.000  H
  H740     1.0000 0.98330  0.02150  0.67510  Biso   1.000  H
  H741     1.0000 0.48330  0.47850  0.17510  Biso   1.000  H
  H742     1.0000 0.98330  0.97850  0.17510  Biso   1.000  H
  H743     1.0000 0.51670  0.47850  0.32490  Biso   1.000  H
  H744     1.0000 0.01670  0.97850  0.32490  Biso   1.000  H
  C769     1.0000 0.50790  0.40330  0.79180  Biso   1.000  C
  C770     1.0000 0.00790  0.90330  0.79180  Biso   1.000  C
  C771     1.0000 0.49210  0.40330  0.70820  Biso   1.000  C
  C772     1.0000 0.99210  0.90330  0.70820  Biso   1.000  C
  C773     1.0000 0.49210  0.59670  0.20820  Biso   1.000  C
  C774     1.0000 0.99210  0.09670  0.20820  Biso   1.000  C
  C775     1.0000 0.50790  0.59670  0.29180  Biso   1.000  C
  C776     1.0000 0.00790  0.09670  0.29180  Biso   1.000  C
  H745     1.0000 0.51700  0.37450  0.82710  Biso   1.000  H
  H746     1.0000 0.01700  0.87450  0.82710  Biso   1.000  H
  H747     1.0000 0.48300  0.37450  0.67290  Biso   1.000  H
  H748     1.0000 0.98300  0.87450  0.67290  Biso   1.000  H
  H749     1.0000 0.48300  0.62550  0.17290  Biso   1.000  H
  H750     1.0000 0.98300  0.12550  0.17290  Biso   1.000  H
  H751     1.0000 0.51700  0.62550  0.32710  Biso   1.000  H
  H752     1.0000 0.01700  0.12550  0.32710  Biso   1.000  H
  C777     1.0000 0.49470  0.35820  0.74160  Biso   1.000  C
  C778     1.0000 0.99470  0.85820  0.74160  Biso   1.000  C
  C779     1.0000 0.50530  0.35820  0.75840  Biso   1.000  C
  C780     1.0000 0.00530  0.85820  0.75840  Biso   1.000  C
  C781     1.0000 0.50530  0.64180  0.25840  Biso   1.000  C
  C782     1.0000 0.00530  0.14180  0.25840  Biso   1.000  C
  C783     1.0000 0.49470  0.64180  0.24160  Biso   1.000  C
  C784     1.0000 0.99470  0.14180  0.24160  Biso   1.000  C
  H753     1.0000 0.00520  0.20150  0.25750  Biso   1.000  H
  H754     1.0000 0.50520  0.70150  0.25750  Biso   1.000  H
  H755     1.0000 0.99480  0.20150  0.24250  Biso   1.000  H
  H756     1.0000 0.49480  0.70150  0.24250  Biso   1.000  H
  H757     1.0000 0.99480  0.79850  0.74250  Biso   1.000  H
  H758     1.0000 0.49480  0.29850  0.74250  Biso   1.000  H
  H759     1.0000 0.00520  0.79850  0.75750  Biso   1.000  H
  H760     1.0000 0.50520  0.29850  0.75750  Biso   1.000  H
  C785     1.0000 0.01860  0.09960  0.31000  Biso   1.000  C
  C786     1.0000 0.51860  0.59960  0.31000  Biso   1.000  C
  C787     1.0000 0.98140  0.09960  0.19000  Biso   1.000  C
  C788     1.0000 0.48140  0.59960  0.19000  Biso   1.000  C
  C789     1.0000 0.98140  0.90040  0.69000  Biso   1.000  C
  C790     1.0000 0.48140  0.40040  0.69000  Biso   1.000  C
  C791     1.0000 0.01860  0.90040  0.81000  Biso   1.000  C
  C792     1.0000 0.51860  0.40040  0.81000  Biso   1.000  C
  H761     1.0000 0.02760  0.13050  0.34430  Biso   1.000  H
  H762     1.0000 0.52760  0.63050  0.34430  Biso   1.000  H
  H763     1.0000 0.97240  0.13050  0.15570  Biso   1.000  H
  H764     1.0000 0.47240  0.63050  0.15570  Biso   1.000  H
  H765     1.0000 0.97240  0.86950  0.65570  Biso   1.000  H
  H766     1.0000 0.47240  0.36950  0.65570  Biso   1.000  H
  H767     1.0000 0.02760  0.86950  0.84430  Biso   1.000  H
  H768     1.0000 0.52760  0.36950  0.84430  Biso   1.000  H
  C793     1.0000 0.01880  0.01230  0.31130  Biso   1.000  C
  C794     1.0000 0.51880  0.51230  0.31130  Biso   1.000  C
  C795     1.0000 0.98120  0.01230  0.18870  Biso   1.000  C
  C796     1.0000 0.48120  0.51230  0.18870  Biso   1.000  C
  C797     1.0000 0.98120  0.98770  0.68870  Biso   1.000  C
  C798     1.0000 0.48120  0.48770  0.68870  Biso   1.000  C
  C799     1.0000 0.01880  0.98770  0.81130  Biso   1.000  C
  C800     1.0000 0.51880  0.48770  0.81130  Biso   1.000  C
  H769     1.0000 0.02790  0.98340  0.34650  Biso   1.000  H
  H770     1.0000 0.52790  0.48340  0.34650  Biso   1.000  H
  H771     1.0000 0.97210  0.98340  0.15350  Biso   1.000  H
  H772     1.0000 0.47210  0.48340  0.15350  Biso   1.000  H
  H773     1.0000 0.97210  0.01660  0.65350  Biso   1.000  H
  H774     1.0000 0.47210  0.51660  0.65350  Biso   1.000  H
  H775     1.0000 0.02790  0.01660  0.84650  Biso   1.000  H
  H776     1.0000 0.52790  0.51660  0.84650  Biso   1.000  H
  N33      1.0000 0.49840  0.77610  0.74780  Biso   1.000  N
  N34      1.0000 0.99840  0.27610  0.74780  Biso   1.000  N
  N35      1.0000 0.50160  0.77610  0.75220  Biso   1.000  N
  N36      1.0000 0.00160  0.27610  0.75220  Biso   1.000  N
  N37      1.0000 0.50160  0.22390  0.25220  Biso   1.000  N
  N38      1.0000 0.00160  0.72390  0.25220  Biso   1.000  N
  N39      1.0000 0.49840  0.22390  0.24780  Biso   1.000  N
  N40      1.0000 0.99840  0.72390  0.24780  Biso   1.000  N
  C801     1.0000 0.01770  0.68450  0.21970  Biso   1.000  C
  C802     1.0000 0.51770  0.18450  0.21970  Biso   1.000  C
  C803     1.0000 0.98230  0.68450  0.28030  Biso   1.000  C
  C804     1.0000 0.48230  0.18450  0.28030  Biso   1.000  C
  C805     1.0000 0.98230  0.31550  0.78030  Biso   1.000  C
  C806     1.0000 0.48230  0.81550  0.78030  Biso   1.000  C
  C807     1.0000 0.01770  0.31550  0.71970  Biso   1.000  C
  C808     1.0000 0.51770  0.81550  0.71970  Biso   1.000  C
  H777     1.0000 0.02960  0.71680  0.20340  Biso   1.000  H
  H778     1.0000 0.52960  0.21680  0.20340  Biso   1.000  H
  H779     1.0000 0.97040  0.71680  0.29660  Biso   1.000  H
  H780     1.0000 0.47040  0.21680  0.29660  Biso   1.000  H
  H781     1.0000 0.97040  0.28320  0.79660  Biso   1.000  H
  H782     1.0000 0.47040  0.78320  0.79660  Biso   1.000  H
  H783     1.0000 0.02960  0.28320  0.70340  Biso   1.000  H
  H784     1.0000 0.52960  0.78320  0.70340  Biso   1.000  H
  C809     1.0000 0.01630  0.59800  0.21100  Biso   1.000  C
  C810     1.0000 0.51630  0.09800  0.21100  Biso   1.000  C
  C811     1.0000 0.98370  0.59800  0.28900  Biso   1.000  C
  C812     1.0000 0.48370  0.09800  0.28900  Biso   1.000  C
  C813     1.0000 0.98370  0.40200  0.78900  Biso   1.000  C
  C814     1.0000 0.48370  0.90200  0.78900  Biso   1.000  C
  C815     1.0000 0.01630  0.40200  0.71100  Biso   1.000  C
  C816     1.0000 0.51630  0.90200  0.71100  Biso   1.000  C
  H785     1.0000 0.02720  0.57110  0.18880  Biso   1.000  H
  H786     1.0000 0.52720  0.07110  0.18880  Biso   1.000  H
  H787     1.0000 0.97280  0.57110  0.31120  Biso   1.000  H
  H788     1.0000 0.47280  0.07110  0.31120  Biso   1.000  H
  H789     1.0000 0.97280  0.42890  0.81120  Biso   1.000  H
  H790     1.0000 0.47280  0.92890  0.81120  Biso   1.000  H
  H791     1.0000 0.02720  0.42890  0.68880  Biso   1.000  H
  H792     1.0000 0.52720  0.92890  0.68880  Biso   1.000  H
  C817     1.0000 0.50120  0.94910  0.76520  Biso   1.000  C
  C818     1.0000 0.00120  0.44910  0.76520  Biso   1.000  C
  C819     1.0000 0.49880  0.94910  0.73480  Biso   1.000  C
  C820     1.0000 0.99880  0.44910  0.73480  Biso   1.000  C
  C821     1.0000 0.49880  0.05090  0.23480  Biso   1.000  C
  C822     1.0000 0.99880  0.55090  0.23480  Biso   1.000  C
  C823     1.0000 0.50120  0.05090  0.26520  Biso   1.000  C
  C824     1.0000 0.00120  0.55090  0.26520  Biso   1.000  C
  H793     1.0000 0.99790  0.49180  0.22890  Biso   1.000  H
  H794     1.0000 0.49790  0.99180  0.22890  Biso   1.000  H
  H795     1.0000 0.00210  0.49180  0.27110  Biso   1.000  H
  H796     1.0000 0.50210  0.99180  0.27110  Biso   1.000  H
  H797     1.0000 0.00210  0.50820  0.77110  Biso   1.000  H
  H798     1.0000 0.50210  0.00820  0.77110  Biso   1.000  H
  H799     1.0000 0.99790  0.50820  0.72890  Biso   1.000  H
  H800     1.0000 0.49790  0.00820  0.72890  Biso   1.000  H
  C825     1.0000 0.51720  0.90970  0.73270  Biso   1.000  C
  C826     1.0000 0.01720  0.40970  0.73270  Biso   1.000  C
  C827     1.0000 0.48280  0.90970  0.76730  Biso   1.000  C
  C828     1.0000 0.98280  0.40970  0.76730  Biso   1.000  C
  C829     1.0000 0.48280  0.09030  0.26730  Biso   1.000  C
  C830     1.0000 0.98280  0.59030  0.26730  Biso   1.000  C
  C831     1.0000 0.51720  0.09030  0.23270  Biso   1.000  C
  C832     1.0000 0.01720  0.59030  0.23270  Biso   1.000  C
  H801     1.0000 0.52910  0.94190  0.71640  Biso   1.000  H
  H802     1.0000 0.02910  0.44190  0.71640  Biso   1.000  H
  H803     1.0000 0.47090  0.94190  0.78360  Biso   1.000  H
  H804     1.0000 0.97090  0.44190  0.78360  Biso   1.000  H
  H805     1.0000 0.47090  0.05810  0.28360  Biso   1.000  H
  H806     1.0000 0.97090  0.55810  0.28360  Biso   1.000  H
  H807     1.0000 0.52910  0.05810  0.21640  Biso   1.000  H
  H808     1.0000 0.02910  0.55810  0.21640  Biso   1.000  H
  C833     1.0000 0.51580  0.82320  0.72400  Biso   1.000  C
  C834     1.0000 0.01580  0.32320  0.72400  Biso   1.000  C
  C835     1.0000 0.48420  0.82320  0.77600  Biso   1.000  C
  C836     1.0000 0.98420  0.32320  0.77600  Biso   1.000  C
  C837     1.0000 0.48420  0.17680  0.27600  Biso   1.000  C
  C838     1.0000 0.98420  0.67680  0.27600  Biso   1.000  C
  C839     1.0000 0.51580  0.17680  0.22400  Biso   1.000  C
  C840     1.0000 0.01580  0.67680  0.22400  Biso   1.000  C
  H809     1.0000 0.52680  0.79630  0.70170  Biso   1.000  H
  H810     1.0000 0.02680  0.29630  0.70170  Biso   1.000  H
  H811     1.0000 0.47320  0.79630  0.79830  Biso   1.000  H
  H812     1.0000 0.97320  0.29630  0.79830  Biso   1.000  H
  H813     1.0000 0.47320  0.20370  0.29830  Biso   1.000  H
  H814     1.0000 0.97320  0.70370  0.29830  Biso   1.000  H
  H815     1.0000 0.52680  0.20370  0.20170  Biso   1.000  H
  H816     1.0000 0.02680  0.70370  0.20170  Biso   1.000  H
  O169     1.0000 0.46900  0.69110  0.72180  Biso   1.000  O
  O170     1.0000 0.96900  0.19110  0.72180  Biso   1.000  O
  O171     1.0000 0.53100  0.69110  0.77820  Biso   1.000  O
  O172     1.0000 0.03100  0.19110  0.77820  Biso   1.000  O
  O173     1.0000 0.53100  0.30890  0.27820  Biso   1.000  O
  O174     1.0000 0.03100  0.80890  0.27820  Biso   1.000  O
  O175     1.0000 0.46900  0.30890  0.22180  Biso   1.000  O
  O176     1.0000 0.96900  0.80890  0.22180  Biso   1.000  O
  H817     1.0000 0.46460  0.74130  0.72510  Biso   1.000  H
  H818     1.0000 0.96460  0.24130  0.72510  Biso   1.000  H
  H819     1.0000 0.53540  0.74130  0.77490  Biso   1.000  H
  H820     1.0000 0.03540  0.24130  0.77490  Biso   1.000  H
  H821     1.0000 0.53540  0.25870  0.27490  Biso   1.000  H
  H822     1.0000 0.03540  0.75870  0.27490  Biso   1.000  H
  H823     1.0000 0.46460  0.25870  0.22510  Biso   1.000  H
  H824     1.0000 0.96460  0.75870  0.22510  Biso   1.000  H
  C841     1.0000 0.44930  0.64790  0.69280  Biso   1.000  C
  C842     1.0000 0.94930  0.14790  0.69280  Biso   1.000  C
  C843     1.0000 0.55070  0.64790  0.80720  Biso   1.000  C
  C844     1.0000 0.05070  0.14790  0.80720  Biso   1.000  C
  C845     1.0000 0.55070  0.35210  0.30720  Biso   1.000  C
  C846     1.0000 0.05070  0.85210  0.30720  Biso   1.000  C
  C847     1.0000 0.44930  0.35210  0.19280  Biso   1.000  C
  C848     1.0000 0.94930  0.85210  0.19280  Biso   1.000  C
  H825     1.0000 0.45350  0.58790  0.69530  Biso   1.000  H
  H826     1.0000 0.95350  0.08790  0.69530  Biso   1.000  H
  H827     1.0000 0.54650  0.58790  0.80470  Biso   1.000  H
  H828     1.0000 0.04650  0.08790  0.80470  Biso   1.000  H
  H829     1.0000 0.54650  0.41210  0.30470  Biso   1.000  H
  H830     1.0000 0.04650  0.91210  0.30470  Biso   1.000  H
  H831     1.0000 0.45350  0.41210  0.19530  Biso   1.000  H
  H832     1.0000 0.95350  0.91210  0.19530  Biso   1.000  H
  H833     1.0000 0.43460  0.65810  0.71150  Biso   1.000  H
  H834     1.0000 0.93460  0.15810  0.71150  Biso   1.000  H
  H835     1.0000 0.56540  0.65810  0.78850  Biso   1.000  H
  H836     1.0000 0.06540  0.15810  0.78850  Biso   1.000  H
  H837     1.0000 0.56540  0.34190  0.28850  Biso   1.000  H
  H838     1.0000 0.06540  0.84190  0.28850  Biso   1.000  H
  H839     1.0000 0.43460  0.34190  0.21150  Biso   1.000  H
  H840     1.0000 0.93460  0.84190  0.21150  Biso   1.000  H
  H841     1.0000 0.44480  0.66530  0.64990  Biso   1.000  H
  H842     1.0000 0.94480  0.16530  0.64990  Biso   1.000  H
  H843     1.0000 0.55520  0.66530  0.85010  Biso   1.000  H
  H844     1.0000 0.05520  0.16530  0.85010  Biso   1.000  H
  H845     1.0000 0.55520  0.33470  0.35010  Biso   1.000  H
  H846     1.0000 0.05520  0.83470  0.35010  Biso   1.000  H
  H847     1.0000 0.44480  0.33470  0.14990  Biso   1.000  H
  H848     1.0000 0.94480  0.83470  0.14990  Biso   1.000  H
