data_image0
_cell_length_a       52.867
_cell_length_b       16.102
_cell_length_c       23.17
_cell_angle_alpha    90
_cell_angle_beta     102.582
_cell_angle_gamma    90

_symmetry_space_group_name_H-M    "P 1"
_symmetry_int_tables_number       1

loop_
  _symmetry_equiv_pos_as_xyz
  'x, y, z'

loop_
  _atom_site_label
  _atom_site_occupancy
  _atom_site_fract_x
  _atom_site_fract_y
  _atom_site_fract_z
  _atom_site_thermal_displace_type
  _atom_site_B_iso_or_equiv
  _atom_site_type_symbol
  Cu1      1.0000 0.21908  0.08393  0.15969  Biso   1.000  Cu
  Cu2      1.0000 0.71908  0.58393  0.15969  Biso   1.000  Cu
  Cu3      1.0000 0.78092  0.08393  0.34031  Biso   1.000  Cu
  Cu4      1.0000 0.28092  0.58393  0.34031  Biso   1.000  Cu
  Cu5      1.0000 0.78092  0.91607  0.84031  Biso   1.000  Cu
  Cu6      1.0000 0.28092  0.41607  0.84031  Biso   1.000  Cu
  Cu7      1.0000 0.21908  0.91607  0.65969  Biso   1.000  Cu
  Cu8      1.0000 0.71908  0.41607  0.65969  Biso   1.000  Cu
  O1       1.0000 0.21778  0.51491  0.04625  Biso   1.000  O
  O2       1.0000 0.71778  0.01491  0.04625  Biso   1.000  O
  O3       1.0000 0.78222  0.51491  0.45375  Biso   1.000  O
  O4       1.0000 0.28222  0.01491  0.45375  Biso   1.000  O
  O5       1.0000 0.78222  0.48509  0.95375  Biso   1.000  O
  O6       1.0000 0.28222  0.98509  0.95375  Biso   1.000  O
  O7       1.0000 0.21778  0.48509  0.54625  Biso   1.000  O
  O8       1.0000 0.71778  0.98509  0.54625  Biso   1.000  O
  C1       1.0000 0.21986  0.82230  0.05181  Biso   1.000  C
  C2       1.0000 0.71986  0.32230  0.05181  Biso   1.000  C
  C3       1.0000 0.78014  0.82230  0.44819  Biso   1.000  C
  C4       1.0000 0.28014  0.32230  0.44819  Biso   1.000  C
  C5       1.0000 0.78014  0.17770  0.94819  Biso   1.000  C
  C6       1.0000 0.28014  0.67770  0.94819  Biso   1.000  C
  C7       1.0000 0.21986  0.17770  0.55181  Biso   1.000  C
  C8       1.0000 0.71986  0.67770  0.55181  Biso   1.000  C
  H1       1.0000 0.22190  0.86640  0.08230  Biso   1.000  H
  H2       1.0000 0.72190  0.36640  0.08230  Biso   1.000  H
  H3       1.0000 0.77810  0.86640  0.41770  Biso   1.000  H
  H4       1.0000 0.27810  0.36640  0.41770  Biso   1.000  H
  H5       1.0000 0.77810  0.13360  0.91770  Biso   1.000  H
  H6       1.0000 0.27810  0.63360  0.91770  Biso   1.000  H
  H7       1.0000 0.22190  0.13360  0.58230  Biso   1.000  H
  H8       1.0000 0.72190  0.63360  0.58230  Biso   1.000  H
  H9       1.0000 0.23640  0.81890  0.03840  Biso   1.000  H
  H10      1.0000 0.73640  0.31890  0.03840  Biso   1.000  H
  H11      1.0000 0.76360  0.81890  0.46160  Biso   1.000  H
  H12      1.0000 0.26360  0.31890  0.46160  Biso   1.000  H
  H13      1.0000 0.76360  0.18110  0.96160  Biso   1.000  H
  H14      1.0000 0.26360  0.68110  0.96160  Biso   1.000  H
  H15      1.0000 0.23640  0.18110  0.53840  Biso   1.000  H
  H16      1.0000 0.73640  0.68110  0.53840  Biso   1.000  H
  Cu9      1.0000 0.00000  0.83513  0.25000  Biso   1.000  Cu
  Cu10     1.0000 0.50000  0.33513  0.25000  Biso   1.000  Cu
  Cu11     1.0000 0.00000  0.16487  0.75000  Biso   1.000  Cu
  Cu12     1.0000 0.50000  0.66487  0.75000  Biso   1.000  Cu
  O9       1.0000 0.20080  0.50617  0.14439  Biso   1.000  O
  O10      1.0000 0.70080  0.00617  0.14439  Biso   1.000  O
  O11      1.0000 0.79920  0.50617  0.35561  Biso   1.000  O
  O12      1.0000 0.29920  0.00617  0.35561  Biso   1.000  O
  O13      1.0000 0.79920  0.49383  0.85561  Biso   1.000  O
  O14      1.0000 0.29920  0.99383  0.85561  Biso   1.000  O
  O15      1.0000 0.20080  0.49383  0.64439  Biso   1.000  O
  O16      1.0000 0.70080  0.99383  0.64439  Biso   1.000  O
  C9       1.0000 0.21553  0.73960  0.08068  Biso   1.000  C
  C10      1.0000 0.71553  0.23960  0.08068  Biso   1.000  C
  C11      1.0000 0.78447  0.73960  0.41932  Biso   1.000  C
  C12      1.0000 0.28447  0.23960  0.41932  Biso   1.000  C
  C13      1.0000 0.78447  0.26040  0.91932  Biso   1.000  C
  C14      1.0000 0.28447  0.76040  0.91932  Biso   1.000  C
  C15      1.0000 0.21553  0.26040  0.58068  Biso   1.000  C
  C16      1.0000 0.71553  0.76040  0.58068  Biso   1.000  C
  O17      1.0000 0.20737  0.19120  0.17950  Biso   1.000  O
  O18      1.0000 0.70737  0.69120  0.17950  Biso   1.000  O
  O19      1.0000 0.79263  0.19120  0.32050  Biso   1.000  O
  O20      1.0000 0.29263  0.69120  0.32050  Biso   1.000  O
  O21      1.0000 0.79263  0.80880  0.82050  Biso   1.000  O
  O22      1.0000 0.29263  0.30880  0.82050  Biso   1.000  O
  O23      1.0000 0.20737  0.80880  0.67950  Biso   1.000  O
  O24      1.0000 0.70737  0.30880  0.67950  Biso   1.000  O
  C17      1.0000 0.21923  0.66570  0.05190  Biso   1.000  C
  C18      1.0000 0.71923  0.16570  0.05190  Biso   1.000  C
  C19      1.0000 0.78077  0.66570  0.44810  Biso   1.000  C
  C20      1.0000 0.28077  0.16570  0.44810  Biso   1.000  C
  C21      1.0000 0.78077  0.33430  0.94810  Biso   1.000  C
  C22      1.0000 0.28077  0.83430  0.94810  Biso   1.000  C
  C23      1.0000 0.21923  0.33430  0.55190  Biso   1.000  C
  C24      1.0000 0.71923  0.83430  0.55190  Biso   1.000  C
  H17      1.0000 0.22490  0.66910  0.01580  Biso   1.000  H
  H18      1.0000 0.72490  0.16910  0.01580  Biso   1.000  H
  H19      1.0000 0.77510  0.66910  0.48420  Biso   1.000  H
  H20      1.0000 0.27510  0.16910  0.48420  Biso   1.000  H
  H21      1.0000 0.77510  0.33090  0.98420  Biso   1.000  H
  H22      1.0000 0.27510  0.83090  0.98420  Biso   1.000  H
  H23      1.0000 0.22490  0.33090  0.51580  Biso   1.000  H
  H24      1.0000 0.72490  0.83090  0.51580  Biso   1.000  H
  O25      1.0000 0.16969  0.13590  0.14073  Biso   1.000  O
  O26      1.0000 0.66969  0.63590  0.14073  Biso   1.000  O
  O27      1.0000 0.83031  0.13590  0.35927  Biso   1.000  O
  O28      1.0000 0.33031  0.63590  0.35927  Biso   1.000  O
  O29      1.0000 0.83031  0.86410  0.85927  Biso   1.000  O
  O30      1.0000 0.33031  0.36410  0.85927  Biso   1.000  O
  O31      1.0000 0.16969  0.86410  0.64073  Biso   1.000  O
  O32      1.0000 0.66969  0.36410  0.64073  Biso   1.000  O
  C25      1.0000 0.21505  0.58920  0.07302  Biso   1.000  C
  C26      1.0000 0.71505  0.08920  0.07302  Biso   1.000  C
  C27      1.0000 0.78495  0.58920  0.42698  Biso   1.000  C
  C28      1.0000 0.28495  0.08920  0.42698  Biso   1.000  C
  C29      1.0000 0.78495  0.41080  0.92698  Biso   1.000  C
  C30      1.0000 0.28495  0.91080  0.92698  Biso   1.000  C
  C31      1.0000 0.21505  0.41080  0.57302  Biso   1.000  C
  C32      1.0000 0.71505  0.91080  0.57302  Biso   1.000  C
  O33      1.0000 0.09037  0.41860  0.17680  Biso   1.000  O
  O34      1.0000 0.59037  0.91860  0.17680  Biso   1.000  O
  O35      1.0000 0.90963  0.41860  0.32320  Biso   1.000  O
  O36      1.0000 0.40963  0.91860  0.32320  Biso   1.000  O
  O37      1.0000 0.90963  0.58140  0.82320  Biso   1.000  O
  O38      1.0000 0.40963  0.08140  0.82320  Biso   1.000  O
  O39      1.0000 0.09037  0.58140  0.67680  Biso   1.000  O
  O40      1.0000 0.59037  0.08140  0.67680  Biso   1.000  O
  C33      1.0000 0.20664  0.58410  0.12649  Biso   1.000  C
  C34      1.0000 0.70664  0.08410  0.12649  Biso   1.000  C
  C35      1.0000 0.79336  0.58410  0.37351  Biso   1.000  C
  C36      1.0000 0.29336  0.08410  0.37351  Biso   1.000  C
  C37      1.0000 0.79336  0.41590  0.87351  Biso   1.000  C
  C38      1.0000 0.29336  0.91590  0.87351  Biso   1.000  C
  C39      1.0000 0.20664  0.41590  0.62649  Biso   1.000  C
  C40      1.0000 0.70664  0.91590  0.62649  Biso   1.000  C
  O41      1.0000 0.06171  0.55230  0.14510  Biso   1.000  O
  O42      1.0000 0.56171  0.05230  0.14510  Biso   1.000  O
  O43      1.0000 0.93829  0.55230  0.35490  Biso   1.000  O
  O44      1.0000 0.43829  0.05230  0.35490  Biso   1.000  O
  O45      1.0000 0.93829  0.44770  0.85490  Biso   1.000  O
  O46      1.0000 0.43829  0.94770  0.85490  Biso   1.000  O
  O47      1.0000 0.06171  0.44770  0.64510  Biso   1.000  O
  O48      1.0000 0.56171  0.94770  0.64510  Biso   1.000  O
  C41      1.0000 0.20394  0.65600  0.15629  Biso   1.000  C
  C42      1.0000 0.70394  0.15600  0.15629  Biso   1.000  C
  C43      1.0000 0.79606  0.65600  0.34371  Biso   1.000  C
  C44      1.0000 0.29606  0.15600  0.34371  Biso   1.000  C
  C45      1.0000 0.79606  0.34400  0.84371  Biso   1.000  C
  C46      1.0000 0.29606  0.84400  0.84371  Biso   1.000  C
  C47      1.0000 0.20394  0.34400  0.65629  Biso   1.000  C
  C48      1.0000 0.70394  0.84400  0.65629  Biso   1.000  C
  H25      1.0000 0.19950  0.65210  0.19380  Biso   1.000  H
  H26      1.0000 0.69950  0.15210  0.19380  Biso   1.000  H
  H27      1.0000 0.80050  0.65210  0.30620  Biso   1.000  H
  H28      1.0000 0.30050  0.15210  0.30620  Biso   1.000  H
  H29      1.0000 0.80050  0.34790  0.80620  Biso   1.000  H
  H30      1.0000 0.30050  0.84790  0.80620  Biso   1.000  H
  H31      1.0000 0.19950  0.34790  0.69380  Biso   1.000  H
  H32      1.0000 0.69950  0.84790  0.69380  Biso   1.000  H
  O49      1.0000 0.11257  0.72250  0.18949  Biso   1.000  O
  O50      1.0000 0.61257  0.22250  0.18949  Biso   1.000  O
  O51      1.0000 0.88743  0.72250  0.31051  Biso   1.000  O
  O52      1.0000 0.38743  0.22250  0.31051  Biso   1.000  O
  O53      1.0000 0.88743  0.27750  0.81051  Biso   1.000  O
  O54      1.0000 0.38743  0.77750  0.81051  Biso   1.000  O
  O55      1.0000 0.11257  0.27750  0.68949  Biso   1.000  O
  O56      1.0000 0.61257  0.77750  0.68949  Biso   1.000  O
  C49      1.0000 0.20739  0.73500  0.13381  Biso   1.000  C
  C50      1.0000 0.70739  0.23500  0.13381  Biso   1.000  C
  C51      1.0000 0.79261  0.73500  0.36619  Biso   1.000  C
  C52      1.0000 0.29261  0.23500  0.36619  Biso   1.000  C
  C53      1.0000 0.79261  0.26500  0.86619  Biso   1.000  C
  C54      1.0000 0.29261  0.76500  0.86619  Biso   1.000  C
  C55      1.0000 0.20739  0.26500  0.63381  Biso   1.000  C
  C56      1.0000 0.70739  0.76500  0.63381  Biso   1.000  C
  O57      1.0000 0.08959  0.79690  0.09484  Biso   1.000  O
  O58      1.0000 0.58959  0.29690  0.09484  Biso   1.000  O
  O59      1.0000 0.91041  0.79690  0.40516  Biso   1.000  O
  O60      1.0000 0.41041  0.29690  0.40516  Biso   1.000  O
  O61      1.0000 0.91041  0.20310  0.90516  Biso   1.000  O
  O62      1.0000 0.41041  0.70310  0.90516  Biso   1.000  O
  O63      1.0000 0.08959  0.20310  0.59484  Biso   1.000  O
  O64      1.0000 0.58959  0.70310  0.59484  Biso   1.000  O
  C57      1.0000 0.21706  0.51820  0.98420  Biso   1.000  C
  C58      1.0000 0.71706  0.01820  0.98420  Biso   1.000  C
  C59      1.0000 0.78294  0.51820  0.51580  Biso   1.000  C
  C60      1.0000 0.28294  0.01820  0.51580  Biso   1.000  C
  C61      1.0000 0.78294  0.48180  0.01580  Biso   1.000  C
  C62      1.0000 0.28294  0.98180  0.01580  Biso   1.000  C
  C63      1.0000 0.21706  0.48180  0.48420  Biso   1.000  C
  C64      1.0000 0.71706  0.98180  0.48420  Biso   1.000  C
  H33      1.0000 0.20300  0.55500  0.96480  Biso   1.000  H
  H34      1.0000 0.70300  0.05500  0.96480  Biso   1.000  H
  H35      1.0000 0.79700  0.55500  0.53520  Biso   1.000  H
  H36      1.0000 0.29700  0.05500  0.53520  Biso   1.000  H
  H37      1.0000 0.79700  0.44500  0.03520  Biso   1.000  H
  H38      1.0000 0.29700  0.94500  0.03520  Biso   1.000  H
  H39      1.0000 0.20300  0.44500  0.46480  Biso   1.000  H
  H40      1.0000 0.70300  0.94500  0.46480  Biso   1.000  H
  H41      1.0000 0.21410  0.46230  0.96730  Biso   1.000  H
  H42      1.0000 0.71410  0.96230  0.96730  Biso   1.000  H
  H43      1.0000 0.78590  0.46230  0.53270  Biso   1.000  H
  H44      1.0000 0.28590  0.96230  0.53270  Biso   1.000  H
  H45      1.0000 0.78590  0.53770  0.03270  Biso   1.000  H
  H46      1.0000 0.28590  0.03770  0.03270  Biso   1.000  H
  H47      1.0000 0.21410  0.53770  0.46730  Biso   1.000  H
  H48      1.0000 0.71410  0.03770  0.46730  Biso   1.000  H
  H49      1.0000 0.23360  0.53950  0.97790  Biso   1.000  H
  H50      1.0000 0.73360  0.03950  0.97790  Biso   1.000  H
  H51      1.0000 0.76640  0.53950  0.52210  Biso   1.000  H
  H52      1.0000 0.26640  0.03950  0.52210  Biso   1.000  H
  H53      1.0000 0.76640  0.46050  0.02210  Biso   1.000  H
  H54      1.0000 0.26640  0.96050  0.02210  Biso   1.000  H
  H55      1.0000 0.23360  0.46050  0.47790  Biso   1.000  H
  H56      1.0000 0.73360  0.96050  0.47790  Biso   1.000  H
  O65      1.0000 0.00962  0.83665  0.17263  Biso   1.000  O
  O66      1.0000 0.50962  0.33665  0.17263  Biso   1.000  O
  O67      1.0000 0.99038  0.83665  0.32737  Biso   1.000  O
  O68      1.0000 0.49038  0.33665  0.32737  Biso   1.000  O
  O69      1.0000 0.99038  0.16335  0.82737  Biso   1.000  O
  O70      1.0000 0.49038  0.66335  0.82737  Biso   1.000  O
  O71      1.0000 0.00962  0.16335  0.67263  Biso   1.000  O
  O72      1.0000 0.50962  0.66335  0.67263  Biso   1.000  O
  C65      1.0000 0.18504  0.50500  0.18746  Biso   1.000  C
  C66      1.0000 0.68504  0.00500  0.18746  Biso   1.000  C
  C67      1.0000 0.81496  0.50500  0.31254  Biso   1.000  C
  C68      1.0000 0.31496  0.00500  0.31254  Biso   1.000  C
  C69      1.0000 0.81496  0.49500  0.81254  Biso   1.000  C
  C70      1.0000 0.31496  0.99500  0.81254  Biso   1.000  C
  C71      1.0000 0.18504  0.49500  0.68746  Biso   1.000  C
  C72      1.0000 0.68504  0.99500  0.68746  Biso   1.000  C
  H57      1.0000 0.17220  0.55050  0.17940  Biso   1.000  H
  H58      1.0000 0.67220  0.05050  0.17940  Biso   1.000  H
  H59      1.0000 0.82780  0.55050  0.32060  Biso   1.000  H
  H60      1.0000 0.32780  0.05050  0.32060  Biso   1.000  H
  H61      1.0000 0.82780  0.44950  0.82060  Biso   1.000  H
  H62      1.0000 0.32780  0.94950  0.82060  Biso   1.000  H
  H63      1.0000 0.17220  0.44950  0.67940  Biso   1.000  H
  H64      1.0000 0.67220  0.94950  0.67940  Biso   1.000  H
  H65      1.0000 0.19600  0.51350  0.22750  Biso   1.000  H
  H66      1.0000 0.69600  0.01350  0.22750  Biso   1.000  H
  H67      1.0000 0.80400  0.51350  0.27250  Biso   1.000  H
  H68      1.0000 0.30400  0.01350  0.27250  Biso   1.000  H
  H69      1.0000 0.80400  0.48650  0.77250  Biso   1.000  H
  H70      1.0000 0.30400  0.98650  0.77250  Biso   1.000  H
  H71      1.0000 0.19600  0.48650  0.72750  Biso   1.000  H
  H72      1.0000 0.69600  0.98650  0.72750  Biso   1.000  H
  O73      1.0000 0.97249  0.79180  0.11614  Biso   1.000  O
  O74      1.0000 0.47249  0.29180  0.11614  Biso   1.000  O
  O75      1.0000 0.02751  0.79180  0.38386  Biso   1.000  O
  O76      1.0000 0.52751  0.29180  0.38386  Biso   1.000  O
  O77      1.0000 0.02751  0.20820  0.88386  Biso   1.000  O
  O78      1.0000 0.52751  0.70820  0.88386  Biso   1.000  O
  O79      1.0000 0.97249  0.20820  0.61614  Biso   1.000  O
  O80      1.0000 0.47249  0.70820  0.61614  Biso   1.000  O
  C73      1.0000 0.17134  0.42280  0.18483  Biso   1.000  C
  C74      1.0000 0.67134  0.92280  0.18483  Biso   1.000  C
  C75      1.0000 0.82866  0.42280  0.31517  Biso   1.000  C
  C76      1.0000 0.32866  0.92280  0.31517  Biso   1.000  C
  C77      1.0000 0.82866  0.57720  0.81517  Biso   1.000  C
  C78      1.0000 0.32866  0.07720  0.81517  Biso   1.000  C
  C79      1.0000 0.17134  0.57720  0.68483  Biso   1.000  C
  C80      1.0000 0.67134  0.07720  0.68483  Biso   1.000  C
  O81      1.0000 0.00650  0.72170  0.86945  Biso   1.000  O
  O82      1.0000 0.50650  0.22170  0.86945  Biso   1.000  O
  O83      1.0000 0.99350  0.72170  0.63055  Biso   1.000  O
  O84      1.0000 0.49350  0.22170  0.63055  Biso   1.000  O
  O85      1.0000 0.99350  0.27830  0.13055  Biso   1.000  O
  O86      1.0000 0.49350  0.77830  0.13055  Biso   1.000  O
  O87      1.0000 0.00650  0.27830  0.36945  Biso   1.000  O
  O88      1.0000 0.50650  0.77830  0.36945  Biso   1.000  O
  C81      1.0000 0.14548  0.42080  0.18818  Biso   1.000  C
  C82      1.0000 0.64548  0.92080  0.18818  Biso   1.000  C
  C83      1.0000 0.85452  0.42080  0.31182  Biso   1.000  C
  C84      1.0000 0.35452  0.92080  0.31182  Biso   1.000  C
  C85      1.0000 0.85452  0.57920  0.81182  Biso   1.000  C
  C86      1.0000 0.35452  0.07920  0.81182  Biso   1.000  C
  C87      1.0000 0.14548  0.57920  0.68818  Biso   1.000  C
  C88      1.0000 0.64548  0.07920  0.68818  Biso   1.000  C
  H73      1.0000 0.13680  0.47170  0.19150  Biso   1.000  H
  H74      1.0000 0.63680  0.97170  0.19150  Biso   1.000  H
  H75      1.0000 0.86320  0.47170  0.30850  Biso   1.000  H
  H76      1.0000 0.36320  0.97170  0.30850  Biso   1.000  H
  H77      1.0000 0.86320  0.52830  0.80850  Biso   1.000  H
  H78      1.0000 0.36320  0.02830  0.80850  Biso   1.000  H
  H79      1.0000 0.13680  0.52830  0.69150  Biso   1.000  H
  H80      1.0000 0.63680  0.02830  0.69150  Biso   1.000  H
  O89      1.0000 0.03305  0.69790  0.78820  Biso   1.000  O
  O90      1.0000 0.53305  0.19790  0.78820  Biso   1.000  O
  O91      1.0000 0.96695  0.69790  0.71180  Biso   1.000  O
  O92      1.0000 0.46695  0.19790  0.71180  Biso   1.000  O
  O93      1.0000 0.96695  0.30210  0.21180  Biso   1.000  O
  O94      1.0000 0.46695  0.80210  0.21180  Biso   1.000  O
  O95      1.0000 0.03305  0.30210  0.28820  Biso   1.000  O
  O96      1.0000 0.53305  0.80210  0.28820  Biso   1.000  O
  C89      1.0000 0.13202  0.34740  0.18687  Biso   1.000  C
  C90      1.0000 0.63202  0.84740  0.18687  Biso   1.000  C
  C91      1.0000 0.86798  0.34740  0.31313  Biso   1.000  C
  C92      1.0000 0.36798  0.84740  0.31313  Biso   1.000  C
  C93      1.0000 0.86798  0.65260  0.81313  Biso   1.000  C
  C94      1.0000 0.36798  0.15260  0.81313  Biso   1.000  C
  C95      1.0000 0.13202  0.65260  0.68687  Biso   1.000  C
  C96      1.0000 0.63202  0.15260  0.68687  Biso   1.000  C
  O97      1.0000 0.14510  0.92690  0.85067  Biso   1.000  O
  O98      1.0000 0.64510  0.42690  0.85067  Biso   1.000  O
  O99      1.0000 0.85490  0.92690  0.64933  Biso   1.000  O
  O100     1.0000 0.35490  0.42690  0.64933  Biso   1.000  O
  O101     1.0000 0.85490  0.07310  0.14933  Biso   1.000  O
  O102     1.0000 0.35490  0.57310  0.14933  Biso   1.000  O
  O103     1.0000 0.14510  0.07310  0.35067  Biso   1.000  O
  O104     1.0000 0.64510  0.57310  0.35067  Biso   1.000  O
  C97      1.0000 0.14420  0.27410  0.17820  Biso   1.000  C
  C98      1.0000 0.64420  0.77410  0.17820  Biso   1.000  C
  C99      1.0000 0.85580  0.27410  0.32180  Biso   1.000  C
  C100     1.0000 0.35580  0.77410  0.32180  Biso   1.000  C
  C101     1.0000 0.85580  0.72590  0.82180  Biso   1.000  C
  C102     1.0000 0.35580  0.22590  0.82180  Biso   1.000  C
  C103     1.0000 0.14420  0.72590  0.67820  Biso   1.000  C
  C104     1.0000 0.64420  0.22590  0.67820  Biso   1.000  C
  H81      1.0000 0.13480  0.22340  0.17430  Biso   1.000  H
  H82      1.0000 0.63480  0.72340  0.17430  Biso   1.000  H
  H83      1.0000 0.86520  0.22340  0.32570  Biso   1.000  H
  H84      1.0000 0.36520  0.72340  0.32570  Biso   1.000  H
  H85      1.0000 0.86520  0.77660  0.82570  Biso   1.000  H
  H86      1.0000 0.36520  0.27660  0.82570  Biso   1.000  H
  H87      1.0000 0.13480  0.77660  0.67430  Biso   1.000  H
  H88      1.0000 0.63480  0.27660  0.67430  Biso   1.000  H
  O105     1.0000 0.18795  0.84279  0.83601  Biso   1.000  O
  O106     1.0000 0.68795  0.34279  0.83601  Biso   1.000  O
  O107     1.0000 0.81205  0.84279  0.66399  Biso   1.000  O
  O108     1.0000 0.31205  0.34279  0.66399  Biso   1.000  O
  O109     1.0000 0.81205  0.15721  0.16399  Biso   1.000  O
  O110     1.0000 0.31205  0.65721  0.16399  Biso   1.000  O
  O111     1.0000 0.18795  0.15721  0.33601  Biso   1.000  O
  O112     1.0000 0.68795  0.65721  0.33601  Biso   1.000  O
  C105     1.0000 0.17010  0.27390  0.17516  Biso   1.000  C
  C106     1.0000 0.67010  0.77390  0.17516  Biso   1.000  C
  C107     1.0000 0.82990  0.27390  0.32484  Biso   1.000  C
  C108     1.0000 0.32990  0.77390  0.32484  Biso   1.000  C
  C109     1.0000 0.82990  0.72610  0.82484  Biso   1.000  C
  C110     1.0000 0.32990  0.22610  0.82484  Biso   1.000  C
  C111     1.0000 0.17010  0.72610  0.67516  Biso   1.000  C
  C112     1.0000 0.67010  0.22610  0.67516  Biso   1.000  C
  O113     1.0000 0.26259  0.51803  0.85260  Biso   1.000  O
  O114     1.0000 0.76259  0.01803  0.85260  Biso   1.000  O
  O115     1.0000 0.73741  0.51803  0.64740  Biso   1.000  O
  O116     1.0000 0.23741  0.01803  0.64740  Biso   1.000  O
  O117     1.0000 0.73741  0.48197  0.14740  Biso   1.000  O
  O118     1.0000 0.23741  0.98197  0.14740  Biso   1.000  O
  O119     1.0000 0.26259  0.48197  0.35260  Biso   1.000  O
  O120     1.0000 0.76259  0.98197  0.35260  Biso   1.000  O
  C113     1.0000 0.18369  0.34860  0.18046  Biso   1.000  C
  C114     1.0000 0.68369  0.84860  0.18046  Biso   1.000  C
  C115     1.0000 0.81631  0.34860  0.31954  Biso   1.000  C
  C116     1.0000 0.31631  0.84860  0.31954  Biso   1.000  C
  C117     1.0000 0.81631  0.65140  0.81954  Biso   1.000  C
  C118     1.0000 0.31631  0.15140  0.81954  Biso   1.000  C
  C119     1.0000 0.18369  0.65140  0.68046  Biso   1.000  C
  C120     1.0000 0.68369  0.15140  0.68046  Biso   1.000  C
  H89      1.0000 0.20170  0.34840  0.18110  Biso   1.000  H
  H90      1.0000 0.70170  0.84840  0.18110  Biso   1.000  H
  H91      1.0000 0.79830  0.34840  0.31890  Biso   1.000  H
  H92      1.0000 0.29830  0.84840  0.31890  Biso   1.000  H
  H93      1.0000 0.79830  0.65160  0.81890  Biso   1.000  H
  H94      1.0000 0.29830  0.15160  0.81890  Biso   1.000  H
  H95      1.0000 0.20170  0.65160  0.68110  Biso   1.000  H
  H96      1.0000 0.70170  0.15160  0.68110  Biso   1.000  H
  O121     1.0000 0.23309  0.42426  0.81574  Biso   1.000  O
  O122     1.0000 0.73309  0.92426  0.81574  Biso   1.000  O
  O123     1.0000 0.76691  0.42426  0.68426  Biso   1.000  O
  O124     1.0000 0.26691  0.92426  0.68426  Biso   1.000  O
  O125     1.0000 0.76691  0.57574  0.18426  Biso   1.000  O
  O126     1.0000 0.26691  0.07574  0.18426  Biso   1.000  O
  O127     1.0000 0.23309  0.57574  0.31574  Biso   1.000  O
  O128     1.0000 0.73309  0.07574  0.31574  Biso   1.000  O
  C121     1.0000 0.18282  0.19470  0.16490  Biso   1.000  C
  C122     1.0000 0.68282  0.69470  0.16490  Biso   1.000  C
  C123     1.0000 0.81718  0.19470  0.33510  Biso   1.000  C
  C124     1.0000 0.31718  0.69470  0.33510  Biso   1.000  C
  C125     1.0000 0.81718  0.80530  0.83510  Biso   1.000  C
  C126     1.0000 0.31718  0.30530  0.83510  Biso   1.000  C
  C127     1.0000 0.18282  0.80530  0.66490  Biso   1.000  C
  C128     1.0000 0.68282  0.30530  0.66490  Biso   1.000  C
  C129     1.0000 0.10492  0.34530  0.19730  Biso   1.000  C
  C130     1.0000 0.60492  0.84530  0.19730  Biso   1.000  C
  C131     1.0000 0.89508  0.34530  0.30270  Biso   1.000  C
  C132     1.0000 0.39508  0.84530  0.30270  Biso   1.000  C
  C133     1.0000 0.89508  0.65470  0.80270  Biso   1.000  C
  C134     1.0000 0.39508  0.15470  0.80270  Biso   1.000  C
  C135     1.0000 0.10492  0.65470  0.69730  Biso   1.000  C
  C136     1.0000 0.60492  0.15470  0.69730  Biso   1.000  C
  H97      1.0000 0.09570  0.29630  0.17690  Biso   1.000  H
  H98      1.0000 0.59570  0.79630  0.17690  Biso   1.000  H
  H99      1.0000 0.90430  0.29630  0.32310  Biso   1.000  H
  H100     1.0000 0.40430  0.79630  0.32310  Biso   1.000  H
  H101     1.0000 0.90430  0.70370  0.82310  Biso   1.000  H
  H102     1.0000 0.40430  0.20370  0.82310  Biso   1.000  H
  H103     1.0000 0.09570  0.70370  0.67690  Biso   1.000  H
  H104     1.0000 0.59570  0.20370  0.67690  Biso   1.000  H
  H105     1.0000 0.10580  0.33870  0.24020  Biso   1.000  H
  H106     1.0000 0.60580  0.83870  0.24020  Biso   1.000  H
  H107     1.0000 0.89420  0.33870  0.25980  Biso   1.000  H
  H108     1.0000 0.39420  0.83870  0.25980  Biso   1.000  H
  H109     1.0000 0.89420  0.66130  0.75980  Biso   1.000  H
  H110     1.0000 0.39420  0.16130  0.75980  Biso   1.000  H
  H111     1.0000 0.10580  0.66130  0.74020  Biso   1.000  H
  H112     1.0000 0.60580  0.16130  0.74020  Biso   1.000  H
  O129     1.0000 0.16448  0.40370  0.98197  Biso   1.000  O
  O130     1.0000 0.66448  0.90370  0.98197  Biso   1.000  O
  O131     1.0000 0.83552  0.40370  0.51803  Biso   1.000  O
  O132     1.0000 0.33552  0.90370  0.51803  Biso   1.000  O
  O133     1.0000 0.83552  0.59630  0.01803  Biso   1.000  O
  O134     1.0000 0.33552  0.09630  0.01803  Biso   1.000  O
  O135     1.0000 0.16448  0.59630  0.48197  Biso   1.000  O
  O136     1.0000 0.66448  0.09630  0.48197  Biso   1.000  O
  C137     1.0000 0.07775  0.42150  0.11809  Biso   1.000  C
  C138     1.0000 0.57775  0.92150  0.11809  Biso   1.000  C
  C139     1.0000 0.92225  0.42150  0.38191  Biso   1.000  C
  C140     1.0000 0.42225  0.92150  0.38191  Biso   1.000  C
  C141     1.0000 0.92225  0.57850  0.88191  Biso   1.000  C
  C142     1.0000 0.42225  0.07850  0.88191  Biso   1.000  C
  C143     1.0000 0.07775  0.57850  0.61809  Biso   1.000  C
  C144     1.0000 0.57775  0.07850  0.61809  Biso   1.000  C
  C145     1.0000 0.08101  0.36570  0.07500  Biso   1.000  C
  C146     1.0000 0.58101  0.86570  0.07500  Biso   1.000  C
  C147     1.0000 0.91899  0.36570  0.42500  Biso   1.000  C
  C148     1.0000 0.41899  0.86570  0.42500  Biso   1.000  C
  C149     1.0000 0.91899  0.63430  0.92500  Biso   1.000  C
  C150     1.0000 0.41899  0.13430  0.92500  Biso   1.000  C
  C151     1.0000 0.08101  0.63430  0.57500  Biso   1.000  C
  C152     1.0000 0.58101  0.13430  0.57500  Biso   1.000  C
  H113     1.0000 0.09340  0.32240  0.08520  Biso   1.000  H
  H114     1.0000 0.59340  0.82240  0.08520  Biso   1.000  H
  H115     1.0000 0.90660  0.32240  0.41480  Biso   1.000  H
  H116     1.0000 0.40660  0.82240  0.41480  Biso   1.000  H
  H117     1.0000 0.90660  0.67760  0.91480  Biso   1.000  H
  H118     1.0000 0.40660  0.17760  0.91480  Biso   1.000  H
  H119     1.0000 0.09340  0.67760  0.58520  Biso   1.000  H
  H120     1.0000 0.59340  0.17760  0.58520  Biso   1.000  H
  C153     1.0000 0.06641  0.37110  0.01600  Biso   1.000  C
  C154     1.0000 0.56641  0.87110  0.01600  Biso   1.000  C
  C155     1.0000 0.93359  0.37110  0.48400  Biso   1.000  C
  C156     1.0000 0.43359  0.87110  0.48400  Biso   1.000  C
  C157     1.0000 0.93359  0.62890  0.98400  Biso   1.000  C
  C158     1.0000 0.43359  0.12890  0.98400  Biso   1.000  C
  C159     1.0000 0.06641  0.62890  0.51600  Biso   1.000  C
  C160     1.0000 0.56641  0.12890  0.51600  Biso   1.000  C
  C161     1.0000 0.04727  0.43080  0.00290  Biso   1.000  C
  C162     1.0000 0.54727  0.93080  0.00290  Biso   1.000  C
  C163     1.0000 0.95273  0.43080  0.49710  Biso   1.000  C
  C164     1.0000 0.45273  0.93080  0.49710  Biso   1.000  C
  C165     1.0000 0.95273  0.56920  0.99710  Biso   1.000  C
  C166     1.0000 0.45273  0.06920  0.99710  Biso   1.000  C
  C167     1.0000 0.04727  0.56920  0.50290  Biso   1.000  C
  C168     1.0000 0.54727  0.06920  0.50290  Biso   1.000  C
  C169     1.0000 0.04552  0.48960  0.04630  Biso   1.000  C
  C170     1.0000 0.54552  0.98960  0.04630  Biso   1.000  C
  C171     1.0000 0.95448  0.48960  0.45370  Biso   1.000  C
  C172     1.0000 0.45448  0.98960  0.45370  Biso   1.000  C
  C173     1.0000 0.95448  0.51040  0.95370  Biso   1.000  C
  C174     1.0000 0.45448  0.01040  0.95370  Biso   1.000  C
  C175     1.0000 0.04552  0.51040  0.54630  Biso   1.000  C
  C176     1.0000 0.54552  0.01040  0.54630  Biso   1.000  C
  H121     1.0000 0.03320  0.53300  0.03650  Biso   1.000  H
  H122     1.0000 0.53320  0.03300  0.03650  Biso   1.000  H
  H123     1.0000 0.96680  0.53300  0.46350  Biso   1.000  H
  H124     1.0000 0.46680  0.03300  0.46350  Biso   1.000  H
  H125     1.0000 0.96680  0.46700  0.96350  Biso   1.000  H
  H126     1.0000 0.46680  0.96700  0.96350  Biso   1.000  H
  H127     1.0000 0.03320  0.46700  0.53650  Biso   1.000  H
  H128     1.0000 0.53320  0.96700  0.53650  Biso   1.000  H
  C177     1.0000 0.06071  0.48770  0.10220  Biso   1.000  C
  C178     1.0000 0.56071  0.98770  0.10220  Biso   1.000  C
  C179     1.0000 0.93929  0.48770  0.39780  Biso   1.000  C
  C180     1.0000 0.43929  0.98770  0.39780  Biso   1.000  C
  C181     1.0000 0.93929  0.51230  0.89780  Biso   1.000  C
  C182     1.0000 0.43929  0.01230  0.89780  Biso   1.000  C
  C183     1.0000 0.06071  0.51230  0.60220  Biso   1.000  C
  C184     1.0000 0.56071  0.01230  0.60220  Biso   1.000  C
  C185     1.0000 0.05574  0.63250  0.12370  Biso   1.000  C
  C186     1.0000 0.55574  0.13250  0.12370  Biso   1.000  C
  C187     1.0000 0.94426  0.63250  0.37630  Biso   1.000  C
  C188     1.0000 0.44426  0.13250  0.37630  Biso   1.000  C
  C189     1.0000 0.94426  0.36750  0.87630  Biso   1.000  C
  C190     1.0000 0.44426  0.86750  0.87630  Biso   1.000  C
  C191     1.0000 0.05574  0.36750  0.62370  Biso   1.000  C
  C192     1.0000 0.55574  0.86750  0.62370  Biso   1.000  C
  H129     1.0000 0.06110  0.67260  0.15590  Biso   1.000  H
  H130     1.0000 0.56110  0.17260  0.15590  Biso   1.000  H
  H131     1.0000 0.93890  0.67260  0.34410  Biso   1.000  H
  H132     1.0000 0.43890  0.17260  0.34410  Biso   1.000  H
  H133     1.0000 0.93890  0.32740  0.84410  Biso   1.000  H
  H134     1.0000 0.43890  0.82740  0.84410  Biso   1.000  H
  H135     1.0000 0.06110  0.32740  0.65590  Biso   1.000  H
  H136     1.0000 0.56110  0.82740  0.65590  Biso   1.000  H
  H137     1.0000 0.03700  0.63710  0.10800  Biso   1.000  H
  H138     1.0000 0.53700  0.13710  0.10800  Biso   1.000  H
  H139     1.0000 0.96300  0.63710  0.39200  Biso   1.000  H
  H140     1.0000 0.46300  0.13710  0.39200  Biso   1.000  H
  H141     1.0000 0.96300  0.36290  0.89200  Biso   1.000  H
  H142     1.0000 0.46300  0.86290  0.89200  Biso   1.000  H
  H143     1.0000 0.03700  0.36290  0.60800  Biso   1.000  H
  H144     1.0000 0.53700  0.86290  0.60800  Biso   1.000  H
  H145     1.0000 0.06490  0.64430  0.09210  Biso   1.000  H
  H146     1.0000 0.56490  0.14430  0.09210  Biso   1.000  H
  H147     1.0000 0.93510  0.64430  0.40790  Biso   1.000  H
  H148     1.0000 0.43510  0.14430  0.40790  Biso   1.000  H
  H149     1.0000 0.93510  0.35570  0.90790  Biso   1.000  H
  H150     1.0000 0.43510  0.85570  0.90790  Biso   1.000  H
  H151     1.0000 0.06490  0.35570  0.59210  Biso   1.000  H
  H152     1.0000 0.56490  0.85570  0.59210  Biso   1.000  H
  C193     1.0000 0.02761  0.43620  0.94420  Biso   1.000  C
  C194     1.0000 0.52761  0.93620  0.94420  Biso   1.000  C
  C195     1.0000 0.97239  0.43620  0.55580  Biso   1.000  C
  C196     1.0000 0.47239  0.93620  0.55580  Biso   1.000  C
  C197     1.0000 0.97239  0.56380  0.05580  Biso   1.000  C
  C198     1.0000 0.47239  0.06380  0.05580  Biso   1.000  C
  C199     1.0000 0.02761  0.56380  0.44420  Biso   1.000  C
  C200     1.0000 0.52761  0.06380  0.44420  Biso   1.000  C
  H153     1.0000 0.02820  0.38350  0.92250  Biso   1.000  H
  H154     1.0000 0.52820  0.88350  0.92250  Biso   1.000  H
  H155     1.0000 0.97180  0.38350  0.57750  Biso   1.000  H
  H156     1.0000 0.47180  0.88350  0.57750  Biso   1.000  H
  H157     1.0000 0.97180  0.61650  0.07750  Biso   1.000  H
  H158     1.0000 0.47180  0.11650  0.07750  Biso   1.000  H
  H159     1.0000 0.02820  0.61650  0.42250  Biso   1.000  H
  H160     1.0000 0.52820  0.11650  0.42250  Biso   1.000  H
  H161     1.0000 0.01010  0.44090  0.95270  Biso   1.000  H
  H162     1.0000 0.51010  0.94090  0.95270  Biso   1.000  H
  H163     1.0000 0.98990  0.44090  0.54730  Biso   1.000  H
  H164     1.0000 0.48990  0.94090  0.54730  Biso   1.000  H
  H165     1.0000 0.98990  0.55910  0.04730  Biso   1.000  H
  H166     1.0000 0.48990  0.05910  0.04730  Biso   1.000  H
  H167     1.0000 0.01010  0.55910  0.45270  Biso   1.000  H
  H168     1.0000 0.51010  0.05910  0.45270  Biso   1.000  H
  C201     1.0000 0.19905  0.80880  0.16650  Biso   1.000  C
  C202     1.0000 0.69905  0.30880  0.16650  Biso   1.000  C
  C203     1.0000 0.80095  0.80880  0.33350  Biso   1.000  C
  C204     1.0000 0.30095  0.30880  0.33350  Biso   1.000  C
  C205     1.0000 0.80095  0.19120  0.83350  Biso   1.000  C
  C206     1.0000 0.30095  0.69120  0.83350  Biso   1.000  C
  C207     1.0000 0.19905  0.19120  0.66650  Biso   1.000  C
  C208     1.0000 0.69905  0.69120  0.66650  Biso   1.000  C
  H169     1.0000 0.20420  0.79970  0.20970  Biso   1.000  H
  H170     1.0000 0.70420  0.29970  0.20970  Biso   1.000  H
  H171     1.0000 0.79580  0.79970  0.29030  Biso   1.000  H
  H172     1.0000 0.29580  0.29970  0.29030  Biso   1.000  H
  H173     1.0000 0.79580  0.20030  0.79030  Biso   1.000  H
  H174     1.0000 0.29580  0.70030  0.79030  Biso   1.000  H
  H175     1.0000 0.20420  0.20030  0.70970  Biso   1.000  H
  H176     1.0000 0.70420  0.70030  0.70970  Biso   1.000  H
  H177     1.0000 0.20760  0.86010  0.15680  Biso   1.000  H
  H178     1.0000 0.70760  0.36010  0.15680  Biso   1.000  H
  H179     1.0000 0.79240  0.86010  0.34320  Biso   1.000  H
  H180     1.0000 0.29240  0.36010  0.34320  Biso   1.000  H
  H181     1.0000 0.79240  0.13990  0.84320  Biso   1.000  H
  H182     1.0000 0.29240  0.63990  0.84320  Biso   1.000  H
  H183     1.0000 0.20760  0.13990  0.65680  Biso   1.000  H
  H184     1.0000 0.70760  0.63990  0.65680  Biso   1.000  H
  C209     1.0000 0.16969  0.81740  0.14751  Biso   1.000  C
  C210     1.0000 0.66969  0.31740  0.14751  Biso   1.000  C
  C211     1.0000 0.83031  0.81740  0.35249  Biso   1.000  C
  C212     1.0000 0.33031  0.31740  0.35249  Biso   1.000  C
  C213     1.0000 0.83031  0.18260  0.85249  Biso   1.000  C
  C214     1.0000 0.33031  0.68260  0.85249  Biso   1.000  C
  C215     1.0000 0.16969  0.18260  0.64751  Biso   1.000  C
  C216     1.0000 0.66969  0.68260  0.64751  Biso   1.000  C
  C217     1.0000 0.15490  0.77080  0.17880  Biso   1.000  C
  C218     1.0000 0.65490  0.27080  0.17880  Biso   1.000  C
  C219     1.0000 0.84510  0.77080  0.32120  Biso   1.000  C
  C220     1.0000 0.34510  0.27080  0.32120  Biso   1.000  C
  C221     1.0000 0.84510  0.22920  0.82120  Biso   1.000  C
  C222     1.0000 0.34510  0.72920  0.82120  Biso   1.000  C
  C223     1.0000 0.15490  0.22920  0.67880  Biso   1.000  C
  C224     1.0000 0.65490  0.72920  0.67880  Biso   1.000  C
  H185     1.0000 0.16330  0.74180  0.21330  Biso   1.000  H
  H186     1.0000 0.66330  0.24180  0.21330  Biso   1.000  H
  H187     1.0000 0.83670  0.74180  0.28670  Biso   1.000  H
  H188     1.0000 0.33670  0.24180  0.28670  Biso   1.000  H
  H189     1.0000 0.83670  0.25820  0.78670  Biso   1.000  H
  H190     1.0000 0.33670  0.75820  0.78670  Biso   1.000  H
  H191     1.0000 0.16330  0.25820  0.71330  Biso   1.000  H
  H192     1.0000 0.66330  0.75820  0.71330  Biso   1.000  H
  C225     1.0000 0.12848  0.76580  0.16090  Biso   1.000  C
  C226     1.0000 0.62848  0.26580  0.16090  Biso   1.000  C
  C227     1.0000 0.87152  0.76580  0.33910  Biso   1.000  C
  C228     1.0000 0.37152  0.26580  0.33910  Biso   1.000  C
  C229     1.0000 0.87152  0.23420  0.83910  Biso   1.000  C
  C230     1.0000 0.37152  0.73420  0.83910  Biso   1.000  C
  C231     1.0000 0.12848  0.23420  0.66090  Biso   1.000  C
  C232     1.0000 0.62848  0.73420  0.66090  Biso   1.000  C
  C233     1.0000 0.11610  0.80790  0.10980  Biso   1.000  C
  C234     1.0000 0.61610  0.30790  0.10980  Biso   1.000  C
  C235     1.0000 0.88390  0.80790  0.39020  Biso   1.000  C
  C236     1.0000 0.38390  0.30790  0.39020  Biso   1.000  C
  C237     1.0000 0.88390  0.19210  0.89020  Biso   1.000  C
  C238     1.0000 0.38390  0.69210  0.89020  Biso   1.000  C
  C239     1.0000 0.11610  0.19210  0.60980  Biso   1.000  C
  C240     1.0000 0.61610  0.69210  0.60980  Biso   1.000  C
  C241     1.0000 0.13059  0.85600  0.07970  Biso   1.000  C
  C242     1.0000 0.63059  0.35600  0.07970  Biso   1.000  C
  C243     1.0000 0.86941  0.85600  0.42030  Biso   1.000  C
  C244     1.0000 0.36941  0.35600  0.42030  Biso   1.000  C
  C245     1.0000 0.86941  0.14400  0.92030  Biso   1.000  C
  C246     1.0000 0.36941  0.64400  0.92030  Biso   1.000  C
  C247     1.0000 0.13059  0.14400  0.57970  Biso   1.000  C
  C248     1.0000 0.63059  0.64400  0.57970  Biso   1.000  C
  H193     1.0000 0.12210  0.88570  0.04560  Biso   1.000  H
  H194     1.0000 0.62210  0.38570  0.04560  Biso   1.000  H
  H195     1.0000 0.87790  0.88570  0.45440  Biso   1.000  H
  H196     1.0000 0.37790  0.38570  0.45440  Biso   1.000  H
  H197     1.0000 0.87790  0.11430  0.95440  Biso   1.000  H
  H198     1.0000 0.37790  0.61430  0.95440  Biso   1.000  H
  H199     1.0000 0.12210  0.11430  0.54560  Biso   1.000  H
  H200     1.0000 0.62210  0.61430  0.54560  Biso   1.000  H
  C249     1.0000 0.15763  0.86200  0.09830  Biso   1.000  C
  C250     1.0000 0.65763  0.36200  0.09830  Biso   1.000  C
  C251     1.0000 0.84237  0.86200  0.40170  Biso   1.000  C
  C252     1.0000 0.34237  0.36200  0.40170  Biso   1.000  C
  C253     1.0000 0.84237  0.13800  0.90170  Biso   1.000  C
  C254     1.0000 0.34237  0.63800  0.90170  Biso   1.000  C
  C255     1.0000 0.15763  0.13800  0.59830  Biso   1.000  C
  C256     1.0000 0.65763  0.63800  0.59830  Biso   1.000  C
  C257     1.0000 0.12499  0.67570  0.24120  Biso   1.000  C
  C258     1.0000 0.62499  0.17570  0.24120  Biso   1.000  C
  C259     1.0000 0.87501  0.67570  0.25880  Biso   1.000  C
  C260     1.0000 0.37501  0.17570  0.25880  Biso   1.000  C
  C261     1.0000 0.87501  0.32430  0.75880  Biso   1.000  C
  C262     1.0000 0.37501  0.82430  0.75880  Biso   1.000  C
  C263     1.0000 0.12499  0.32430  0.74120  Biso   1.000  C
  C264     1.0000 0.62499  0.82430  0.74120  Biso   1.000  C
  H201     1.0000 0.13540  0.63090  0.22940  Biso   1.000  H
  H202     1.0000 0.63540  0.13090  0.22940  Biso   1.000  H
  H203     1.0000 0.86460  0.63090  0.27060  Biso   1.000  H
  H204     1.0000 0.36460  0.13090  0.27060  Biso   1.000  H
  H205     1.0000 0.86460  0.36910  0.77060  Biso   1.000  H
  H206     1.0000 0.36460  0.86910  0.77060  Biso   1.000  H
  H207     1.0000 0.13540  0.36910  0.72940  Biso   1.000  H
  H208     1.0000 0.63540  0.86910  0.72940  Biso   1.000  H
  H209     1.0000 0.11180  0.65190  0.26010  Biso   1.000  H
  H210     1.0000 0.61180  0.15190  0.26010  Biso   1.000  H
  H211     1.0000 0.88820  0.65190  0.23990  Biso   1.000  H
  H212     1.0000 0.38820  0.15190  0.23990  Biso   1.000  H
  H213     1.0000 0.88820  0.34810  0.73990  Biso   1.000  H
  H214     1.0000 0.38820  0.84810  0.73990  Biso   1.000  H
  H215     1.0000 0.11180  0.34810  0.76010  Biso   1.000  H
  H216     1.0000 0.61180  0.84810  0.76010  Biso   1.000  H
  H217     1.0000 0.13630  0.71250  0.26920  Biso   1.000  H
  H218     1.0000 0.63630  0.21250  0.26920  Biso   1.000  H
  H219     1.0000 0.86370  0.71250  0.23080  Biso   1.000  H
  H220     1.0000 0.36370  0.21250  0.23080  Biso   1.000  H
  H221     1.0000 0.86370  0.28750  0.73080  Biso   1.000  H
  H222     1.0000 0.36370  0.78750  0.73080  Biso   1.000  H
  H223     1.0000 0.13630  0.28750  0.76920  Biso   1.000  H
  H224     1.0000 0.63630  0.78750  0.76920  Biso   1.000  H
  C265     1.0000 0.07591  0.83350  0.04160  Biso   1.000  C
  C266     1.0000 0.57591  0.33350  0.04160  Biso   1.000  C
  C267     1.0000 0.92409  0.83350  0.45840  Biso   1.000  C
  C268     1.0000 0.42409  0.33350  0.45840  Biso   1.000  C
  C269     1.0000 0.92409  0.16650  0.95840  Biso   1.000  C
  C270     1.0000 0.42409  0.66650  0.95840  Biso   1.000  C
  C271     1.0000 0.07591  0.16650  0.54160  Biso   1.000  C
  C272     1.0000 0.57591  0.66650  0.54160  Biso   1.000  C
  H225     1.0000 0.08270  0.81260  0.00770  Biso   1.000  H
  H226     1.0000 0.58270  0.31260  0.00770  Biso   1.000  H
  H227     1.0000 0.91730  0.81260  0.49230  Biso   1.000  H
  H228     1.0000 0.41730  0.31260  0.49230  Biso   1.000  H
  H229     1.0000 0.91730  0.18740  0.99230  Biso   1.000  H
  H230     1.0000 0.41730  0.68740  0.99230  Biso   1.000  H
  H231     1.0000 0.08270  0.18740  0.50770  Biso   1.000  H
  H232     1.0000 0.58270  0.68740  0.50770  Biso   1.000  H
  H233     1.0000 0.07800  0.89460  0.04350  Biso   1.000  H
  H234     1.0000 0.57800  0.39460  0.04350  Biso   1.000  H
  H235     1.0000 0.92200  0.89460  0.45650  Biso   1.000  H
  H236     1.0000 0.42200  0.39460  0.45650  Biso   1.000  H
  H237     1.0000 0.92200  0.10540  0.95650  Biso   1.000  H
  H238     1.0000 0.42200  0.60540  0.95650  Biso   1.000  H
  H239     1.0000 0.07800  0.10540  0.54350  Biso   1.000  H
  H240     1.0000 0.57800  0.60540  0.54350  Biso   1.000  H
  C273     1.0000 0.04762  0.81050  0.03410  Biso   1.000  C
  C274     1.0000 0.54762  0.31050  0.03410  Biso   1.000  C
  C275     1.0000 0.95238  0.81050  0.46590  Biso   1.000  C
  C276     1.0000 0.45238  0.31050  0.46590  Biso   1.000  C
  C277     1.0000 0.95238  0.18950  0.96590  Biso   1.000  C
  C278     1.0000 0.45238  0.68950  0.96590  Biso   1.000  C
  C279     1.0000 0.04762  0.18950  0.53410  Biso   1.000  C
  C280     1.0000 0.54762  0.68950  0.53410  Biso   1.000  C
  C281     1.0000 0.03374  0.78060  0.98060  Biso   1.000  C
  C282     1.0000 0.53374  0.28060  0.98060  Biso   1.000  C
  C283     1.0000 0.96626  0.78060  0.51940  Biso   1.000  C
  C284     1.0000 0.46626  0.28060  0.51940  Biso   1.000  C
  C285     1.0000 0.96626  0.21940  0.01940  Biso   1.000  C
  C286     1.0000 0.46626  0.71940  0.01940  Biso   1.000  C
  C287     1.0000 0.03374  0.21940  0.48060  Biso   1.000  C
  C288     1.0000 0.53374  0.71940  0.48060  Biso   1.000  C
  H241     1.0000 0.04220  0.77310  0.94890  Biso   1.000  H
  H242     1.0000 0.54220  0.27310  0.94890  Biso   1.000  H
  H243     1.0000 0.95780  0.77310  0.55110  Biso   1.000  H
  H244     1.0000 0.45780  0.27310  0.55110  Biso   1.000  H
  H245     1.0000 0.95780  0.22690  0.05110  Biso   1.000  H
  H246     1.0000 0.45780  0.72690  0.05110  Biso   1.000  H
  H247     1.0000 0.04220  0.22690  0.44890  Biso   1.000  H
  H248     1.0000 0.54220  0.72690  0.44890  Biso   1.000  H
  C289     1.0000 0.00761  0.76130  0.97240  Biso   1.000  C
  C290     1.0000 0.50761  0.26130  0.97240  Biso   1.000  C
  C291     1.0000 0.99239  0.76130  0.52760  Biso   1.000  C
  C292     1.0000 0.49239  0.26130  0.52760  Biso   1.000  C
  C293     1.0000 0.99239  0.23870  0.02760  Biso   1.000  C
  C294     1.0000 0.49239  0.73870  0.02760  Biso   1.000  C
  C295     1.0000 0.00761  0.23870  0.47240  Biso   1.000  C
  C296     1.0000 0.50761  0.73870  0.47240  Biso   1.000  C
  C297     1.0000 0.99536  0.77170  0.01919  Biso   1.000  C
  C298     1.0000 0.49536  0.27170  0.01919  Biso   1.000  C
  C299     1.0000 0.00464  0.77170  0.48081  Biso   1.000  C
  C300     1.0000 0.50464  0.27170  0.48081  Biso   1.000  C
  C301     1.0000 0.00464  0.22830  0.98081  Biso   1.000  C
  C302     1.0000 0.50464  0.72830  0.98081  Biso   1.000  C
  C303     1.0000 0.99536  0.22830  0.51919  Biso   1.000  C
  C304     1.0000 0.49536  0.72830  0.51919  Biso   1.000  C
  H249     1.0000 0.97740  0.75960  0.01390  Biso   1.000  H
  H250     1.0000 0.47740  0.25960  0.01390  Biso   1.000  H
  H251     1.0000 0.02260  0.75960  0.48610  Biso   1.000  H
  H252     1.0000 0.52260  0.25960  0.48610  Biso   1.000  H
  H253     1.0000 0.02260  0.24040  0.98610  Biso   1.000  H
  H254     1.0000 0.52260  0.74040  0.98610  Biso   1.000  H
  H255     1.0000 0.97740  0.24040  0.51390  Biso   1.000  H
  H256     1.0000 0.47740  0.74040  0.51390  Biso   1.000  H
  C305     1.0000 0.00925  0.79990  0.07406  Biso   1.000  C
  C306     1.0000 0.50925  0.29990  0.07406  Biso   1.000  C
  C307     1.0000 0.99075  0.79990  0.42594  Biso   1.000  C
  C308     1.0000 0.49075  0.29990  0.42594  Biso   1.000  C
  C309     1.0000 0.99075  0.20010  0.92594  Biso   1.000  C
  C310     1.0000 0.49075  0.70010  0.92594  Biso   1.000  C
  C311     1.0000 0.00925  0.20010  0.57406  Biso   1.000  C
  C312     1.0000 0.50925  0.70010  0.57406  Biso   1.000  C
  C313     1.0000 0.03539  0.81930  0.08076  Biso   1.000  C
  C314     1.0000 0.53539  0.31930  0.08076  Biso   1.000  C
  C315     1.0000 0.96461  0.81930  0.41924  Biso   1.000  C
  C316     1.0000 0.46461  0.31930  0.41924  Biso   1.000  C
  C317     1.0000 0.96461  0.18070  0.91924  Biso   1.000  C
  C318     1.0000 0.46461  0.68070  0.91924  Biso   1.000  C
  C319     1.0000 0.03539  0.18070  0.58076  Biso   1.000  C
  C320     1.0000 0.53539  0.68070  0.58076  Biso   1.000  C
  H257     1.0000 0.04490  0.83880  0.11780  Biso   1.000  H
  H258     1.0000 0.54490  0.33880  0.11780  Biso   1.000  H
  H259     1.0000 0.95510  0.83880  0.38220  Biso   1.000  H
  H260     1.0000 0.45510  0.33880  0.38220  Biso   1.000  H
  H261     1.0000 0.95510  0.16120  0.88220  Biso   1.000  H
  H262     1.0000 0.45510  0.66120  0.88220  Biso   1.000  H
  H263     1.0000 0.04490  0.16120  0.61780  Biso   1.000  H
  H264     1.0000 0.54490  0.66120  0.61780  Biso   1.000  H
  C321     1.0000 0.99568  0.81010  0.12405  Biso   1.000  C
  C322     1.0000 0.49568  0.31010  0.12405  Biso   1.000  C
  C323     1.0000 0.00432  0.81010  0.37595  Biso   1.000  C
  C324     1.0000 0.50432  0.31010  0.37595  Biso   1.000  C
  C325     1.0000 0.00432  0.18990  0.87595  Biso   1.000  C
  C326     1.0000 0.50432  0.68990  0.87595  Biso   1.000  C
  C327     1.0000 0.99568  0.18990  0.62405  Biso   1.000  C
  C328     1.0000 0.49568  0.68990  0.62405  Biso   1.000  C
  C329     1.0000 0.99158  0.73600  0.91241  Biso   1.000  C
  C330     1.0000 0.49158  0.23600  0.91241  Biso   1.000  C
  C331     1.0000 0.00842  0.73600  0.58759  Biso   1.000  C
  C332     1.0000 0.50842  0.23600  0.58759  Biso   1.000  C
  C333     1.0000 0.00842  0.26400  0.08759  Biso   1.000  C
  C334     1.0000 0.50842  0.76400  0.08759  Biso   1.000  C
  C335     1.0000 0.99158  0.26400  0.41241  Biso   1.000  C
  C336     1.0000 0.49158  0.76400  0.41241  Biso   1.000  C
  H265     1.0000 0.98190  0.68470  0.91710  Biso   1.000  H
  H266     1.0000 0.48190  0.18470  0.91710  Biso   1.000  H
  H267     1.0000 0.01810  0.68470  0.58290  Biso   1.000  H
  H268     1.0000 0.51810  0.18470  0.58290  Biso   1.000  H
  H269     1.0000 0.01810  0.31530  0.08290  Biso   1.000  H
  H270     1.0000 0.51810  0.81530  0.08290  Biso   1.000  H
  H271     1.0000 0.98190  0.31530  0.41710  Biso   1.000  H
  H272     1.0000 0.48190  0.81530  0.41710  Biso   1.000  H
  H273     1.0000 0.97880  0.78020  0.89790  Biso   1.000  H
  H274     1.0000 0.47880  0.28020  0.89790  Biso   1.000  H
  H275     1.0000 0.02120  0.78020  0.60210  Biso   1.000  H
  H276     1.0000 0.52120  0.28020  0.60210  Biso   1.000  H
  H277     1.0000 0.02120  0.21980  0.10210  Biso   1.000  H
  H278     1.0000 0.52120  0.71980  0.10210  Biso   1.000  H
  H279     1.0000 0.97880  0.21980  0.39790  Biso   1.000  H
  H280     1.0000 0.47880  0.71980  0.39790  Biso   1.000  H
  C337     1.0000 0.01969  0.64710  0.87104  Biso   1.000  C
  C338     1.0000 0.51969  0.14710  0.87104  Biso   1.000  C
  C339     1.0000 0.98031  0.64710  0.62896  Biso   1.000  C
  C340     1.0000 0.48031  0.14710  0.62896  Biso   1.000  C
  C341     1.0000 0.98031  0.35290  0.12896  Biso   1.000  C
  C342     1.0000 0.48031  0.85290  0.12896  Biso   1.000  C
  C343     1.0000 0.01969  0.35290  0.37104  Biso   1.000  C
  C344     1.0000 0.51969  0.85290  0.37104  Biso   1.000  C
  C345     1.0000 0.01828  0.58160  0.90752  Biso   1.000  C
  C346     1.0000 0.51828  0.08160  0.90752  Biso   1.000  C
  C347     1.0000 0.98172  0.58160  0.59248  Biso   1.000  C
  C348     1.0000 0.48172  0.08160  0.59248  Biso   1.000  C
  C349     1.0000 0.98172  0.41840  0.09248  Biso   1.000  C
  C350     1.0000 0.48172  0.91840  0.09248  Biso   1.000  C
  C351     1.0000 0.01828  0.41840  0.40752  Biso   1.000  C
  C352     1.0000 0.51828  0.91840  0.40752  Biso   1.000  C
  H281     1.0000 0.00810  0.58690  0.93640  Biso   1.000  H
  H282     1.0000 0.50810  0.08690  0.93640  Biso   1.000  H
  H283     1.0000 0.99190  0.58690  0.56360  Biso   1.000  H
  H284     1.0000 0.49190  0.08690  0.56360  Biso   1.000  H
  H285     1.0000 0.99190  0.41310  0.06360  Biso   1.000  H
  H286     1.0000 0.49190  0.91310  0.06360  Biso   1.000  H
  H287     1.0000 0.00810  0.41310  0.43640  Biso   1.000  H
  H288     1.0000 0.50810  0.91310  0.43640  Biso   1.000  H
  C353     1.0000 0.03125  0.50720  0.90392  Biso   1.000  C
  C354     1.0000 0.53125  0.00720  0.90392  Biso   1.000  C
  C355     1.0000 0.96875  0.50720  0.59608  Biso   1.000  C
  C356     1.0000 0.46875  0.00720  0.59608  Biso   1.000  C
  C357     1.0000 0.96875  0.49280  0.09608  Biso   1.000  C
  C358     1.0000 0.46875  0.99280  0.09608  Biso   1.000  C
  C359     1.0000 0.03125  0.49280  0.40392  Biso   1.000  C
  C360     1.0000 0.53125  0.99280  0.40392  Biso   1.000  C
  C361     1.0000 0.04674  0.49990  0.86261  Biso   1.000  C
  C362     1.0000 0.54674  0.99990  0.86261  Biso   1.000  C
  C363     1.0000 0.95326  0.49990  0.63739  Biso   1.000  C
  C364     1.0000 0.45326  0.99990  0.63739  Biso   1.000  C
  C365     1.0000 0.95326  0.50010  0.13739  Biso   1.000  C
  C366     1.0000 0.45326  0.00010  0.13739  Biso   1.000  C
  C367     1.0000 0.04674  0.50010  0.36261  Biso   1.000  C
  C368     1.0000 0.54674  0.00010  0.36261  Biso   1.000  C
  C369     1.0000 0.04867  0.56830  0.82667  Biso   1.000  C
  C370     1.0000 0.54867  0.06830  0.82667  Biso   1.000  C
  C371     1.0000 0.95133  0.56830  0.67333  Biso   1.000  C
  C372     1.0000 0.45133  0.06830  0.67333  Biso   1.000  C
  C373     1.0000 0.95133  0.43170  0.17333  Biso   1.000  C
  C374     1.0000 0.45133  0.93170  0.17333  Biso   1.000  C
  C375     1.0000 0.04867  0.43170  0.32667  Biso   1.000  C
  C376     1.0000 0.54867  0.93170  0.32667  Biso   1.000  C
  H289     1.0000 0.05940  0.56390  0.79890  Biso   1.000  H
  H290     1.0000 0.55940  0.06390  0.79890  Biso   1.000  H
  H291     1.0000 0.94060  0.56390  0.70110  Biso   1.000  H
  H292     1.0000 0.44060  0.06390  0.70110  Biso   1.000  H
  H293     1.0000 0.94060  0.43610  0.20110  Biso   1.000  H
  H294     1.0000 0.44060  0.93610  0.20110  Biso   1.000  H
  H295     1.0000 0.05940  0.43610  0.29890  Biso   1.000  H
  H296     1.0000 0.55940  0.93610  0.29890  Biso   1.000  H
  C377     1.0000 0.03577  0.64110  0.82977  Biso   1.000  C
  C378     1.0000 0.53577  0.14110  0.82977  Biso   1.000  C
  C379     1.0000 0.96423  0.64110  0.67023  Biso   1.000  C
  C380     1.0000 0.46423  0.14110  0.67023  Biso   1.000  C
  C381     1.0000 0.96423  0.35890  0.17023  Biso   1.000  C
  C382     1.0000 0.46423  0.85890  0.17023  Biso   1.000  C
  C383     1.0000 0.03577  0.35890  0.32977  Biso   1.000  C
  C384     1.0000 0.53577  0.85890  0.32977  Biso   1.000  C
  C385     1.0000 0.04620  0.69120  0.74180  Biso   1.000  C
  C386     1.0000 0.54620  0.19120  0.74180  Biso   1.000  C
  C387     1.0000 0.95380  0.69120  0.75820  Biso   1.000  C
  C388     1.0000 0.45380  0.19120  0.75820  Biso   1.000  C
  C389     1.0000 0.95380  0.30880  0.25820  Biso   1.000  C
  C390     1.0000 0.45380  0.80880  0.25820  Biso   1.000  C
  C391     1.0000 0.04620  0.30880  0.24180  Biso   1.000  C
  C392     1.0000 0.54620  0.80880  0.24180  Biso   1.000  C
  H297     1.0000 0.06470  0.68330  0.75810  Biso   1.000  H
  H298     1.0000 0.56470  0.18330  0.75810  Biso   1.000  H
  H299     1.0000 0.93530  0.68330  0.74190  Biso   1.000  H
  H300     1.0000 0.43530  0.18330  0.74190  Biso   1.000  H
  H301     1.0000 0.93530  0.31670  0.24190  Biso   1.000  H
  H302     1.0000 0.43530  0.81670  0.24190  Biso   1.000  H
  H303     1.0000 0.06470  0.31670  0.25810  Biso   1.000  H
  H304     1.0000 0.56470  0.81670  0.25810  Biso   1.000  H
  H305     1.0000 0.04360  0.74210  0.71800  Biso   1.000  H
  H306     1.0000 0.54360  0.24210  0.71800  Biso   1.000  H
  H307     1.0000 0.95640  0.74210  0.78200  Biso   1.000  H
  H308     1.0000 0.45640  0.24210  0.78200  Biso   1.000  H
  H309     1.0000 0.95640  0.25790  0.28200  Biso   1.000  H
  H310     1.0000 0.45640  0.75790  0.28200  Biso   1.000  H
  H311     1.0000 0.04360  0.25790  0.21800  Biso   1.000  H
  H312     1.0000 0.54360  0.75790  0.21800  Biso   1.000  H
  H313     1.0000 0.03940  0.64360  0.71680  Biso   1.000  H
  H314     1.0000 0.53940  0.14360  0.71680  Biso   1.000  H
  H315     1.0000 0.96060  0.64360  0.78320  Biso   1.000  H
  H316     1.0000 0.46060  0.14360  0.78320  Biso   1.000  H
  H317     1.0000 0.96060  0.35640  0.28320  Biso   1.000  H
  H318     1.0000 0.46060  0.85640  0.28320  Biso   1.000  H
  H319     1.0000 0.03940  0.35640  0.21680  Biso   1.000  H
  H320     1.0000 0.53940  0.85640  0.21680  Biso   1.000  H
  C393     1.0000 0.06030  0.42000  0.85310  Biso   1.000  C
  C394     1.0000 0.56030  0.92000  0.85310  Biso   1.000  C
  C395     1.0000 0.93970  0.42000  0.64690  Biso   1.000  C
  C396     1.0000 0.43970  0.92000  0.64690  Biso   1.000  C
  C397     1.0000 0.93970  0.58000  0.14690  Biso   1.000  C
  C398     1.0000 0.43970  0.08000  0.14690  Biso   1.000  C
  C399     1.0000 0.06030  0.58000  0.35310  Biso   1.000  C
  C400     1.0000 0.56030  0.08000  0.35310  Biso   1.000  C
  H321     1.0000 0.06130  0.41660  0.81110  Biso   1.000  H
  H322     1.0000 0.56130  0.91660  0.81110  Biso   1.000  H
  H323     1.0000 0.93870  0.41660  0.68890  Biso   1.000  H
  H324     1.0000 0.43870  0.91660  0.68890  Biso   1.000  H
  H325     1.0000 0.93870  0.58340  0.18890  Biso   1.000  H
  H326     1.0000 0.43870  0.08340  0.18890  Biso   1.000  H
  H327     1.0000 0.06130  0.58340  0.31110  Biso   1.000  H
  H328     1.0000 0.56130  0.08340  0.31110  Biso   1.000  H
  H329     1.0000 0.04960  0.37260  0.86130  Biso   1.000  H
  H330     1.0000 0.54960  0.87260  0.86130  Biso   1.000  H
  H331     1.0000 0.95040  0.37260  0.63870  Biso   1.000  H
  H332     1.0000 0.45040  0.87260  0.63870  Biso   1.000  H
  H333     1.0000 0.95040  0.62740  0.13870  Biso   1.000  H
  H334     1.0000 0.45040  0.12740  0.13870  Biso   1.000  H
  H335     1.0000 0.04960  0.62740  0.36130  Biso   1.000  H
  H336     1.0000 0.54960  0.12740  0.36130  Biso   1.000  H
  C401     1.0000 0.17198  0.92070  0.06540  Biso   1.000  C
  C402     1.0000 0.67198  0.42070  0.06540  Biso   1.000  C
  C403     1.0000 0.82802  0.92070  0.43460  Biso   1.000  C
  C404     1.0000 0.32802  0.42070  0.43460  Biso   1.000  C
  C405     1.0000 0.82802  0.07930  0.93460  Biso   1.000  C
  C406     1.0000 0.32802  0.57930  0.93460  Biso   1.000  C
  C407     1.0000 0.17198  0.07930  0.56540  Biso   1.000  C
  C408     1.0000 0.67198  0.57930  0.56540  Biso   1.000  C
  H337     1.0000 0.18900  0.93340  0.09170  Biso   1.000  H
  H338     1.0000 0.68900  0.43340  0.09170  Biso   1.000  H
  H339     1.0000 0.81100  0.93340  0.40830  Biso   1.000  H
  H340     1.0000 0.31100  0.43340  0.40830  Biso   1.000  H
  H341     1.0000 0.81100  0.06660  0.90830  Biso   1.000  H
  H342     1.0000 0.31100  0.56660  0.90830  Biso   1.000  H
  H343     1.0000 0.18900  0.06660  0.59170  Biso   1.000  H
  H344     1.0000 0.68900  0.56660  0.59170  Biso   1.000  H
  H345     1.0000 0.16210  0.97340  0.05890  Biso   1.000  H
  H346     1.0000 0.66210  0.47340  0.05890  Biso   1.000  H
  H347     1.0000 0.83790  0.97340  0.44110  Biso   1.000  H
  H348     1.0000 0.33790  0.47340  0.44110  Biso   1.000  H
  H349     1.0000 0.83790  0.02660  0.94110  Biso   1.000  H
  H350     1.0000 0.33790  0.52660  0.94110  Biso   1.000  H
  H351     1.0000 0.16210  0.02660  0.55890  Biso   1.000  H
  H352     1.0000 0.66210  0.52660  0.55890  Biso   1.000  H
  C409     1.0000 0.17690  0.89210  0.00590  Biso   1.000  C
  C410     1.0000 0.67690  0.39210  0.00590  Biso   1.000  C
  C411     1.0000 0.82310  0.89210  0.49410  Biso   1.000  C
  C412     1.0000 0.32310  0.39210  0.49410  Biso   1.000  C
  C413     1.0000 0.82310  0.10790  0.99410  Biso   1.000  C
  C414     1.0000 0.32310  0.60790  0.99410  Biso   1.000  C
  C415     1.0000 0.17690  0.10790  0.50590  Biso   1.000  C
  C416     1.0000 0.67690  0.60790  0.50590  Biso   1.000  C
  C417     1.0000 0.15893  0.91470  0.95440  Biso   1.000  C
  C418     1.0000 0.65893  0.41470  0.95440  Biso   1.000  C
  C419     1.0000 0.84107  0.91470  0.54560  Biso   1.000  C
  C420     1.0000 0.34107  0.41470  0.54560  Biso   1.000  C
  C421     1.0000 0.84107  0.08530  0.04560  Biso   1.000  C
  C422     1.0000 0.34107  0.58530  0.04560  Biso   1.000  C
  C423     1.0000 0.15893  0.08530  0.45440  Biso   1.000  C
  C424     1.0000 0.65893  0.58530  0.45440  Biso   1.000  C
  H353     1.0000 0.14370  0.94360  0.95800  Biso   1.000  H
  H354     1.0000 0.64370  0.44360  0.95800  Biso   1.000  H
  H355     1.0000 0.85630  0.94360  0.54200  Biso   1.000  H
  H356     1.0000 0.35630  0.44360  0.54200  Biso   1.000  H
  H357     1.0000 0.85630  0.05640  0.04200  Biso   1.000  H
  H358     1.0000 0.35630  0.55640  0.04200  Biso   1.000  H
  H359     1.0000 0.14370  0.05640  0.45800  Biso   1.000  H
  H360     1.0000 0.64370  0.55640  0.45800  Biso   1.000  H
  C425     1.0000 0.16258  0.89660  0.89930  Biso   1.000  C
  C426     1.0000 0.66258  0.39660  0.89930  Biso   1.000  C
  C427     1.0000 0.83742  0.89660  0.60070  Biso   1.000  C
  C428     1.0000 0.33742  0.39660  0.60070  Biso   1.000  C
  C429     1.0000 0.83742  0.10340  0.10070  Biso   1.000  C
  C430     1.0000 0.33742  0.60340  0.10070  Biso   1.000  C
  C431     1.0000 0.16258  0.10340  0.39930  Biso   1.000  C
  C432     1.0000 0.66258  0.60340  0.39930  Biso   1.000  C
  C433     1.0000 0.18471  0.85450  0.89294  Biso   1.000  C
  C434     1.0000 0.68471  0.35450  0.89294  Biso   1.000  C
  C435     1.0000 0.81529  0.85450  0.60706  Biso   1.000  C
  C436     1.0000 0.31529  0.35450  0.60706  Biso   1.000  C
  C437     1.0000 0.81529  0.14550  0.10706  Biso   1.000  C
  C438     1.0000 0.31529  0.64550  0.10706  Biso   1.000  C
  C439     1.0000 0.18471  0.14550  0.39294  Biso   1.000  C
  C440     1.0000 0.68471  0.64550  0.39294  Biso   1.000  C
  C441     1.0000 0.20198  0.82960  0.94344  Biso   1.000  C
  C442     1.0000 0.70198  0.32960  0.94344  Biso   1.000  C
  C443     1.0000 0.79802  0.82960  0.55656  Biso   1.000  C
  C444     1.0000 0.29802  0.32960  0.55656  Biso   1.000  C
  C445     1.0000 0.79802  0.17040  0.05656  Biso   1.000  C
  C446     1.0000 0.29802  0.67040  0.05656  Biso   1.000  C
  C447     1.0000 0.20198  0.17040  0.44344  Biso   1.000  C
  C448     1.0000 0.70198  0.67040  0.44344  Biso   1.000  C
  H361     1.0000 0.21680  0.79860  0.93940  Biso   1.000  H
  H362     1.0000 0.71680  0.29860  0.93940  Biso   1.000  H
  H363     1.0000 0.78320  0.79860  0.56060  Biso   1.000  H
  H364     1.0000 0.28320  0.29860  0.56060  Biso   1.000  H
  H365     1.0000 0.78320  0.20140  0.06060  Biso   1.000  H
  H366     1.0000 0.28320  0.70140  0.06060  Biso   1.000  H
  H367     1.0000 0.21680  0.20140  0.43940  Biso   1.000  H
  H368     1.0000 0.71680  0.70140  0.43940  Biso   1.000  H
  C449     1.0000 0.19881  0.84800  0.00024  Biso   1.000  C
  C450     1.0000 0.69881  0.34800  0.00024  Biso   1.000  C
  C451     1.0000 0.80119  0.84800  0.49976  Biso   1.000  C
  C452     1.0000 0.30119  0.34800  0.49976  Biso   1.000  C
  C453     1.0000 0.80119  0.15200  0.99976  Biso   1.000  C
  C454     1.0000 0.30119  0.65200  0.99976  Biso   1.000  C
  C455     1.0000 0.19881  0.15200  0.50024  Biso   1.000  C
  C456     1.0000 0.69881  0.65200  0.50024  Biso   1.000  C
  C457     1.0000 0.20837  0.79060  0.82709  Biso   1.000  C
  C458     1.0000 0.70837  0.29060  0.82709  Biso   1.000  C
  C459     1.0000 0.79163  0.79060  0.67291  Biso   1.000  C
  C460     1.0000 0.29163  0.29060  0.67291  Biso   1.000  C
  C461     1.0000 0.79163  0.20940  0.17291  Biso   1.000  C
  C462     1.0000 0.29163  0.70940  0.17291  Biso   1.000  C
  C463     1.0000 0.20837  0.20940  0.32709  Biso   1.000  C
  C464     1.0000 0.70837  0.70940  0.32709  Biso   1.000  C
  H369     1.0000 0.22440  0.80610  0.85580  Biso   1.000  H
  H370     1.0000 0.72440  0.30610  0.85580  Biso   1.000  H
  H371     1.0000 0.77560  0.80610  0.64420  Biso   1.000  H
  H372     1.0000 0.27560  0.30610  0.64420  Biso   1.000  H
  H373     1.0000 0.77560  0.19390  0.14420  Biso   1.000  H
  H374     1.0000 0.27560  0.69390  0.14420  Biso   1.000  H
  H375     1.0000 0.22440  0.19390  0.35580  Biso   1.000  H
  H376     1.0000 0.72440  0.69390  0.35580  Biso   1.000  H
  H377     1.0000 0.21130  0.80070  0.78690  Biso   1.000  H
  H378     1.0000 0.71130  0.30070  0.78690  Biso   1.000  H
  H379     1.0000 0.78870  0.80070  0.71310  Biso   1.000  H
  H380     1.0000 0.28870  0.30070  0.71310  Biso   1.000  H
  H381     1.0000 0.78870  0.19930  0.21310  Biso   1.000  H
  H382     1.0000 0.28870  0.69930  0.21310  Biso   1.000  H
  H383     1.0000 0.21130  0.19930  0.28690  Biso   1.000  H
  H384     1.0000 0.71130  0.69930  0.28690  Biso   1.000  H
  C465     1.0000 0.20331  0.69980  0.83363  Biso   1.000  C
  C466     1.0000 0.70331  0.19980  0.83363  Biso   1.000  C
  C467     1.0000 0.79669  0.69980  0.66637  Biso   1.000  C
  C468     1.0000 0.29669  0.19980  0.66637  Biso   1.000  C
  C469     1.0000 0.79669  0.30020  0.16637  Biso   1.000  C
  C470     1.0000 0.29669  0.80020  0.16637  Biso   1.000  C
  C471     1.0000 0.20331  0.30020  0.33363  Biso   1.000  C
  C472     1.0000 0.70331  0.80020  0.33363  Biso   1.000  C
  C473     1.0000 0.17867  0.67020  0.83639  Biso   1.000  C
  C474     1.0000 0.67867  0.17020  0.83639  Biso   1.000  C
  C475     1.0000 0.82133  0.67020  0.66361  Biso   1.000  C
  C476     1.0000 0.32133  0.17020  0.66361  Biso   1.000  C
  C477     1.0000 0.82133  0.32980  0.16361  Biso   1.000  C
  C478     1.0000 0.32133  0.82980  0.16361  Biso   1.000  C
  C479     1.0000 0.17867  0.32980  0.33639  Biso   1.000  C
  C480     1.0000 0.67867  0.82980  0.33639  Biso   1.000  C
  H385     1.0000 0.16510  0.70860  0.83690  Biso   1.000  H
  H386     1.0000 0.66510  0.20860  0.83690  Biso   1.000  H
  H387     1.0000 0.83490  0.70860  0.66310  Biso   1.000  H
  H388     1.0000 0.33490  0.20860  0.66310  Biso   1.000  H
  H389     1.0000 0.83490  0.29140  0.16310  Biso   1.000  H
  H390     1.0000 0.33490  0.79140  0.16310  Biso   1.000  H
  H391     1.0000 0.16510  0.29140  0.33690  Biso   1.000  H
  H392     1.0000 0.66510  0.79140  0.33690  Biso   1.000  H
  C481     1.0000 0.17387  0.58680  0.83835  Biso   1.000  C
  C482     1.0000 0.67387  0.08680  0.83835  Biso   1.000  C
  C483     1.0000 0.82613  0.58680  0.66165  Biso   1.000  C
  C484     1.0000 0.32613  0.08680  0.66165  Biso   1.000  C
  C485     1.0000 0.82613  0.41320  0.16165  Biso   1.000  C
  C486     1.0000 0.32613  0.91320  0.16165  Biso   1.000  C
  C487     1.0000 0.17387  0.41320  0.33835  Biso   1.000  C
  C488     1.0000 0.67387  0.91320  0.33835  Biso   1.000  C
  C489     1.0000 0.19350  0.53070  0.83716  Biso   1.000  C
  C490     1.0000 0.69350  0.03070  0.83716  Biso   1.000  C
  C491     1.0000 0.80650  0.53070  0.66284  Biso   1.000  C
  C492     1.0000 0.30650  0.03070  0.66284  Biso   1.000  C
  C493     1.0000 0.80650  0.46930  0.16284  Biso   1.000  C
  C494     1.0000 0.30650  0.96930  0.16284  Biso   1.000  C
  C495     1.0000 0.19350  0.46930  0.33716  Biso   1.000  C
  C496     1.0000 0.69350  0.96930  0.33716  Biso   1.000  C
  H393     1.0000 0.19010  0.47280  0.83760  Biso   1.000  H
  H394     1.0000 0.69010  0.97280  0.83760  Biso   1.000  H
  H395     1.0000 0.80990  0.47280  0.66240  Biso   1.000  H
  H396     1.0000 0.30990  0.97280  0.66240  Biso   1.000  H
  H397     1.0000 0.80990  0.52720  0.16240  Biso   1.000  H
  H398     1.0000 0.30990  0.02720  0.16240  Biso   1.000  H
  H399     1.0000 0.19010  0.52720  0.33760  Biso   1.000  H
  H400     1.0000 0.69010  0.02720  0.33760  Biso   1.000  H
  C497     1.0000 0.21819  0.55840  0.83530  Biso   1.000  C
  C498     1.0000 0.71819  0.05840  0.83530  Biso   1.000  C
  C499     1.0000 0.78181  0.55840  0.66470  Biso   1.000  C
  C500     1.0000 0.28181  0.05840  0.66470  Biso   1.000  C
  C501     1.0000 0.78181  0.44160  0.16470  Biso   1.000  C
  C502     1.0000 0.28181  0.94160  0.16470  Biso   1.000  C
  C503     1.0000 0.21819  0.44160  0.33530  Biso   1.000  C
  C504     1.0000 0.71819  0.94160  0.33530  Biso   1.000  C
  C505     1.0000 0.22288  0.64330  0.83421  Biso   1.000  C
  C506     1.0000 0.72288  0.14330  0.83421  Biso   1.000  C
  C507     1.0000 0.77712  0.64330  0.66579  Biso   1.000  C
  C508     1.0000 0.27712  0.14330  0.66579  Biso   1.000  C
  C509     1.0000 0.77712  0.35670  0.16579  Biso   1.000  C
  C510     1.0000 0.27712  0.85670  0.16579  Biso   1.000  C
  C511     1.0000 0.22288  0.35670  0.33421  Biso   1.000  C
  C512     1.0000 0.72288  0.85670  0.33421  Biso   1.000  C
  H401     1.0000 0.23980  0.66260  0.83380  Biso   1.000  H
  H402     1.0000 0.73980  0.16260  0.83380  Biso   1.000  H
  H403     1.0000 0.76020  0.66260  0.66620  Biso   1.000  H
  H404     1.0000 0.26020  0.16260  0.66620  Biso   1.000  H
  H405     1.0000 0.76020  0.33740  0.16620  Biso   1.000  H
  H406     1.0000 0.26020  0.83740  0.16620  Biso   1.000  H
  H407     1.0000 0.23980  0.33740  0.33380  Biso   1.000  H
  H408     1.0000 0.73980  0.83740  0.33380  Biso   1.000  H
  C513     1.0000 0.23896  0.49560  0.83444  Biso   1.000  C
  C514     1.0000 0.73896  0.99560  0.83444  Biso   1.000  C
  C515     1.0000 0.76104  0.49560  0.66556  Biso   1.000  C
  C516     1.0000 0.26104  0.99560  0.66556  Biso   1.000  C
  C517     1.0000 0.76104  0.50440  0.16556  Biso   1.000  C
  C518     1.0000 0.26104  0.00440  0.16556  Biso   1.000  C
  C519     1.0000 0.23896  0.50440  0.33444  Biso   1.000  C
  C520     1.0000 0.73896  0.00440  0.33444  Biso   1.000  C
  O137     1.0000 0.15269  0.49840  0.89189  Biso   1.000  O
  O138     1.0000 0.65269  0.99840  0.89189  Biso   1.000  O
  O139     1.0000 0.84731  0.49840  0.60811  Biso   1.000  O
  O140     1.0000 0.34731  0.99840  0.60811  Biso   1.000  O
  O141     1.0000 0.84731  0.50160  0.10811  Biso   1.000  O
  O142     1.0000 0.34731  0.00160  0.10811  Biso   1.000  O
  O143     1.0000 0.15269  0.50160  0.39189  Biso   1.000  O
  O144     1.0000 0.65269  0.00160  0.39189  Biso   1.000  O
  C521     1.0000 0.14786  0.55350  0.84340  Biso   1.000  C
  C522     1.0000 0.64786  0.05350  0.84340  Biso   1.000  C
  C523     1.0000 0.85214  0.55350  0.65660  Biso   1.000  C
  C524     1.0000 0.35214  0.05350  0.65660  Biso   1.000  C
  C525     1.0000 0.85214  0.44650  0.15660  Biso   1.000  C
  C526     1.0000 0.35214  0.94650  0.15660  Biso   1.000  C
  C527     1.0000 0.14786  0.44650  0.34340  Biso   1.000  C
  C528     1.0000 0.64786  0.94650  0.34340  Biso   1.000  C
  H409     1.0000 0.13640  0.59920  0.85020  Biso   1.000  H
  H410     1.0000 0.63640  0.09920  0.85020  Biso   1.000  H
  H411     1.0000 0.86360  0.59920  0.64980  Biso   1.000  H
  H412     1.0000 0.36360  0.09920  0.64980  Biso   1.000  H
  H413     1.0000 0.86360  0.40080  0.14980  Biso   1.000  H
  H414     1.0000 0.36360  0.90080  0.14980  Biso   1.000  H
  H415     1.0000 0.13640  0.40080  0.35020  Biso   1.000  H
  H416     1.0000 0.63640  0.90080  0.35020  Biso   1.000  H
  H417     1.0000 0.13950  0.52390  0.80670  Biso   1.000  H
  H418     1.0000 0.63950  0.02390  0.80670  Biso   1.000  H
  H419     1.0000 0.86050  0.52390  0.69330  Biso   1.000  H
  H420     1.0000 0.36050  0.02390  0.69330  Biso   1.000  H
  H421     1.0000 0.86050  0.47610  0.19330  Biso   1.000  H
  H422     1.0000 0.36050  0.97610  0.19330  Biso   1.000  H
  H423     1.0000 0.13950  0.47610  0.30670  Biso   1.000  H
  H424     1.0000 0.63950  0.97610  0.30670  Biso   1.000  H
  C529     1.0000 0.13246  0.45340  0.90448  Biso   1.000  C
  C530     1.0000 0.63246  0.95340  0.90448  Biso   1.000  C
  C531     1.0000 0.86754  0.45340  0.59552  Biso   1.000  C
  C532     1.0000 0.36754  0.95340  0.59552  Biso   1.000  C
  C533     1.0000 0.86754  0.54660  0.09552  Biso   1.000  C
  C534     1.0000 0.36754  0.04660  0.09552  Biso   1.000  C
  C535     1.0000 0.13246  0.54660  0.40448  Biso   1.000  C
  C536     1.0000 0.63246  0.04660  0.40448  Biso   1.000  C
  C537     1.0000 0.10713  0.45520  0.87354  Biso   1.000  C
  C538     1.0000 0.60713  0.95520  0.87354  Biso   1.000  C
  C539     1.0000 0.89287  0.45520  0.62646  Biso   1.000  C
  C540     1.0000 0.39287  0.95520  0.62646  Biso   1.000  C
  C541     1.0000 0.89287  0.54480  0.12646  Biso   1.000  C
  C542     1.0000 0.39287  0.04480  0.12646  Biso   1.000  C
  C543     1.0000 0.10713  0.54480  0.37354  Biso   1.000  C
  C544     1.0000 0.60713  0.04480  0.37354  Biso   1.000  C
  H425     1.0000 0.10280  0.48790  0.83860  Biso   1.000  H
  H426     1.0000 0.60280  0.98790  0.83860  Biso   1.000  H
  H427     1.0000 0.89720  0.48790  0.66140  Biso   1.000  H
  H428     1.0000 0.39720  0.98790  0.66140  Biso   1.000  H
  H429     1.0000 0.89720  0.51210  0.16140  Biso   1.000  H
  H430     1.0000 0.39720  0.01210  0.16140  Biso   1.000  H
  H431     1.0000 0.10280  0.51210  0.33860  Biso   1.000  H
  H432     1.0000 0.60280  0.01210  0.33860  Biso   1.000  H
  C545     1.0000 0.08747  0.41110  0.89140  Biso   1.000  C
  C546     1.0000 0.58747  0.91110  0.89140  Biso   1.000  C
  C547     1.0000 0.91253  0.41110  0.60860  Biso   1.000  C
  C548     1.0000 0.41253  0.91110  0.60860  Biso   1.000  C
  C549     1.0000 0.91253  0.58890  0.10860  Biso   1.000  C
  C550     1.0000 0.41253  0.08890  0.10860  Biso   1.000  C
  C551     1.0000 0.08747  0.58890  0.39140  Biso   1.000  C
  C552     1.0000 0.58747  0.08890  0.39140  Biso   1.000  C
  C553     1.0000 0.09378  0.36270  0.94220  Biso   1.000  C
  C554     1.0000 0.59378  0.86270  0.94220  Biso   1.000  C
  C555     1.0000 0.90622  0.36270  0.55780  Biso   1.000  C
  C556     1.0000 0.40622  0.86270  0.55780  Biso   1.000  C
  C557     1.0000 0.90622  0.63730  0.05780  Biso   1.000  C
  C558     1.0000 0.40622  0.13730  0.05780  Biso   1.000  C
  C559     1.0000 0.09378  0.63730  0.44220  Biso   1.000  C
  C560     1.0000 0.59378  0.13730  0.44220  Biso   1.000  C
  C561     1.0000 0.11975  0.35910  0.97267  Biso   1.000  C
  C562     1.0000 0.61975  0.85910  0.97267  Biso   1.000  C
  C563     1.0000 0.88025  0.35910  0.52733  Biso   1.000  C
  C564     1.0000 0.38025  0.85910  0.52733  Biso   1.000  C
  C565     1.0000 0.88025  0.64090  0.02733  Biso   1.000  C
  C566     1.0000 0.38025  0.14090  0.02733  Biso   1.000  C
  C567     1.0000 0.11975  0.64090  0.47267  Biso   1.000  C
  C568     1.0000 0.61975  0.14090  0.47267  Biso   1.000  C
  H433     1.0000 0.12420  0.32510  0.00690  Biso   1.000  H
  H434     1.0000 0.62420  0.82510  0.00690  Biso   1.000  H
  H435     1.0000 0.87580  0.32510  0.49310  Biso   1.000  H
  H436     1.0000 0.37580  0.82510  0.49310  Biso   1.000  H
  H437     1.0000 0.87580  0.67490  0.99310  Biso   1.000  H
  H438     1.0000 0.37580  0.17490  0.99310  Biso   1.000  H
  H439     1.0000 0.12420  0.67490  0.50690  Biso   1.000  H
  H440     1.0000 0.62420  0.17490  0.50690  Biso   1.000  H
  C569     1.0000 0.13904  0.40290  0.95488  Biso   1.000  C
  C570     1.0000 0.63904  0.90290  0.95488  Biso   1.000  C
  C571     1.0000 0.86096  0.40290  0.54512  Biso   1.000  C
  C572     1.0000 0.36096  0.90290  0.54512  Biso   1.000  C
  C573     1.0000 0.86096  0.59710  0.04512  Biso   1.000  C
  C574     1.0000 0.36096  0.09710  0.04512  Biso   1.000  C
  C575     1.0000 0.13904  0.59710  0.45488  Biso   1.000  C
  C576     1.0000 0.63904  0.09710  0.45488  Biso   1.000  C
  C577     1.0000 0.17095  0.36610  0.03810  Biso   1.000  C
  C578     1.0000 0.67095  0.86610  0.03810  Biso   1.000  C
  C579     1.0000 0.82905  0.36610  0.46190  Biso   1.000  C
  C580     1.0000 0.32905  0.86610  0.46190  Biso   1.000  C
  C581     1.0000 0.82905  0.63390  0.96190  Biso   1.000  C
  C582     1.0000 0.32905  0.13390  0.96190  Biso   1.000  C
  C583     1.0000 0.17095  0.63390  0.53810  Biso   1.000  C
  C584     1.0000 0.67095  0.13390  0.53810  Biso   1.000  C
  H441     1.0000 0.15930  0.38660  0.06260  Biso   1.000  H
  H442     1.0000 0.65930  0.88660  0.06260  Biso   1.000  H
  H443     1.0000 0.84070  0.38660  0.43740  Biso   1.000  H
  H444     1.0000 0.34070  0.88660  0.43740  Biso   1.000  H
  H445     1.0000 0.84070  0.61340  0.93740  Biso   1.000  H
  H446     1.0000 0.34070  0.11340  0.93740  Biso   1.000  H
  H447     1.0000 0.15930  0.61340  0.56260  Biso   1.000  H
  H448     1.0000 0.65930  0.11340  0.56260  Biso   1.000  H
  H449     1.0000 0.18890  0.37980  0.05700  Biso   1.000  H
  H450     1.0000 0.68890  0.87980  0.05700  Biso   1.000  H
  H451     1.0000 0.81110  0.37980  0.44300  Biso   1.000  H
  H452     1.0000 0.31110  0.87980  0.44300  Biso   1.000  H
  H453     1.0000 0.81110  0.62020  0.94300  Biso   1.000  H
  H454     1.0000 0.31110  0.12020  0.94300  Biso   1.000  H
  H455     1.0000 0.18890  0.62020  0.55700  Biso   1.000  H
  H456     1.0000 0.68890  0.12020  0.55700  Biso   1.000  H
  H457     1.0000 0.16910  0.30570  0.03370  Biso   1.000  H
  H458     1.0000 0.66910  0.80570  0.03370  Biso   1.000  H
  H459     1.0000 0.83090  0.30570  0.46630  Biso   1.000  H
  H460     1.0000 0.33090  0.80570  0.46630  Biso   1.000  H
  H461     1.0000 0.83090  0.69430  0.96630  Biso   1.000  H
  H462     1.0000 0.33090  0.19430  0.96630  Biso   1.000  H
  H463     1.0000 0.16910  0.69430  0.53370  Biso   1.000  H
  H464     1.0000 0.66910  0.19430  0.53370  Biso   1.000  H
  C585     1.0000 0.07394  0.31740  0.96940  Biso   1.000  C
  C586     1.0000 0.57394  0.81740  0.96940  Biso   1.000  C
  C587     1.0000 0.92606  0.31740  0.53060  Biso   1.000  C
  C588     1.0000 0.42606  0.81740  0.53060  Biso   1.000  C
  C589     1.0000 0.92606  0.68260  0.03060  Biso   1.000  C
  C590     1.0000 0.42606  0.18260  0.03060  Biso   1.000  C
  C591     1.0000 0.07394  0.68260  0.46940  Biso   1.000  C
  C592     1.0000 0.57394  0.18260  0.46940  Biso   1.000  C
  H465     1.0000 0.05840  0.30420  0.93840  Biso   1.000  H
  H466     1.0000 0.55840  0.80420  0.93840  Biso   1.000  H
  H467     1.0000 0.94160  0.30420  0.56160  Biso   1.000  H
  H468     1.0000 0.44160  0.80420  0.56160  Biso   1.000  H
  H469     1.0000 0.94160  0.69580  0.06160  Biso   1.000  H
  H470     1.0000 0.44160  0.19580  0.06160  Biso   1.000  H
  H471     1.0000 0.05840  0.69580  0.43840  Biso   1.000  H
  H472     1.0000 0.55840  0.19580  0.43840  Biso   1.000  H
  H473     1.0000 0.08140  0.26450  0.98730  Biso   1.000  H
  H474     1.0000 0.58140  0.76450  0.98730  Biso   1.000  H
  H475     1.0000 0.91860  0.26450  0.51270  Biso   1.000  H
  H476     1.0000 0.41860  0.76450  0.51270  Biso   1.000  H
  H477     1.0000 0.91860  0.73550  0.01270  Biso   1.000  H
  H478     1.0000 0.41860  0.23550  0.01270  Biso   1.000  H
  H479     1.0000 0.08140  0.73550  0.48730  Biso   1.000  H
  H480     1.0000 0.58140  0.23550  0.48730  Biso   1.000  H
  O145     1.0000 0.05410  0.52580  0.14190  Biso   1.000  O
  O146     1.0000 0.55410  0.02580  0.14190  Biso   1.000  O
  O147     1.0000 0.94590  0.52580  0.35810  Biso   1.000  O
  O148     1.0000 0.44590  0.02580  0.35810  Biso   1.000  O
  O149     1.0000 0.94590  0.47420  0.85810  Biso   1.000  O
  O150     1.0000 0.44590  0.97420  0.85810  Biso   1.000  O
  O151     1.0000 0.05410  0.47420  0.64190  Biso   1.000  O
  O152     1.0000 0.55410  0.97420  0.64190  Biso   1.000  O
  O153     1.0000 0.03880  0.72060  0.80200  Biso   1.000  O
  O154     1.0000 0.53880  0.22060  0.80200  Biso   1.000  O
  O155     1.0000 0.96120  0.72060  0.69800  Biso   1.000  O
  O156     1.0000 0.46120  0.22060  0.69800  Biso   1.000  O
  O157     1.0000 0.96120  0.27940  0.19800  Biso   1.000  O
  O158     1.0000 0.46120  0.77940  0.19800  Biso   1.000  O
  O159     1.0000 0.03880  0.27940  0.30200  Biso   1.000  O
  O160     1.0000 0.53880  0.77940  0.30200  Biso   1.000  O
  C593     1.0000 0.07210  0.59440  0.15700  Biso   1.000  C
  C594     1.0000 0.57210  0.09440  0.15700  Biso   1.000  C
  C595     1.0000 0.92790  0.59440  0.34300  Biso   1.000  C
  C596     1.0000 0.42790  0.09440  0.34300  Biso   1.000  C
  C597     1.0000 0.92790  0.40560  0.84300  Biso   1.000  C
  C598     1.0000 0.42790  0.90560  0.84300  Biso   1.000  C
  C599     1.0000 0.07210  0.40560  0.65700  Biso   1.000  C
  C600     1.0000 0.57210  0.90560  0.65700  Biso   1.000  C
  H481     1.0000 0.08730  0.57610  0.18640  Biso   1.000  H
  H482     1.0000 0.58730  0.07610  0.18640  Biso   1.000  H
  H483     1.0000 0.91270  0.57610  0.31360  Biso   1.000  H
  H484     1.0000 0.41270  0.07610  0.31360  Biso   1.000  H
  H485     1.0000 0.91270  0.42390  0.81360  Biso   1.000  H
  H486     1.0000 0.41270  0.92390  0.81360  Biso   1.000  H
  H487     1.0000 0.08730  0.42390  0.68640  Biso   1.000  H
  H488     1.0000 0.58730  0.92390  0.68640  Biso   1.000  H
  H489     1.0000 0.06360  0.64010  0.17340  Biso   1.000  H
  H490     1.0000 0.56360  0.14010  0.17340  Biso   1.000  H
  H491     1.0000 0.93640  0.64010  0.32660  Biso   1.000  H
  H492     1.0000 0.43640  0.14010  0.32660  Biso   1.000  H
  H493     1.0000 0.93640  0.35990  0.82660  Biso   1.000  H
  H494     1.0000 0.43640  0.85990  0.82660  Biso   1.000  H
  H495     1.0000 0.06360  0.35990  0.67340  Biso   1.000  H
  H496     1.0000 0.56360  0.85990  0.67340  Biso   1.000  H
  H497     1.0000 0.07750  0.61360  0.12140  Biso   1.000  H
  H498     1.0000 0.57750  0.11360  0.12140  Biso   1.000  H
  H499     1.0000 0.92250  0.61360  0.37860  Biso   1.000  H
  H500     1.0000 0.42250  0.11360  0.37860  Biso   1.000  H
  H501     1.0000 0.92250  0.38640  0.87860  Biso   1.000  H
  H502     1.0000 0.42250  0.88640  0.87860  Biso   1.000  H
  H503     1.0000 0.07750  0.38640  0.62140  Biso   1.000  H
  H504     1.0000 0.57750  0.88640  0.62140  Biso   1.000  H
  C601     1.0000 0.05690  0.71970  0.76510  Biso   1.000  C
  C602     1.0000 0.55690  0.21970  0.76510  Biso   1.000  C
  C603     1.0000 0.94310  0.71970  0.73490  Biso   1.000  C
  C604     1.0000 0.44310  0.21970  0.73490  Biso   1.000  C
  C605     1.0000 0.94310  0.28030  0.23490  Biso   1.000  C
  C606     1.0000 0.44310  0.78030  0.23490  Biso   1.000  C
  C607     1.0000 0.05690  0.28030  0.26510  Biso   1.000  C
  C608     1.0000 0.55690  0.78030  0.26510  Biso   1.000  C
  H505     1.0000 0.07440  0.71050  0.78920  Biso   1.000  H
  H506     1.0000 0.57440  0.21050  0.78920  Biso   1.000  H
  H507     1.0000 0.92560  0.71050  0.71080  Biso   1.000  H
  H508     1.0000 0.42560  0.21050  0.71080  Biso   1.000  H
  H509     1.0000 0.92560  0.28950  0.21080  Biso   1.000  H
  H510     1.0000 0.42560  0.78950  0.21080  Biso   1.000  H
  H511     1.0000 0.07440  0.28950  0.28920  Biso   1.000  H
  H512     1.0000 0.57440  0.78950  0.28920  Biso   1.000  H
  H513     1.0000 0.05640  0.77300  0.74450  Biso   1.000  H
  H514     1.0000 0.55640  0.27300  0.74450  Biso   1.000  H
  H515     1.0000 0.94360  0.77300  0.75550  Biso   1.000  H
  H516     1.0000 0.44360  0.27300  0.75550  Biso   1.000  H
  H517     1.0000 0.94360  0.22700  0.25550  Biso   1.000  H
  H518     1.0000 0.44360  0.72700  0.25550  Biso   1.000  H
  H519     1.0000 0.05640  0.22700  0.24450  Biso   1.000  H
  H520     1.0000 0.55640  0.72700  0.24450  Biso   1.000  H
  H521     1.0000 0.05260  0.67490  0.73600  Biso   1.000  H
  H522     1.0000 0.55260  0.17490  0.73600  Biso   1.000  H
  H523     1.0000 0.94740  0.67490  0.76400  Biso   1.000  H
  H524     1.0000 0.44740  0.17490  0.76400  Biso   1.000  H
  H525     1.0000 0.94740  0.32510  0.26400  Biso   1.000  H
  H526     1.0000 0.44740  0.82510  0.26400  Biso   1.000  H
  H527     1.0000 0.05260  0.32510  0.23600  Biso   1.000  H
  H528     1.0000 0.55260  0.82510  0.23600  Biso   1.000  H
  C609     1.0000 0.13225  0.86290  0.80940  Biso   1.000  C
  C610     1.0000 0.63225  0.36290  0.80940  Biso   1.000  C
  C611     1.0000 0.86775  0.86290  0.69060  Biso   1.000  C
  C612     1.0000 0.36775  0.36290  0.69060  Biso   1.000  C
  C613     1.0000 0.86775  0.13710  0.19060  Biso   1.000  C
  C614     1.0000 0.36775  0.63710  0.19060  Biso   1.000  C
  C615     1.0000 0.13225  0.13710  0.30940  Biso   1.000  C
  C616     1.0000 0.63225  0.63710  0.30940  Biso   1.000  C
  H529     1.0000 0.14420  0.84280  0.78570  Biso   1.000  H
  H530     1.0000 0.64420  0.34280  0.78570  Biso   1.000  H
  H531     1.0000 0.85580  0.84280  0.71430  Biso   1.000  H
  H532     1.0000 0.35580  0.34280  0.71430  Biso   1.000  H
  H533     1.0000 0.85580  0.15720  0.21430  Biso   1.000  H
  H534     1.0000 0.35580  0.65720  0.21430  Biso   1.000  H
  H535     1.0000 0.14420  0.15720  0.28570  Biso   1.000  H
  H536     1.0000 0.64420  0.65720  0.28570  Biso   1.000  H
  H537     1.0000 0.11690  0.88660  0.78330  Biso   1.000  H
  H538     1.0000 0.61690  0.38660  0.78330  Biso   1.000  H
  H539     1.0000 0.88310  0.88660  0.71670  Biso   1.000  H
  H540     1.0000 0.38310  0.38660  0.71670  Biso   1.000  H
  H541     1.0000 0.88310  0.11340  0.21670  Biso   1.000  H
  H542     1.0000 0.38310  0.61340  0.21670  Biso   1.000  H
  H543     1.0000 0.11690  0.11340  0.28330  Biso   1.000  H
  H544     1.0000 0.61690  0.61340  0.28330  Biso   1.000  H
  H545     1.0000 0.12710  0.81660  0.83180  Biso   1.000  H
  H546     1.0000 0.62710  0.31660  0.83180  Biso   1.000  H
  H547     1.0000 0.87290  0.81660  0.66820  Biso   1.000  H
  H548     1.0000 0.37290  0.31660  0.66820  Biso   1.000  H
  H549     1.0000 0.87290  0.18340  0.16820  Biso   1.000  H
  H550     1.0000 0.37290  0.68340  0.16820  Biso   1.000  H
  H551     1.0000 0.12710  0.18340  0.33180  Biso   1.000  H
  H552     1.0000 0.62710  0.68340  0.33180  Biso   1.000  H
  N1       1.0000 0.21241  0.03110  0.23250  Biso   1.000  N
  N2       1.0000 0.71241  0.53110  0.23250  Biso   1.000  N
  N3       1.0000 0.78759  0.03110  0.26750  Biso   1.000  N
  N4       1.0000 0.28759  0.53110  0.26750  Biso   1.000  N
  N5       1.0000 0.78759  0.96890  0.76750  Biso   1.000  N
  N6       1.0000 0.28759  0.46890  0.76750  Biso   1.000  N
  N7       1.0000 0.21241  0.96890  0.73250  Biso   1.000  N
  N8       1.0000 0.71241  0.46890  0.73250  Biso   1.000  N
  C617     1.0000 0.18918  0.99700  0.23300  Biso   1.000  C
  C618     1.0000 0.68918  0.49700  0.23300  Biso   1.000  C
  C619     1.0000 0.81082  0.99700  0.26700  Biso   1.000  C
  C620     1.0000 0.31082  0.49700  0.26700  Biso   1.000  C
  C621     1.0000 0.81082  0.00300  0.76700  Biso   1.000  C
  C622     1.0000 0.31082  0.50300  0.76700  Biso   1.000  C
  C623     1.0000 0.18918  0.00300  0.73300  Biso   1.000  C
  C624     1.0000 0.68918  0.50300  0.73300  Biso   1.000  C
  H553     1.0000 0.17580  0.00290  0.19860  Biso   1.000  H
  H554     1.0000 0.67580  0.50290  0.19860  Biso   1.000  H
  H555     1.0000 0.82420  0.00290  0.30140  Biso   1.000  H
  H556     1.0000 0.32420  0.50290  0.30140  Biso   1.000  H
  H557     1.0000 0.82420  0.99710  0.80140  Biso   1.000  H
  H558     1.0000 0.32420  0.49710  0.80140  Biso   1.000  H
  H559     1.0000 0.17580  0.99710  0.69860  Biso   1.000  H
  H560     1.0000 0.67580  0.49710  0.69860  Biso   1.000  H
  C625     1.0000 0.18369  0.95430  0.27970  Biso   1.000  C
  C626     1.0000 0.68369  0.45430  0.27970  Biso   1.000  C
  C627     1.0000 0.81631  0.95430  0.22030  Biso   1.000  C
  C628     1.0000 0.31631  0.45430  0.22030  Biso   1.000  C
  C629     1.0000 0.81631  0.04570  0.72030  Biso   1.000  C
  C630     1.0000 0.31631  0.54570  0.72030  Biso   1.000  C
  C631     1.0000 0.18369  0.04570  0.77970  Biso   1.000  C
  C632     1.0000 0.68369  0.54570  0.77970  Biso   1.000  C
  H561     1.0000 0.16690  0.93220  0.27880  Biso   1.000  H
  H562     1.0000 0.66690  0.43220  0.27880  Biso   1.000  H
  H563     1.0000 0.83310  0.93220  0.22120  Biso   1.000  H
  H564     1.0000 0.33310  0.43220  0.22120  Biso   1.000  H
  H565     1.0000 0.83310  0.06780  0.72120  Biso   1.000  H
  H566     1.0000 0.33310  0.56780  0.72120  Biso   1.000  H
  H567     1.0000 0.16690  0.06780  0.77880  Biso   1.000  H
  H568     1.0000 0.66690  0.56780  0.77880  Biso   1.000  H
  C633     1.0000 0.20310  0.94550  0.32660  Biso   1.000  C
  C634     1.0000 0.70310  0.44550  0.32660  Biso   1.000  C
  C635     1.0000 0.79690  0.94550  0.17340  Biso   1.000  C
  C636     1.0000 0.29690  0.44550  0.17340  Biso   1.000  C
  C637     1.0000 0.79690  0.05450  0.67340  Biso   1.000  C
  C638     1.0000 0.29690  0.55450  0.67340  Biso   1.000  C
  C639     1.0000 0.20310  0.05450  0.82660  Biso   1.000  C
  C640     1.0000 0.70310  0.55450  0.82660  Biso   1.000  C
  H569     1.0000 0.20020  0.91560  0.35990  Biso   1.000  H
  H570     1.0000 0.70020  0.41560  0.35990  Biso   1.000  H
  H571     1.0000 0.79980  0.91560  0.14010  Biso   1.000  H
  H572     1.0000 0.29980  0.41560  0.14010  Biso   1.000  H
  H573     1.0000 0.79980  0.08440  0.64010  Biso   1.000  H
  H574     1.0000 0.29980  0.58440  0.64010  Biso   1.000  H
  H575     1.0000 0.20020  0.08440  0.85990  Biso   1.000  H
  H576     1.0000 0.70020  0.58440  0.85990  Biso   1.000  H
  C641     1.0000 0.22763  0.97900  0.32830  Biso   1.000  C
  C642     1.0000 0.72763  0.47900  0.32830  Biso   1.000  C
  C643     1.0000 0.77237  0.97900  0.17170  Biso   1.000  C
  C644     1.0000 0.27237  0.47900  0.17170  Biso   1.000  C
  C645     1.0000 0.77237  0.02100  0.67170  Biso   1.000  C
  C646     1.0000 0.27237  0.52100  0.67170  Biso   1.000  C
  C647     1.0000 0.22763  0.02100  0.82830  Biso   1.000  C
  C648     1.0000 0.72763  0.52100  0.82830  Biso   1.000  C
  H577     1.0000 0.24130  0.97240  0.36220  Biso   1.000  H
  H578     1.0000 0.74130  0.47240  0.36220  Biso   1.000  H
  H579     1.0000 0.75870  0.97240  0.13780  Biso   1.000  H
  H580     1.0000 0.25870  0.47240  0.13780  Biso   1.000  H
  H581     1.0000 0.75870  0.02760  0.63780  Biso   1.000  H
  H582     1.0000 0.25870  0.52760  0.63780  Biso   1.000  H
  H583     1.0000 0.24130  0.02760  0.86220  Biso   1.000  H
  H584     1.0000 0.74130  0.52760  0.86220  Biso   1.000  H
  C649     1.0000 0.23135  0.02100  0.28010  Biso   1.000  C
  C650     1.0000 0.73135  0.52100  0.28010  Biso   1.000  C
  C651     1.0000 0.76865  0.02100  0.21990  Biso   1.000  C
  C652     1.0000 0.26865  0.52100  0.21990  Biso   1.000  C
  C653     1.0000 0.76865  0.97900  0.71990  Biso   1.000  C
  C654     1.0000 0.26865  0.47900  0.71990  Biso   1.000  C
  C655     1.0000 0.23135  0.97900  0.78010  Biso   1.000  C
  C656     1.0000 0.73135  0.47900  0.78010  Biso   1.000  C
  H585     1.0000 0.24790  0.04380  0.28040  Biso   1.000  H
  H586     1.0000 0.74790  0.54380  0.28040  Biso   1.000  H
  H587     1.0000 0.75210  0.04380  0.21960  Biso   1.000  H
  H588     1.0000 0.25210  0.54380  0.21960  Biso   1.000  H
  H589     1.0000 0.75210  0.95620  0.71960  Biso   1.000  H
  H590     1.0000 0.25210  0.45620  0.71960  Biso   1.000  H
  H591     1.0000 0.24790  0.95620  0.78040  Biso   1.000  H
  H592     1.0000 0.74790  0.45620  0.78040  Biso   1.000  H
  N9       1.0000 0.27427  0.36570  0.91430  Biso   1.000  N
  N10      1.0000 0.77427  0.86570  0.91430  Biso   1.000  N
  N11      1.0000 0.72573  0.36570  0.58570  Biso   1.000  N
  N12      1.0000 0.22573  0.86570  0.58570  Biso   1.000  N
  N13      1.0000 0.72573  0.63430  0.08570  Biso   1.000  N
  N14      1.0000 0.22573  0.13430  0.08570  Biso   1.000  N
  N15      1.0000 0.27427  0.63430  0.41430  Biso   1.000  N
  N16      1.0000 0.77427  0.13430  0.41430  Biso   1.000  N
  C657     1.0000 0.27340  0.41710  0.96200  Biso   1.000  C
  C658     1.0000 0.77340  0.91710  0.96200  Biso   1.000  C
  C659     1.0000 0.72660  0.41710  0.53800  Biso   1.000  C
  C660     1.0000 0.22660  0.91710  0.53800  Biso   1.000  C
  C661     1.0000 0.72660  0.58290  0.03800  Biso   1.000  C
  C662     1.0000 0.22660  0.08290  0.03800  Biso   1.000  C
  C663     1.0000 0.27340  0.58290  0.46200  Biso   1.000  C
  C664     1.0000 0.77340  0.08290  0.46200  Biso   1.000  C
  H593     1.0000 0.27760  0.47430  0.96050  Biso   1.000  H
  H594     1.0000 0.77760  0.97430  0.96050  Biso   1.000  H
  H595     1.0000 0.72240  0.47430  0.53950  Biso   1.000  H
  H596     1.0000 0.22240  0.97430  0.53950  Biso   1.000  H
  H597     1.0000 0.72240  0.52570  0.03950  Biso   1.000  H
  H598     1.0000 0.22240  0.02570  0.03950  Biso   1.000  H
  H599     1.0000 0.27760  0.52570  0.46050  Biso   1.000  H
  H600     1.0000 0.77760  0.02570  0.46050  Biso   1.000  H
  C665     1.0000 0.26630  0.38490  0.01190  Biso   1.000  C
  C666     1.0000 0.76630  0.88490  0.01190  Biso   1.000  C
  C667     1.0000 0.73370  0.38490  0.48810  Biso   1.000  C
  C668     1.0000 0.23370  0.88490  0.48810  Biso   1.000  C
  C669     1.0000 0.73370  0.61510  0.98810  Biso   1.000  C
  C670     1.0000 0.23370  0.11510  0.98810  Biso   1.000  C
  C671     1.0000 0.26630  0.61510  0.51190  Biso   1.000  C
  C672     1.0000 0.76630  0.11510  0.51190  Biso   1.000  C
  H601     1.0000 0.26570  0.42000  0.04450  Biso   1.000  H
  H602     1.0000 0.76570  0.92000  0.04450  Biso   1.000  H
  H603     1.0000 0.73430  0.42000  0.45550  Biso   1.000  H
  H604     1.0000 0.23430  0.92000  0.45550  Biso   1.000  H
  H605     1.0000 0.73430  0.58000  0.95550  Biso   1.000  H
  H606     1.0000 0.23430  0.08000  0.95550  Biso   1.000  H
  H607     1.0000 0.26570  0.58000  0.54450  Biso   1.000  H
  H608     1.0000 0.76570  0.08000  0.54450  Biso   1.000  H
  C673     1.0000 0.26020  0.30120  0.01410  Biso   1.000  C
  C674     1.0000 0.76020  0.80120  0.01410  Biso   1.000  C
  C675     1.0000 0.73980  0.30120  0.48590  Biso   1.000  C
  C676     1.0000 0.23980  0.80120  0.48590  Biso   1.000  C
  C677     1.0000 0.73980  0.69880  0.98590  Biso   1.000  C
  C678     1.0000 0.23980  0.19880  0.98590  Biso   1.000  C
  C679     1.0000 0.26020  0.69880  0.51410  Biso   1.000  C
  C680     1.0000 0.76020  0.19880  0.51410  Biso   1.000  C
  H609     1.0000 0.25530  0.27910  0.04820  Biso   1.000  H
  H610     1.0000 0.75530  0.77910  0.04820  Biso   1.000  H
  H611     1.0000 0.74470  0.27910  0.45180  Biso   1.000  H
  H612     1.0000 0.24470  0.77910  0.45180  Biso   1.000  H
  H613     1.0000 0.74470  0.72090  0.95180  Biso   1.000  H
  H614     1.0000 0.24470  0.22090  0.95180  Biso   1.000  H
  H615     1.0000 0.25530  0.72090  0.54820  Biso   1.000  H
  H616     1.0000 0.75530  0.22090  0.54820  Biso   1.000  H
  C681     1.0000 0.26110  0.24970  0.96640  Biso   1.000  C
  C682     1.0000 0.76110  0.74970  0.96640  Biso   1.000  C
  C683     1.0000 0.73890  0.24970  0.53360  Biso   1.000  C
  C684     1.0000 0.23890  0.74970  0.53360  Biso   1.000  C
  C685     1.0000 0.73890  0.75030  0.03360  Biso   1.000  C
  C686     1.0000 0.23890  0.25030  0.03360  Biso   1.000  C
  C687     1.0000 0.26110  0.75030  0.46640  Biso   1.000  C
  C688     1.0000 0.76110  0.25030  0.46640  Biso   1.000  C
  H617     1.0000 0.25680  0.19250  0.96790  Biso   1.000  H
  H618     1.0000 0.75680  0.69250  0.96790  Biso   1.000  H
  H619     1.0000 0.74320  0.19250  0.53210  Biso   1.000  H
  H620     1.0000 0.24320  0.69250  0.53210  Biso   1.000  H
  H621     1.0000 0.74320  0.80750  0.03210  Biso   1.000  H
  H622     1.0000 0.24320  0.30750  0.03210  Biso   1.000  H
  H623     1.0000 0.25680  0.80750  0.46790  Biso   1.000  H
  H624     1.0000 0.75680  0.30750  0.46790  Biso   1.000  H
  C689     1.0000 0.26810  0.28200  0.91650  Biso   1.000  C
  C690     1.0000 0.76810  0.78200  0.91650  Biso   1.000  C
  C691     1.0000 0.73190  0.28200  0.58350  Biso   1.000  C
  C692     1.0000 0.23190  0.78200  0.58350  Biso   1.000  C
  C693     1.0000 0.73190  0.71800  0.08350  Biso   1.000  C
  C694     1.0000 0.23190  0.21800  0.08350  Biso   1.000  C
  C695     1.0000 0.26810  0.71800  0.41650  Biso   1.000  C
  C696     1.0000 0.76810  0.21800  0.41650  Biso   1.000  C
  H625     1.0000 0.26870  0.24680  0.88390  Biso   1.000  H
  H626     1.0000 0.76870  0.74680  0.88390  Biso   1.000  H
  H627     1.0000 0.73130  0.24680  0.61610  Biso   1.000  H
  H628     1.0000 0.23130  0.74680  0.61610  Biso   1.000  H
  H629     1.0000 0.73130  0.75320  0.11610  Biso   1.000  H
  H630     1.0000 0.23130  0.25320  0.11610  Biso   1.000  H
  H631     1.0000 0.26870  0.75320  0.38390  Biso   1.000  H
  H632     1.0000 0.76870  0.25320  0.38390  Biso   1.000  H
  N17      1.0000 0.21574  0.11470  0.07600  Biso   1.000  N
  N18      1.0000 0.71574  0.61470  0.07600  Biso   1.000  N
  N19      1.0000 0.78426  0.11470  0.42400  Biso   1.000  N
  N20      1.0000 0.28426  0.61470  0.42400  Biso   1.000  N
  N21      1.0000 0.78426  0.88530  0.92400  Biso   1.000  N
  N22      1.0000 0.28426  0.38530  0.92400  Biso   1.000  N
  N23      1.0000 0.21574  0.88530  0.57600  Biso   1.000  N
  N24      1.0000 0.71574  0.38530  0.57600  Biso   1.000  N
  C697     1.0000 0.21702  0.05560  0.03310  Biso   1.000  C
  C698     1.0000 0.71702  0.55560  0.03310  Biso   1.000  C
  C699     1.0000 0.78298  0.05560  0.46690  Biso   1.000  C
  C700     1.0000 0.28298  0.55560  0.46690  Biso   1.000  C
  C701     1.0000 0.78298  0.94440  0.96690  Biso   1.000  C
  C702     1.0000 0.28298  0.44440  0.96690  Biso   1.000  C
  C703     1.0000 0.21702  0.94440  0.53310  Biso   1.000  C
  C704     1.0000 0.71702  0.44440  0.53310  Biso   1.000  C
  H633     1.0000 0.21660  0.99810  0.04220  Biso   1.000  H
  H634     1.0000 0.71660  0.49810  0.04220  Biso   1.000  H
  H635     1.0000 0.78340  0.99810  0.45780  Biso   1.000  H
  H636     1.0000 0.28340  0.49810  0.45780  Biso   1.000  H
  H637     1.0000 0.78340  0.00190  0.95780  Biso   1.000  H
  H638     1.0000 0.28340  0.50190  0.95780  Biso   1.000  H
  H639     1.0000 0.21660  0.00190  0.54220  Biso   1.000  H
  H640     1.0000 0.71660  0.50190  0.54220  Biso   1.000  H
  C705     1.0000 0.21888  0.08050  0.97670  Biso   1.000  C
  C706     1.0000 0.71888  0.58050  0.97670  Biso   1.000  C
  C707     1.0000 0.78112  0.08050  0.52330  Biso   1.000  C
  C708     1.0000 0.28112  0.58050  0.52330  Biso   1.000  C
  C709     1.0000 0.78112  0.91950  0.02330  Biso   1.000  C
  C710     1.0000 0.28112  0.41950  0.02330  Biso   1.000  C
  C711     1.0000 0.21888  0.91950  0.47670  Biso   1.000  C
  C712     1.0000 0.71888  0.41950  0.47670  Biso   1.000  C
  H641     1.0000 0.21980  0.04000  0.94730  Biso   1.000  H
  H642     1.0000 0.71980  0.54000  0.94730  Biso   1.000  H
  H643     1.0000 0.78020  0.04000  0.55270  Biso   1.000  H
  H644     1.0000 0.28020  0.54000  0.55270  Biso   1.000  H
  H645     1.0000 0.78020  0.96000  0.05270  Biso   1.000  H
  H646     1.0000 0.28020  0.46000  0.05270  Biso   1.000  H
  H647     1.0000 0.21980  0.96000  0.44730  Biso   1.000  H
  H648     1.0000 0.71980  0.46000  0.44730  Biso   1.000  H
  C713     1.0000 0.21945  0.16450  0.96330  Biso   1.000  C
  C714     1.0000 0.71945  0.66450  0.96330  Biso   1.000  C
  C715     1.0000 0.78055  0.16450  0.53670  Biso   1.000  C
  C716     1.0000 0.28055  0.66450  0.53670  Biso   1.000  C
  C717     1.0000 0.78055  0.83550  0.03670  Biso   1.000  C
  C718     1.0000 0.28055  0.33550  0.03670  Biso   1.000  C
  C719     1.0000 0.21945  0.83550  0.46330  Biso   1.000  C
  C720     1.0000 0.71945  0.33550  0.46330  Biso   1.000  C
  H649     1.0000 0.22070  0.18150  0.92480  Biso   1.000  H
  H650     1.0000 0.72070  0.68150  0.92480  Biso   1.000  H
  H651     1.0000 0.77930  0.18150  0.57520  Biso   1.000  H
  H652     1.0000 0.27930  0.68150  0.57520  Biso   1.000  H
  H653     1.0000 0.77930  0.81850  0.07520  Biso   1.000  H
  H654     1.0000 0.27930  0.31850  0.07520  Biso   1.000  H
  H655     1.0000 0.22070  0.81850  0.42480  Biso   1.000  H
  H656     1.0000 0.72070  0.31850  0.42480  Biso   1.000  H
  C721     1.0000 0.21817  0.22360  0.00630  Biso   1.000  C
  C722     1.0000 0.71817  0.72360  0.00630  Biso   1.000  C
  C723     1.0000 0.78183  0.22360  0.49370  Biso   1.000  C
  C724     1.0000 0.28183  0.72360  0.49370  Biso   1.000  C
  C725     1.0000 0.78183  0.77640  0.99370  Biso   1.000  C
  C726     1.0000 0.28183  0.27640  0.99370  Biso   1.000  C
  C727     1.0000 0.21817  0.77640  0.50630  Biso   1.000  C
  C728     1.0000 0.71817  0.27640  0.50630  Biso   1.000  C
  H657     1.0000 0.21860  0.28100  0.99710  Biso   1.000  H
  H658     1.0000 0.71860  0.78100  0.99710  Biso   1.000  H
  H659     1.0000 0.78140  0.28100  0.50290  Biso   1.000  H
  H660     1.0000 0.28140  0.78100  0.50290  Biso   1.000  H
  H661     1.0000 0.78140  0.71900  0.00290  Biso   1.000  H
  H662     1.0000 0.28140  0.21900  0.00290  Biso   1.000  H
  H663     1.0000 0.21860  0.71900  0.49710  Biso   1.000  H
  H664     1.0000 0.71860  0.21900  0.49710  Biso   1.000  H
  C729     1.0000 0.21631  0.19870  0.06260  Biso   1.000  C
  C730     1.0000 0.71631  0.69870  0.06260  Biso   1.000  C
  C731     1.0000 0.78369  0.19870  0.43740  Biso   1.000  C
  C732     1.0000 0.28369  0.69870  0.43740  Biso   1.000  C
  C733     1.0000 0.78369  0.80130  0.93740  Biso   1.000  C
  C734     1.0000 0.28369  0.30130  0.93740  Biso   1.000  C
  C735     1.0000 0.21631  0.80130  0.56260  Biso   1.000  C
  C736     1.0000 0.71631  0.30130  0.56260  Biso   1.000  C
  H665     1.0000 0.21540  0.23920  0.09200  Biso   1.000  H
  H666     1.0000 0.71540  0.73920  0.09200  Biso   1.000  H
  H667     1.0000 0.78460  0.23920  0.40800  Biso   1.000  H
  H668     1.0000 0.28460  0.73920  0.40800  Biso   1.000  H
  H669     1.0000 0.78460  0.76080  0.90800  Biso   1.000  H
  H670     1.0000 0.28460  0.26080  0.90800  Biso   1.000  H
  H671     1.0000 0.21540  0.76080  0.59200  Biso   1.000  H
  H672     1.0000 0.71540  0.26080  0.59200  Biso   1.000  H
  N25      1.0000 0.00000  0.95980  0.25000  Biso   1.000  N
  N26      1.0000 0.50000  0.45980  0.25000  Biso   1.000  N
  N27      1.0000 0.00000  0.04020  0.75000  Biso   1.000  N
  N28      1.0000 0.50000  0.54020  0.75000  Biso   1.000  N
  C737     1.0000 0.01280  0.99640  0.21860  Biso   1.000  C
  C738     1.0000 0.51280  0.49640  0.21860  Biso   1.000  C
  C739     1.0000 0.98720  0.99640  0.28140  Biso   1.000  C
  C740     1.0000 0.48720  0.49640  0.28140  Biso   1.000  C
  C741     1.0000 0.98720  0.00360  0.78140  Biso   1.000  C
  C742     1.0000 0.48720  0.50360  0.78140  Biso   1.000  C
  C743     1.0000 0.01280  0.00360  0.71860  Biso   1.000  C
  C744     1.0000 0.51280  0.50360  0.71860  Biso   1.000  C
  H673     1.0000 0.02220  0.96500  0.19550  Biso   1.000  H
  H674     1.0000 0.52220  0.46500  0.19550  Biso   1.000  H
  H675     1.0000 0.97780  0.96500  0.30450  Biso   1.000  H
  H676     1.0000 0.47780  0.46500  0.30450  Biso   1.000  H
  H677     1.0000 0.97780  0.03500  0.80450  Biso   1.000  H
  H678     1.0000 0.47780  0.53500  0.80450  Biso   1.000  H
  H679     1.0000 0.02220  0.03500  0.69550  Biso   1.000  H
  H680     1.0000 0.52220  0.53500  0.69550  Biso   1.000  H
  C745     1.0000 0.01350  0.08620  0.21670  Biso   1.000  C
  C746     1.0000 0.51350  0.58620  0.21670  Biso   1.000  C
  C747     1.0000 0.98650  0.08620  0.28330  Biso   1.000  C
  C748     1.0000 0.48650  0.58620  0.28330  Biso   1.000  C
  C749     1.0000 0.98650  0.91380  0.78330  Biso   1.000  C
  C750     1.0000 0.48650  0.41380  0.78330  Biso   1.000  C
  C751     1.0000 0.01350  0.91380  0.71670  Biso   1.000  C
  C752     1.0000 0.51350  0.41380  0.71670  Biso   1.000  C
  H681     1.0000 0.02330  0.11310  0.19240  Biso   1.000  H
  H682     1.0000 0.52330  0.61310  0.19240  Biso   1.000  H
  H683     1.0000 0.97670  0.11310  0.30760  Biso   1.000  H
  H684     1.0000 0.47670  0.61310  0.30760  Biso   1.000  H
  H685     1.0000 0.97670  0.88690  0.80760  Biso   1.000  H
  H686     1.0000 0.47670  0.38690  0.80760  Biso   1.000  H
  H687     1.0000 0.02330  0.88690  0.69240  Biso   1.000  H
  H688     1.0000 0.52330  0.38690  0.69240  Biso   1.000  H
  C753     1.0000 0.00000  0.13300  0.25000  Biso   1.000  C
  C754     1.0000 0.50000  0.63300  0.25000  Biso   1.000  C
  C755     1.0000 0.00000  0.86700  0.75000  Biso   1.000  C
  C756     1.0000 0.50000  0.36700  0.75000  Biso   1.000  C
  H689     1.0000 0.00000  0.19200  0.25000  Biso   1.000  H
  H690     1.0000 0.50000  0.69200  0.25000  Biso   1.000  H
  H691     1.0000 0.00000  0.80800  0.75000  Biso   1.000  H
  H692     1.0000 0.50000  0.30800  0.75000  Biso   1.000  H
  C757     1.0000 0.01273  0.00590  0.29610  Biso   1.000  C
  C758     1.0000 0.51273  0.50590  0.29610  Biso   1.000  C
  C759     1.0000 0.98727  0.00590  0.20390  Biso   1.000  C
  C760     1.0000 0.48727  0.50590  0.20390  Biso   1.000  C
  C761     1.0000 0.98727  0.99410  0.70390  Biso   1.000  C
  C762     1.0000 0.48727  0.49410  0.70390  Biso   1.000  C
  C763     1.0000 0.01273  0.99410  0.79610  Biso   1.000  C
  C764     1.0000 0.51273  0.49410  0.79610  Biso   1.000  C
  H693     1.0000 0.02190  0.97770  0.33030  Biso   1.000  H
  H694     1.0000 0.52190  0.47770  0.33030  Biso   1.000  H
  H695     1.0000 0.97810  0.97770  0.16970  Biso   1.000  H
  H696     1.0000 0.47810  0.47770  0.16970  Biso   1.000  H
  H697     1.0000 0.97810  0.02230  0.66970  Biso   1.000  H
  H698     1.0000 0.47810  0.52230  0.66970  Biso   1.000  H
  H699     1.0000 0.02190  0.02230  0.83030  Biso   1.000  H
  H700     1.0000 0.52190  0.52230  0.83030  Biso   1.000  H
  C765     1.0000 0.01314  0.09470  0.29610  Biso   1.000  C
  C766     1.0000 0.51314  0.59470  0.29610  Biso   1.000  C
  C767     1.0000 0.98686  0.09470  0.20390  Biso   1.000  C
  C768     1.0000 0.48686  0.59470  0.20390  Biso   1.000  C
  C769     1.0000 0.98686  0.90530  0.70390  Biso   1.000  C
  C770     1.0000 0.48686  0.40530  0.70390  Biso   1.000  C
  C771     1.0000 0.01314  0.90530  0.79610  Biso   1.000  C
  C772     1.0000 0.51314  0.40530  0.79610  Biso   1.000  C
  H701     1.0000 0.02280  0.12480  0.32900  Biso   1.000  H
  H702     1.0000 0.52280  0.62480  0.32900  Biso   1.000  H
  H703     1.0000 0.97720  0.12480  0.17100  Biso   1.000  H
  H704     1.0000 0.47720  0.62480  0.17100  Biso   1.000  H
  H705     1.0000 0.97720  0.87520  0.67100  Biso   1.000  H
  H706     1.0000 0.47720  0.37520  0.67100  Biso   1.000  H
  H707     1.0000 0.02280  0.87520  0.82900  Biso   1.000  H
  H708     1.0000 0.52280  0.37520  0.82900  Biso   1.000  H
  N29      1.0000 0.00000  0.70770  0.25000  Biso   1.000  N
  N30      1.0000 0.50000  0.20770  0.25000  Biso   1.000  N
  N31      1.0000 0.00000  0.29230  0.75000  Biso   1.000  N
  N32      1.0000 0.50000  0.79230  0.75000  Biso   1.000  N
  C773     1.0000 0.01365  0.66430  0.21910  Biso   1.000  C
  C774     1.0000 0.51365  0.16430  0.21910  Biso   1.000  C
  C775     1.0000 0.98635  0.66430  0.28090  Biso   1.000  C
  C776     1.0000 0.48635  0.16430  0.28090  Biso   1.000  C
  C777     1.0000 0.98635  0.33570  0.78090  Biso   1.000  C
  C778     1.0000 0.48635  0.83570  0.78090  Biso   1.000  C
  C779     1.0000 0.01365  0.33570  0.71910  Biso   1.000  C
  C780     1.0000 0.51365  0.83570  0.71910  Biso   1.000  C
  H709     1.0000 0.02380  0.69400  0.19670  Biso   1.000  H
  H710     1.0000 0.52380  0.19400  0.19670  Biso   1.000  H
  H711     1.0000 0.97620  0.69400  0.30330  Biso   1.000  H
  H712     1.0000 0.47620  0.19400  0.30330  Biso   1.000  H
  H713     1.0000 0.97620  0.30600  0.80330  Biso   1.000  H
  H714     1.0000 0.47620  0.80600  0.80330  Biso   1.000  H
  H715     1.0000 0.02380  0.30600  0.69670  Biso   1.000  H
  H716     1.0000 0.52380  0.80600  0.69670  Biso   1.000  H
  C781     1.0000 0.01416  0.57890  0.21720  Biso   1.000  C
  C782     1.0000 0.51416  0.07890  0.21720  Biso   1.000  C
  C783     1.0000 0.98584  0.57890  0.28280  Biso   1.000  C
  C784     1.0000 0.48584  0.07890  0.28280  Biso   1.000  C
  C785     1.0000 0.98584  0.42110  0.78280  Biso   1.000  C
  C786     1.0000 0.48584  0.92110  0.78280  Biso   1.000  C
  C787     1.0000 0.01416  0.42110  0.71720  Biso   1.000  C
  C788     1.0000 0.51416  0.92110  0.71720  Biso   1.000  C
  H717     1.0000 0.02410  0.55060  0.19370  Biso   1.000  H
  H718     1.0000 0.52410  0.05060  0.19370  Biso   1.000  H
  H719     1.0000 0.97590  0.55060  0.30630  Biso   1.000  H
  H720     1.0000 0.47590  0.05060  0.30630  Biso   1.000  H
  H721     1.0000 0.97590  0.44940  0.80630  Biso   1.000  H
  H722     1.0000 0.47590  0.94940  0.80630  Biso   1.000  H
  H723     1.0000 0.02410  0.44940  0.69370  Biso   1.000  H
  H724     1.0000 0.52410  0.94940  0.69370  Biso   1.000  H
  C789     1.0000 0.00000  0.53610  0.25000  Biso   1.000  C
  C790     1.0000 0.50000  0.03610  0.25000  Biso   1.000  C
  C791     1.0000 0.00000  0.46390  0.75000  Biso   1.000  C
  C792     1.0000 0.50000  0.96390  0.75000  Biso   1.000  C
  H725     1.0000 0.00000  0.47710  0.25000  Biso   1.000  H
  H726     1.0000 0.50000  0.97710  0.25000  Biso   1.000  H
  H727     1.0000 0.00000  0.52290  0.75000  Biso   1.000  H
  H728     1.0000 0.50000  0.02290  0.75000  Biso   1.000  H
  O161     1.0000 0.04803  0.84040  0.29331  Biso   1.000  O
  O162     1.0000 0.54803  0.34040  0.29331  Biso   1.000  O
  O163     1.0000 0.95197  0.84040  0.20669  Biso   1.000  O
  O164     1.0000 0.45197  0.34040  0.20669  Biso   1.000  O
  O165     1.0000 0.95197  0.15960  0.70669  Biso   1.000  O
  O166     1.0000 0.45197  0.65960  0.70669  Biso   1.000  O
  O167     1.0000 0.04803  0.15960  0.79331  Biso   1.000  O
  O168     1.0000 0.54803  0.65960  0.79331  Biso   1.000  O
  H729     1.0000 0.04170  0.81610  0.31890  Biso   1.000  H
  H730     1.0000 0.54170  0.31610  0.31890  Biso   1.000  H
  H731     1.0000 0.95830  0.81610  0.18110  Biso   1.000  H
  H732     1.0000 0.45830  0.31610  0.18110  Biso   1.000  H
  H733     1.0000 0.95830  0.18390  0.68110  Biso   1.000  H
  H734     1.0000 0.45830  0.68390  0.68110  Biso   1.000  H
  H735     1.0000 0.04170  0.18390  0.81890  Biso   1.000  H
  H736     1.0000 0.54170  0.68390  0.81890  Biso   1.000  H
  C793     1.0000 0.06842  0.79280  0.28100  Biso   1.000  C
  C794     1.0000 0.56842  0.29280  0.28100  Biso   1.000  C
  C795     1.0000 0.93158  0.79280  0.21900  Biso   1.000  C
  C796     1.0000 0.43158  0.29280  0.21900  Biso   1.000  C
  C797     1.0000 0.93158  0.20720  0.71900  Biso   1.000  C
  C798     1.0000 0.43158  0.70720  0.71900  Biso   1.000  C
  C799     1.0000 0.06842  0.20720  0.78100  Biso   1.000  C
  C800     1.0000 0.56842  0.70720  0.78100  Biso   1.000  C
  H737     1.0000 0.06610  0.73460  0.29120  Biso   1.000  H
  H738     1.0000 0.56610  0.23460  0.29120  Biso   1.000  H
  H739     1.0000 0.93390  0.73460  0.20880  Biso   1.000  H
  H740     1.0000 0.43390  0.23460  0.20880  Biso   1.000  H
  H741     1.0000 0.93390  0.26540  0.70880  Biso   1.000  H
  H742     1.0000 0.43390  0.76540  0.70880  Biso   1.000  H
  H743     1.0000 0.06610  0.26540  0.79120  Biso   1.000  H
  H744     1.0000 0.56610  0.76540  0.79120  Biso   1.000  H
  H745     1.0000 0.08490  0.81340  0.30450  Biso   1.000  H
  H746     1.0000 0.58490  0.31340  0.30450  Biso   1.000  H
  H747     1.0000 0.91510  0.81340  0.19550  Biso   1.000  H
  H748     1.0000 0.41510  0.31340  0.19550  Biso   1.000  H
  H749     1.0000 0.91510  0.18660  0.69550  Biso   1.000  H
  H750     1.0000 0.41510  0.68660  0.69550  Biso   1.000  H
  H751     1.0000 0.08490  0.18660  0.80450  Biso   1.000  H
  H752     1.0000 0.58490  0.68660  0.80450  Biso   1.000  H
  H753     1.0000 0.06850  0.79710  0.23890  Biso   1.000  H
  H754     1.0000 0.56850  0.29710  0.23890  Biso   1.000  H
  H755     1.0000 0.93150  0.79710  0.26110  Biso   1.000  H
  H756     1.0000 0.43150  0.29710  0.26110  Biso   1.000  H
  H757     1.0000 0.93150  0.20290  0.76110  Biso   1.000  H
  H758     1.0000 0.43150  0.70290  0.76110  Biso   1.000  H
  H759     1.0000 0.06850  0.20290  0.73890  Biso   1.000  H
  H760     1.0000 0.56850  0.70290  0.73890  Biso   1.000  H
