data_image0
_cell_length_a       12.5763
_cell_length_b       41.171
_cell_length_c       16.873
_cell_angle_alpha    90
_cell_angle_beta     94.435
_cell_angle_gamma    90

_symmetry_space_group_name_H-M    "P 1"
_symmetry_int_tables_number       1

loop_
  _symmetry_equiv_pos_as_xyz
  'x, y, z'

loop_
  _atom_site_label
  _atom_site_occupancy
  _atom_site_fract_x
  _atom_site_fract_y
  _atom_site_fract_z
  _atom_site_thermal_displace_type
  _atom_site_B_iso_or_equiv
  _atom_site_type_symbol
  C1       1.0000 0.00850  0.33170  0.18790  Biso   1.000  C
  C2       1.0000 0.49150  0.83170  0.81210  Biso   1.000  C
  C3       1.0000 0.99150  0.66830  0.81210  Biso   1.000  C
  C4       1.0000 0.50850  0.16830  0.18790  Biso   1.000  C
  C5       1.0000 0.02560  0.36500  0.20310  Biso   1.000  C
  C6       1.0000 0.47440  0.86500  0.79690  Biso   1.000  C
  C7       1.0000 0.97440  0.63500  0.79690  Biso   1.000  C
  C8       1.0000 0.52560  0.13500  0.20310  Biso   1.000  C
  C9       1.0000 0.10870  0.38080  0.17180  Biso   1.000  C
  C10      1.0000 0.39130  0.88080  0.82820  Biso   1.000  C
  C11      1.0000 0.89130  0.61920  0.82820  Biso   1.000  C
  C12      1.0000 0.60870  0.11920  0.17180  Biso   1.000  C
  H1       1.0000 0.12110  0.40260  0.18380  Biso   1.000  H
  H2       1.0000 0.37890  0.90260  0.81620  Biso   1.000  H
  H3       1.0000 0.87890  0.59740  0.81620  Biso   1.000  H
  H4       1.0000 0.62110  0.09740  0.18380  Biso   1.000  H
  C13      1.0000 0.17330  0.36500  0.12320  Biso   1.000  C
  C14      1.0000 0.32670  0.86500  0.87680  Biso   1.000  C
  C15      1.0000 0.82670  0.63500  0.87680  Biso   1.000  C
  C16      1.0000 0.67330  0.13500  0.12320  Biso   1.000  C
  H5       1.0000 0.22920  0.37610  0.10250  Biso   1.000  H
  H6       1.0000 0.27080  0.87610  0.89750  Biso   1.000  H
  H7       1.0000 0.77080  0.62390  0.89750  Biso   1.000  H
  H8       1.0000 0.72920  0.12390  0.10250  Biso   1.000  H
  C17      1.0000 0.15760  0.33340  0.10480  Biso   1.000  C
  C18      1.0000 0.34240  0.83340  0.89520  Biso   1.000  C
  C19      1.0000 0.84240  0.66660  0.89520  Biso   1.000  C
  C20      1.0000 0.65760  0.16660  0.10480  Biso   1.000  C
  H9       1.0000 0.20090  0.32320  0.07010  Biso   1.000  H
  H10      1.0000 0.29910  0.82320  0.92990  Biso   1.000  H
  H11      1.0000 0.79910  0.67680  0.92990  Biso   1.000  H
  H12      1.0000 0.70090  0.17680  0.07010  Biso   1.000  H
  C21      1.0000 0.07470  0.31550  0.13830  Biso   1.000  C
  C22      1.0000 0.42530  0.81550  0.86170  Biso   1.000  C
  C23      1.0000 0.92530  0.68450  0.86170  Biso   1.000  C
  C24      1.0000 0.57470  0.18450  0.13830  Biso   1.000  C
  C25      1.0000 0.06670  0.28160  0.11920  Biso   1.000  C
  C26      1.0000 0.43330  0.78160  0.88080  Biso   1.000  C
  C27      1.0000 0.93330  0.71840  0.88080  Biso   1.000  C
  C28      1.0000 0.56670  0.21840  0.11920  Biso   1.000  C
  C29      1.0000 0.01560  0.22670  0.11840  Biso   1.000  C
  C30      1.0000 0.48440  0.72670  0.88160  Biso   1.000  C
  C31      1.0000 0.98440  0.77330  0.88160  Biso   1.000  C
  C32      1.0000 0.51560  0.27330  0.11840  Biso   1.000  C
  H13      1.0000 0.07130  0.21640  0.15270  Biso   1.000  H
  H14      1.0000 0.42870  0.71640  0.84730  Biso   1.000  H
  H15      1.0000 0.92870  0.78360  0.84730  Biso   1.000  H
  H16      1.0000 0.57130  0.28360  0.15270  Biso   1.000  H
  H17      1.0000 0.03920  0.22700  0.06500  Biso   1.000  H
  H18      1.0000 0.46080  0.72700  0.93500  Biso   1.000  H
  H19      1.0000 0.96080  0.77300  0.93500  Biso   1.000  H
  H20      1.0000 0.53920  0.27300  0.06500  Biso   1.000  H
  C33      1.0000 0.91710  0.20660  0.11820  Biso   1.000  C
  C34      1.0000 0.58290  0.70660  0.88180  Biso   1.000  C
  C35      1.0000 0.08290  0.79340  0.88180  Biso   1.000  C
  C36      1.0000 0.41710  0.29340  0.11820  Biso   1.000  C
  H21      1.0000 0.85790  0.21810  0.09080  Biso   1.000  H
  H22      1.0000 0.64210  0.71810  0.90920  Biso   1.000  H
  H23      1.0000 0.14210  0.78190  0.90920  Biso   1.000  H
  H24      1.0000 0.35790  0.28190  0.09080  Biso   1.000  H
  H25      1.0000 0.92720  0.18640  0.09030  Biso   1.000  H
  H26      1.0000 0.57280  0.68640  0.90970  Biso   1.000  H
  H27      1.0000 0.07280  0.81360  0.90970  Biso   1.000  H
  H28      1.0000 0.42720  0.31360  0.09030  Biso   1.000  H
  C37      1.0000 0.89280  0.19970  0.20100  Biso   1.000  C
  C38      1.0000 0.60720  0.69970  0.79900  Biso   1.000  C
  C39      1.0000 0.10720  0.80030  0.79900  Biso   1.000  C
  C40      1.0000 0.39280  0.30030  0.20100  Biso   1.000  C
  H29      1.0000 0.84700  0.18070  0.20160  Biso   1.000  H
  H30      1.0000 0.65300  0.68070  0.79840  Biso   1.000  H
  H31      1.0000 0.15300  0.81930  0.79840  Biso   1.000  H
  H32      1.0000 0.34700  0.31930  0.20160  Biso   1.000  H
  H33      1.0000 0.95850  0.19480  0.23270  Biso   1.000  H
  H34      1.0000 0.54150  0.69480  0.76730  Biso   1.000  H
  H35      1.0000 0.04150  0.80520  0.76730  Biso   1.000  H
  H36      1.0000 0.45850  0.30520  0.23270  Biso   1.000  H
  C41      1.0000 0.75930  0.21920  0.27470  Biso   1.000  C
  C42      1.0000 0.74070  0.71920  0.72530  Biso   1.000  C
  C43      1.0000 0.24070  0.78080  0.72530  Biso   1.000  C
  C44      1.0000 0.25930  0.28080  0.27470  Biso   1.000  C
  C45      1.0000 0.69120  0.24120  0.31480  Biso   1.000  C
  C46      1.0000 0.80880  0.74120  0.68520  Biso   1.000  C
  C47      1.0000 0.30880  0.75880  0.68520  Biso   1.000  C
  C48      1.0000 0.19120  0.25880  0.31480  Biso   1.000  C
  C49      1.0000 0.59930  0.22840  0.34860  Biso   1.000  C
  C50      1.0000 0.90070  0.72840  0.65140  Biso   1.000  C
  C51      1.0000 0.40070  0.77160  0.65140  Biso   1.000  C
  C52      1.0000 0.09930  0.27160  0.34860  Biso   1.000  C
  H37      1.0000 0.58660  0.20620  0.34510  Biso   1.000  H
  H38      1.0000 0.91340  0.70620  0.65490  Biso   1.000  H
  H39      1.0000 0.41340  0.79380  0.65490  Biso   1.000  H
  H40      1.0000 0.08660  0.29380  0.34510  Biso   1.000  H
  C53      1.0000 0.53180  0.24670  0.38440  Biso   1.000  C
  C54      1.0000 0.96820  0.74670  0.61560  Biso   1.000  C
  C55      1.0000 0.46820  0.75330  0.61560  Biso   1.000  C
  C56      1.0000 0.03180  0.25330  0.38440  Biso   1.000  C
  H41      1.0000 0.47460  0.23710  0.40750  Biso   1.000  H
  H42      1.0000 0.02540  0.73710  0.59250  Biso   1.000  H
  H43      1.0000 0.52540  0.76290  0.59250  Biso   1.000  H
  H44      1.0000 0.97460  0.26290  0.40750  Biso   1.000  H
  C57      1.0000 0.54560  0.28010  0.38790  Biso   1.000  C
  C58      1.0000 0.95440  0.78010  0.61210  Biso   1.000  C
  C59      1.0000 0.45440  0.71990  0.61210  Biso   1.000  C
  C60      1.0000 0.04560  0.21990  0.38790  Biso   1.000  C
  H45      1.0000 0.49610  0.29330  0.41070  Biso   1.000  H
  H46      1.0000 0.00390  0.79330  0.58930  Biso   1.000  H
  H47      1.0000 0.50390  0.70670  0.58930  Biso   1.000  H
  H48      1.0000 0.99610  0.20670  0.41070  Biso   1.000  H
  C61      1.0000 0.63660  0.29390  0.35620  Biso   1.000  C
  C62      1.0000 0.86340  0.79390  0.64380  Biso   1.000  C
  C63      1.0000 0.36340  0.70610  0.64380  Biso   1.000  C
  C64      1.0000 0.13660  0.20610  0.35620  Biso   1.000  C
  C65      1.0000 0.70780  0.27550  0.31910  Biso   1.000  C
  C66      1.0000 0.79220  0.77550  0.68090  Biso   1.000  C
  C67      1.0000 0.29220  0.72450  0.68090  Biso   1.000  C
  C68      1.0000 0.20780  0.22450  0.31910  Biso   1.000  C
  C69      1.0000 0.97140  0.41060  0.28060  Biso   1.000  C
  C70      1.0000 0.52860  0.91060  0.71940  Biso   1.000  C
  C71      1.0000 0.02860  0.58940  0.71940  Biso   1.000  C
  C72      1.0000 0.47140  0.08940  0.28060  Biso   1.000  C
  H49      1.0000 0.91360  0.41660  0.31150  Biso   1.000  H
  H50      1.0000 0.58640  0.91660  0.68850  Biso   1.000  H
  H51      1.0000 0.08640  0.58340  0.68850  Biso   1.000  H
  H52      1.0000 0.41360  0.08340  0.31150  Biso   1.000  H
  H53      1.0000 0.97590  0.42560  0.23760  Biso   1.000  H
  H54      1.0000 0.52410  0.92560  0.76240  Biso   1.000  H
  H55      1.0000 0.02410  0.57440  0.76240  Biso   1.000  H
  H56      1.0000 0.47590  0.07440  0.23760  Biso   1.000  H
  H57      1.0000 0.03700  0.41090  0.31380  Biso   1.000  H
  H58      1.0000 0.46300  0.91090  0.68620  Biso   1.000  H
  H59      1.0000 0.96300  0.58910  0.68620  Biso   1.000  H
  H60      1.0000 0.53700  0.08910  0.31380  Biso   1.000  H
  C73      1.0000 0.57830  0.34950  0.37330  Biso   1.000  C
  C74      1.0000 0.92170  0.84950  0.62670  Biso   1.000  C
  C75      1.0000 0.42170  0.65050  0.62670  Biso   1.000  C
  C76      1.0000 0.07830  0.15050  0.37330  Biso   1.000  C
  H61      1.0000 0.60570  0.37120  0.37000  Biso   1.000  H
  H62      1.0000 0.89430  0.87120  0.63000  Biso   1.000  H
  H63      1.0000 0.39430  0.62880  0.63000  Biso   1.000  H
  H64      1.0000 0.10570  0.12880  0.37000  Biso   1.000  H
  H65      1.0000 0.55810  0.34560  0.42620  Biso   1.000  H
  H66      1.0000 0.94190  0.84560  0.57380  Biso   1.000  H
  H67      1.0000 0.44190  0.65440  0.57380  Biso   1.000  H
  H68      1.0000 0.05810  0.15440  0.42620  Biso   1.000  H
  H69      1.0000 0.51710  0.34700  0.33610  Biso   1.000  H
  H70      1.0000 0.98290  0.84700  0.66390  Biso   1.000  H
  H71      1.0000 0.48290  0.65300  0.66390  Biso   1.000  H
  H72      1.0000 0.01710  0.15300  0.33610  Biso   1.000  H
  C77      1.0000 0.55830  0.46810  0.92290  Biso   1.000  C
  C78      1.0000 0.94170  0.96810  0.07710  Biso   1.000  C
  C79      1.0000 0.44170  0.53190  0.07710  Biso   1.000  C
  C80      1.0000 0.05830  0.03190  0.92290  Biso   1.000  C
  H73      1.0000 0.51210  0.47940  0.88400  Biso   1.000  H
  H74      1.0000 0.98790  0.97940  0.11600  Biso   1.000  H
  H75      1.0000 0.48790  0.52060  0.11600  Biso   1.000  H
  H76      1.0000 0.01210  0.02060  0.88400  Biso   1.000  H
  H77      1.0000 0.55260  0.44510  0.91390  Biso   1.000  H
  H78      1.0000 0.94740  0.94510  0.08610  Biso   1.000  H
  H79      1.0000 0.44740  0.55490  0.08610  Biso   1.000  H
  H80      1.0000 0.05260  0.05490  0.91390  Biso   1.000  H
  H81      1.0000 0.53780  0.47310  0.97510  Biso   1.000  H
  H82      1.0000 0.96220  0.97310  0.02490  Biso   1.000  H
  H83      1.0000 0.46220  0.52690  0.02490  Biso   1.000  H
  H84      1.0000 0.03780  0.02690  0.97510  Biso   1.000  H
  C81      1.0000 0.73980  0.46420  0.96720  Biso   1.000  C
  C82      1.0000 0.76020  0.96420  0.03280  Biso   1.000  C
  C83      1.0000 0.26020  0.53580  0.03280  Biso   1.000  C
  C84      1.0000 0.23980  0.03580  0.96720  Biso   1.000  C
  C85      1.0000 0.72240  0.45040  0.03870  Biso   1.000  C
  C86      1.0000 0.77760  0.95040  0.96130  Biso   1.000  C
  C87      1.0000 0.27760  0.54960  0.96130  Biso   1.000  C
  C88      1.0000 0.22240  0.04960  0.03870  Biso   1.000  C
  H85      1.0000 0.65290  0.44880  0.05340  Biso   1.000  H
  H86      1.0000 0.84710  0.94880  0.94660  Biso   1.000  H
  H87      1.0000 0.34710  0.55120  0.94660  Biso   1.000  H
  H88      1.0000 0.15290  0.05120  0.05340  Biso   1.000  H
  C89      1.0000 0.79900  0.43950  0.08620  Biso   1.000  C
  C90      1.0000 0.70100  0.93950  0.91380  Biso   1.000  C
  C91      1.0000 0.20100  0.56050  0.91380  Biso   1.000  C
  C92      1.0000 0.29900  0.06050  0.08620  Biso   1.000  C
  H89      1.0000 0.78410  0.43100  0.13530  Biso   1.000  H
  H90      1.0000 0.71590  0.93100  0.86470  Biso   1.000  H
  H91      1.0000 0.21590  0.56900  0.86470  Biso   1.000  H
  H92      1.0000 0.28410  0.06900  0.13530  Biso   1.000  H
  C93      1.0000 0.90200  0.44030  0.06520  Biso   1.000  C
  C94      1.0000 0.59800  0.94030  0.93480  Biso   1.000  C
  C95      1.0000 0.09800  0.55970  0.93480  Biso   1.000  C
  C96      1.0000 0.40200  0.05970  0.06520  Biso   1.000  C
  H93      1.0000 0.95670  0.43110  0.09850  Biso   1.000  H
  H94      1.0000 0.54330  0.93110  0.90150  Biso   1.000  H
  H95      1.0000 0.04330  0.56890  0.90150  Biso   1.000  H
  H96      1.0000 0.45670  0.06890  0.09850  Biso   1.000  H
  C97      1.0000 0.92700  0.45540  0.99150  Biso   1.000  C
  C98      1.0000 0.57300  0.95540  0.00850  Biso   1.000  C
  C99      1.0000 0.07300  0.54460  0.00850  Biso   1.000  C
  C100     1.0000 0.42700  0.04460  0.99150  Biso   1.000  C
  C101     1.0000 0.84390  0.46780  0.94270  Biso   1.000  C
  C102     1.0000 0.65610  0.96780  0.05730  Biso   1.000  C
  C103     1.0000 0.15610  0.53220  0.05730  Biso   1.000  C
  C104     1.0000 0.34390  0.03220  0.94270  Biso   1.000  C
  C105     1.0000 0.03350  0.45640  0.97210  Biso   1.000  C
  C106     1.0000 0.46650  0.95640  0.02790  Biso   1.000  C
  C107     1.0000 0.96650  0.54360  0.02790  Biso   1.000  C
  C108     1.0000 0.53350  0.04360  0.97210  Biso   1.000  C
  C109     1.0000 0.19280  0.46330  0.89320  Biso   1.000  C
  C110     1.0000 0.30720  0.96330  0.10680  Biso   1.000  C
  C111     1.0000 0.80720  0.53670  0.10680  Biso   1.000  C
  C112     1.0000 0.69280  0.03670  0.89320  Biso   1.000  C
  H97      1.0000 0.22280  0.44470  0.92240  Biso   1.000  H
  H98      1.0000 0.27720  0.94470  0.07760  Biso   1.000  H
  H99      1.0000 0.77720  0.55530  0.07760  Biso   1.000  H
  H100     1.0000 0.72280  0.05530  0.92240  Biso   1.000  H
  H101     1.0000 0.22550  0.48260  0.91720  Biso   1.000  H
  H102     1.0000 0.27450  0.98260  0.08280  Biso   1.000  H
  H103     1.0000 0.77450  0.51740  0.08280  Biso   1.000  H
  H104     1.0000 0.72550  0.01740  0.91720  Biso   1.000  H
  C113     1.0000 0.21950  0.46130  0.81960  Biso   1.000  C
  C114     1.0000 0.28050  0.96130  0.18040  Biso   1.000  C
  C115     1.0000 0.78050  0.53870  0.18040  Biso   1.000  C
  C116     1.0000 0.71950  0.03870  0.81960  Biso   1.000  C
  H105     1.0000 0.22890  0.43800  0.81450  Biso   1.000  H
  H106     1.0000 0.27110  0.93800  0.18550  Biso   1.000  H
  H107     1.0000 0.77110  0.56200  0.18550  Biso   1.000  H
  H108     1.0000 0.72890  0.06200  0.81450  Biso   1.000  H
  H109     1.0000 0.29160  0.46980  0.82550  Biso   1.000  H
  H110     1.0000 0.20840  0.96980  0.17450  Biso   1.000  H
  H111     1.0000 0.70840  0.53020  0.17450  Biso   1.000  H
  H112     1.0000 0.79160  0.03020  0.82550  Biso   1.000  H
  C117     1.0000 0.19250  0.46900  0.74840  Biso   1.000  C
  C118     1.0000 0.30750  0.96900  0.25160  Biso   1.000  C
  C119     1.0000 0.80750  0.53100  0.25160  Biso   1.000  C
  C120     1.0000 0.69250  0.03100  0.74840  Biso   1.000  C
  H113     1.0000 0.24670  0.48330  0.73000  Biso   1.000  H
  H114     1.0000 0.25330  0.98330  0.27000  Biso   1.000  H
  H115     1.0000 0.75330  0.51670  0.27000  Biso   1.000  H
  H116     1.0000 0.74670  0.01670  0.73000  Biso   1.000  H
  H117     1.0000 0.19220  0.44940  0.71630  Biso   1.000  H
  H118     1.0000 0.30780  0.94940  0.28370  Biso   1.000  H
  H119     1.0000 0.80780  0.55060  0.28370  Biso   1.000  H
  H120     1.0000 0.69220  0.05060  0.71630  Biso   1.000  H
  C121     1.0000 0.07510  0.50120  0.66470  Biso   1.000  C
  C122     1.0000 0.42490  0.00120  0.33530  Biso   1.000  C
  C123     1.0000 0.92490  0.49880  0.33530  Biso   1.000  C
  C124     1.0000 0.57510  0.99880  0.66470  Biso   1.000  C
  C125     1.0000 0.98000  0.51850  0.63460  Biso   1.000  C
  C126     1.0000 0.52000  0.01850  0.36540  Biso   1.000  C
  C127     1.0000 0.02000  0.48150  0.36540  Biso   1.000  C
  C128     1.0000 0.48000  0.98150  0.63460  Biso   1.000  C
  C129     1.0000 0.98500  0.53320  0.55960  Biso   1.000  C
  C130     1.0000 0.51500  0.03320  0.44040  Biso   1.000  C
  C131     1.0000 0.01500  0.46680  0.44040  Biso   1.000  C
  C132     1.0000 0.48500  0.96680  0.55960  Biso   1.000  C
  H121     1.0000 0.04560  0.53110  0.53170  Biso   1.000  H
  H122     1.0000 0.45440  0.03110  0.46830  Biso   1.000  H
  H123     1.0000 0.95440  0.46890  0.46830  Biso   1.000  H
  H124     1.0000 0.54560  0.96890  0.53170  Biso   1.000  H
  C133     1.0000 0.89930  0.55060  0.52880  Biso   1.000  C
  C134     1.0000 0.60070  0.05060  0.47120  Biso   1.000  C
  C135     1.0000 0.10070  0.44940  0.47120  Biso   1.000  C
  C136     1.0000 0.39930  0.94940  0.52880  Biso   1.000  C
  H125     1.0000 0.90310  0.56060  0.47970  Biso   1.000  H
  H126     1.0000 0.59690  0.06060  0.52030  Biso   1.000  H
  H127     1.0000 0.09690  0.43940  0.52030  Biso   1.000  H
  H128     1.0000 0.40310  0.93940  0.47970  Biso   1.000  H
  C137     1.0000 0.80840  0.55390  0.56690  Biso   1.000  C
  C138     1.0000 0.69160  0.05390  0.43310  Biso   1.000  C
  C139     1.0000 0.19160  0.44610  0.43310  Biso   1.000  C
  C140     1.0000 0.30840  0.94610  0.56690  Biso   1.000  C
  H129     1.0000 0.75090  0.56590  0.54440  Biso   1.000  H
  H130     1.0000 0.74910  0.06590  0.45560  Biso   1.000  H
  H131     1.0000 0.24910  0.43410  0.45560  Biso   1.000  H
  H132     1.0000 0.25090  0.93410  0.54440  Biso   1.000  H
  C141     1.0000 0.80400  0.53950  0.63830  Biso   1.000  C
  C142     1.0000 0.69600  0.03950  0.36170  Biso   1.000  C
  C143     1.0000 0.19600  0.46050  0.36170  Biso   1.000  C
  C144     1.0000 0.30400  0.96050  0.63830  Biso   1.000  C
  C145     1.0000 0.88900  0.52207  0.67600  Biso   1.000  C
  C146     1.0000 0.61100  0.02207  0.32400  Biso   1.000  C
  C147     1.0000 0.11100  0.47793  0.32400  Biso   1.000  C
  C148     1.0000 0.38900  0.97793  0.67600  Biso   1.000  C
  C149     1.0000 0.12260  0.35740  0.89010  Biso   1.000  C
  C150     1.0000 0.37740  0.85740  0.10990  Biso   1.000  C
  C151     1.0000 0.87740  0.64260  0.10990  Biso   1.000  C
  C152     1.0000 0.62260  0.14260  0.89010  Biso   1.000  C
  H133     1.0000 0.16140  0.37740  0.88850  Biso   1.000  H
  H134     1.0000 0.33860  0.87740  0.11150  Biso   1.000  H
  H135     1.0000 0.83860  0.62260  0.11150  Biso   1.000  H
  H136     1.0000 0.66140  0.12260  0.88850  Biso   1.000  H
  H137     1.0000 0.09690  0.35470  0.94190  Biso   1.000  H
  H138     1.0000 0.40310  0.85470  0.05810  Biso   1.000  H
  H139     1.0000 0.90310  0.64530  0.05810  Biso   1.000  H
  H140     1.0000 0.59690  0.14530  0.94190  Biso   1.000  H
  H141     1.0000 0.06330  0.35790  0.85080  Biso   1.000  H
  H142     1.0000 0.43670  0.85790  0.14920  Biso   1.000  H
  H143     1.0000 0.93670  0.64210  0.14920  Biso   1.000  H
  H144     1.0000 0.56330  0.14210  0.85080  Biso   1.000  H
  C153     1.0000 0.15060  0.30030  0.87360  Biso   1.000  C
  C154     1.0000 0.34940  0.80030  0.12640  Biso   1.000  C
  C155     1.0000 0.84940  0.69970  0.12640  Biso   1.000  C
  C156     1.0000 0.65060  0.19970  0.87360  Biso   1.000  C
  C157     1.0000 0.05930  0.29130  0.90660  Biso   1.000  C
  C158     1.0000 0.44070  0.79130  0.09340  Biso   1.000  C
  C159     1.0000 0.94070  0.70870  0.09340  Biso   1.000  C
  C160     1.0000 0.55930  0.20870  0.90660  Biso   1.000  C
  H145     1.0000 0.01890  0.30680  0.93110  Biso   1.000  H
  H146     1.0000 0.48110  0.80680  0.06890  Biso   1.000  H
  H147     1.0000 0.98110  0.69320  0.06890  Biso   1.000  H
  H148     1.0000 0.51890  0.19320  0.93110  Biso   1.000  H
  C161     1.0000 0.02630  0.25850  0.90350  Biso   1.000  C
  C162     1.0000 0.47370  0.75850  0.09650  Biso   1.000  C
  C163     1.0000 0.97370  0.74150  0.09650  Biso   1.000  C
  C164     1.0000 0.52630  0.24150  0.90350  Biso   1.000  C
  H149     1.0000 0.96330  0.25260  0.92510  Biso   1.000  H
  H150     1.0000 0.53670  0.75260  0.07490  Biso   1.000  H
  H151     1.0000 0.03670  0.74740  0.07490  Biso   1.000  H
  H152     1.0000 0.46330  0.24740  0.92510  Biso   1.000  H
  C165     1.0000 0.08440  0.23590  0.87010  Biso   1.000  C
  C166     1.0000 0.41560  0.73590  0.12990  Biso   1.000  C
  C167     1.0000 0.91560  0.76410  0.12990  Biso   1.000  C
  C168     1.0000 0.58440  0.26410  0.87010  Biso   1.000  C
  H153     1.0000 0.06310  0.21430  0.87050  Biso   1.000  H
  H154     1.0000 0.43690  0.71430  0.12950  Biso   1.000  H
  H155     1.0000 0.93690  0.78570  0.12950  Biso   1.000  H
  H156     1.0000 0.56310  0.28570  0.87050  Biso   1.000  H
  C169     1.0000 0.17780  0.24460  0.83410  Biso   1.000  C
  C170     1.0000 0.32220  0.74460  0.16590  Biso   1.000  C
  C171     1.0000 0.82220  0.75540  0.16590  Biso   1.000  C
  C172     1.0000 0.67780  0.25540  0.83410  Biso   1.000  C
  C173     1.0000 0.21220  0.27680  0.83440  Biso   1.000  C
  C174     1.0000 0.28780  0.77680  0.16560  Biso   1.000  C
  C175     1.0000 0.78780  0.72320  0.16560  Biso   1.000  C
  C176     1.0000 0.71220  0.22320  0.83440  Biso   1.000  C
  C177     1.0000 0.23600  0.21870  0.79880  Biso   1.000  C
  C178     1.0000 0.26400  0.71870  0.20120  Biso   1.000  C
  C179     1.0000 0.76400  0.78130  0.20120  Biso   1.000  C
  C180     1.0000 0.73600  0.28130  0.79880  Biso   1.000  C
  C181     1.0000 0.62040  0.55630  0.64550  Biso   1.000  C
  C182     1.0000 0.87960  0.05630  0.35450  Biso   1.000  C
  C183     1.0000 0.37960  0.44370  0.35450  Biso   1.000  C
  C184     1.0000 0.12040  0.94370  0.64550  Biso   1.000  C
  H157     1.0000 0.56540  0.55690  0.68190  Biso   1.000  H
  H158     1.0000 0.93460  0.05690  0.31810  Biso   1.000  H
  H159     1.0000 0.43460  0.44310  0.31810  Biso   1.000  H
  H160     1.0000 0.06540  0.94310  0.68190  Biso   1.000  H
  H161     1.0000 0.63580  0.57800  0.62900  Biso   1.000  H
  H162     1.0000 0.86420  0.07800  0.37100  Biso   1.000  H
  H163     1.0000 0.36420  0.42200  0.37100  Biso   1.000  H
  H164     1.0000 0.13580  0.92200  0.62900  Biso   1.000  H
  H165     1.0000 0.59690  0.54360  0.59980  Biso   1.000  H
  H166     1.0000 0.90310  0.04360  0.40020  Biso   1.000  H
  H167     1.0000 0.40310  0.45640  0.40020  Biso   1.000  H
  H168     1.0000 0.09690  0.95640  0.59980  Biso   1.000  H
  C185     1.0000 0.36120  0.19040  0.73190  Biso   1.000  C
  C186     1.0000 0.13880  0.69040  0.26810  Biso   1.000  C
  C187     1.0000 0.63880  0.80960  0.26810  Biso   1.000  C
  C188     1.0000 0.86120  0.30960  0.73190  Biso   1.000  C
  H169     1.0000 0.30300  0.17490  0.72690  Biso   1.000  H
  H170     1.0000 0.19700  0.67490  0.27310  Biso   1.000  H
  H171     1.0000 0.69700  0.82510  0.27310  Biso   1.000  H
  H172     1.0000 0.80300  0.32510  0.72690  Biso   1.000  H
  H173     1.0000 0.41410  0.18230  0.77190  Biso   1.000  H
  H174     1.0000 0.08590  0.68230  0.22810  Biso   1.000  H
  H175     1.0000 0.58590  0.81770  0.22810  Biso   1.000  H
  H176     1.0000 0.91410  0.31770  0.77190  Biso   1.000  H
  C189     1.0000 0.41060  0.19280  0.65360  Biso   1.000  C
  C190     1.0000 0.08940  0.69280  0.34640  Biso   1.000  C
  C191     1.0000 0.58940  0.80720  0.34640  Biso   1.000  C
  C192     1.0000 0.91060  0.30720  0.65360  Biso   1.000  C
  H177     1.0000 0.42200  0.17100  0.63400  Biso   1.000  H
  H178     1.0000 0.07800  0.67100  0.36600  Biso   1.000  H
  H179     1.0000 0.57800  0.82900  0.36600  Biso   1.000  H
  H180     1.0000 0.92200  0.32900  0.63400  Biso   1.000  H
  H181     1.0000 0.36060  0.20350  0.61550  Biso   1.000  H
  H182     1.0000 0.13940  0.70350  0.38450  Biso   1.000  H
  H183     1.0000 0.63940  0.79650  0.38450  Biso   1.000  H
  H184     1.0000 0.86060  0.29650  0.61550  Biso   1.000  H
  C193     1.0000 0.51420  0.21080  0.65740  Biso   1.000  C
  C194     1.0000 0.98580  0.71080  0.34260  Biso   1.000  C
  C195     1.0000 0.48580  0.78920  0.34260  Biso   1.000  C
  C196     1.0000 0.01420  0.28920  0.65740  Biso   1.000  C
  H185     1.0000 0.56080  0.20230  0.70100  Biso   1.000  H
  H186     1.0000 0.93920  0.70230  0.29900  Biso   1.000  H
  H187     1.0000 0.43920  0.79770  0.29900  Biso   1.000  H
  H188     1.0000 0.06080  0.29770  0.70100  Biso   1.000  H
  H189     1.0000 0.54840  0.20710  0.60860  Biso   1.000  H
  H190     1.0000 0.95160  0.70710  0.39140  Biso   1.000  H
  H191     1.0000 0.45160  0.79290  0.39140  Biso   1.000  H
  H192     1.0000 0.04840  0.29290  0.60860  Biso   1.000  H
  C197     1.0000 0.56200  0.26400  0.62870  Biso   1.000  C
  C198     1.0000 0.93800  0.76400  0.37130  Biso   1.000  C
  C199     1.0000 0.43800  0.73600  0.37130  Biso   1.000  C
  C200     1.0000 0.06200  0.23600  0.62870  Biso   1.000  C
  C201     1.0000 0.57070  0.29880  0.63150  Biso   1.000  C
  C202     1.0000 0.92930  0.79880  0.36850  Biso   1.000  C
  C203     1.0000 0.42930  0.70120  0.36850  Biso   1.000  C
  C204     1.0000 0.07070  0.20120  0.63150  Biso   1.000  C
  C205     1.0000 0.51510  0.31840  0.68140  Biso   1.000  C
  C206     1.0000 0.98490  0.81840  0.31860  Biso   1.000  C
  C207     1.0000 0.48490  0.68160  0.31860  Biso   1.000  C
  C208     1.0000 0.01510  0.18160  0.68140  Biso   1.000  C
  C209     1.0000 0.53380  0.35210  0.68080  Biso   1.000  C
  C210     1.0000 0.96620  0.85210  0.31920  Biso   1.000  C
  C211     1.0000 0.46620  0.64790  0.31920  Biso   1.000  C
  C212     1.0000 0.03380  0.14790  0.68080  Biso   1.000  C
  C213     1.0000 0.60280  0.36580  0.63170  Biso   1.000  C
  C214     1.0000 0.89720  0.86580  0.36830  Biso   1.000  C
  C215     1.0000 0.39720  0.63420  0.36830  Biso   1.000  C
  C216     1.0000 0.10280  0.13420  0.63170  Biso   1.000  C
  H193     1.0000 0.61320  0.38810  0.63140  Biso   1.000  H
  H194     1.0000 0.88680  0.88810  0.36860  Biso   1.000  H
  H195     1.0000 0.38680  0.61190  0.36860  Biso   1.000  H
  H196     1.0000 0.11320  0.11190  0.63140  Biso   1.000  H
  C217     1.0000 0.65670  0.34580  0.58270  Biso   1.000  C
  C218     1.0000 0.84330  0.84580  0.41730  Biso   1.000  C
  C219     1.0000 0.34330  0.65420  0.41730  Biso   1.000  C
  C220     1.0000 0.15670  0.15420  0.58270  Biso   1.000  C
  H197     1.0000 0.70480  0.35500  0.55000  Biso   1.000  H
  H198     1.0000 0.79520  0.85500  0.45000  Biso   1.000  H
  H199     1.0000 0.29520  0.64500  0.45000  Biso   1.000  H
  H200     1.0000 0.20480  0.14500  0.55000  Biso   1.000  H
  C221     1.0000 0.64100  0.31300  0.58100  Biso   1.000  C
  C222     1.0000 0.85900  0.81300  0.41900  Biso   1.000  C
  C223     1.0000 0.35900  0.68700  0.41900  Biso   1.000  C
  C224     1.0000 0.14100  0.18700  0.58100  Biso   1.000  C
  H201     1.0000 0.67690  0.30020  0.54650  Biso   1.000  H
  H202     1.0000 0.82310  0.80020  0.45350  Biso   1.000  H
  H203     1.0000 0.32310  0.69980  0.45350  Biso   1.000  H
  H204     1.0000 0.17690  0.19980  0.54650  Biso   1.000  H
  C225     1.0000 0.46960  0.40370  0.72350  Biso   1.000  C
  C226     1.0000 0.03040  0.90370  0.27650  Biso   1.000  C
  C227     1.0000 0.53040  0.59630  0.27650  Biso   1.000  C
  C228     1.0000 0.96960  0.09630  0.72350  Biso   1.000  C
  H205     1.0000 0.42830  0.41280  0.76360  Biso   1.000  H
  H206     1.0000 0.07170  0.91280  0.23640  Biso   1.000  H
  H207     1.0000 0.57170  0.58720  0.23640  Biso   1.000  H
  H208     1.0000 0.92830  0.08720  0.76360  Biso   1.000  H
  H209     1.0000 0.43590  0.40860  0.67190  Biso   1.000  H
  H210     1.0000 0.06410  0.90860  0.32810  Biso   1.000  H
  H211     1.0000 0.56410  0.59140  0.32810  Biso   1.000  H
  H212     1.0000 0.93590  0.09140  0.67190  Biso   1.000  H
  H213     1.0000 0.54000  0.41280  0.72830  Biso   1.000  H
  H214     1.0000 0.96000  0.91280  0.27170  Biso   1.000  H
  H215     1.0000 0.46000  0.58720  0.27170  Biso   1.000  H
  H216     1.0000 0.04000  0.08720  0.72830  Biso   1.000  H
  C229     1.0000 0.05730  0.36074  0.54040  Biso   1.000  C
  C230     1.0000 0.44270  0.86074  0.45960  Biso   1.000  C
  C231     1.0000 0.94270  0.63926  0.45960  Biso   1.000  C
  C232     1.0000 0.55730  0.13926  0.54040  Biso   1.000  C
  H217     1.0000 0.09460  0.34660  0.50970  Biso   1.000  H
  H218     1.0000 0.40540  0.84660  0.49030  Biso   1.000  H
  H219     1.0000 0.90540  0.65340  0.49030  Biso   1.000  H
  H220     1.0000 0.59460  0.15340  0.50970  Biso   1.000  H
  C233     1.0000 0.95830  0.37238  0.51160  Biso   1.000  C
  C234     1.0000 0.54170  0.87238  0.48840  Biso   1.000  C
  C235     1.0000 0.04170  0.62762  0.48840  Biso   1.000  C
  C236     1.0000 0.45830  0.12762  0.51160  Biso   1.000  C
  C237     1.0000 0.90390  0.39414  0.55620  Biso   1.000  C
  C238     1.0000 0.59610  0.89414  0.44380  Biso   1.000  C
  C239     1.0000 0.09610  0.60586  0.44380  Biso   1.000  C
  C240     1.0000 0.40390  0.10586  0.55620  Biso   1.000  C
  H221     1.0000 0.83870  0.40250  0.53590  Biso   1.000  H
  H222     1.0000 0.66130  0.90250  0.46410  Biso   1.000  H
  H223     1.0000 0.16130  0.59750  0.46410  Biso   1.000  H
  H224     1.0000 0.33870  0.09750  0.53590  Biso   1.000  H
  C241     1.0000 0.94680  0.40373  0.63250  Biso   1.000  C
  C242     1.0000 0.55320  0.90373  0.36750  Biso   1.000  C
  C243     1.0000 0.05320  0.59627  0.36750  Biso   1.000  C
  C244     1.0000 0.44680  0.09627  0.63250  Biso   1.000  C
  C245     1.0000 0.04530  0.39121  0.65980  Biso   1.000  C
  C246     1.0000 0.45470  0.89121  0.34020  Biso   1.000  C
  C247     1.0000 0.95470  0.60879  0.34020  Biso   1.000  C
  C248     1.0000 0.54530  0.10879  0.65980  Biso   1.000  C
  H225     1.0000 0.07440  0.39720  0.71000  Biso   1.000  H
  H226     1.0000 0.42560  0.89720  0.29000  Biso   1.000  H
  H227     1.0000 0.92560  0.60280  0.29000  Biso   1.000  H
  H228     1.0000 0.57440  0.10280  0.71000  Biso   1.000  H
  C249     1.0000 0.10120  0.37033  0.61550  Biso   1.000  C
  C250     1.0000 0.39880  0.87033  0.38450  Biso   1.000  C
  C251     1.0000 0.89880  0.62967  0.38450  Biso   1.000  C
  C252     1.0000 0.60120  0.12967  0.61550  Biso   1.000  C
  C253     1.0000 0.90800  0.36040  0.43260  Biso   1.000  C
  C254     1.0000 0.59200  0.86040  0.56740  Biso   1.000  C
  C255     1.0000 0.09200  0.63960  0.56740  Biso   1.000  C
  C256     1.0000 0.40800  0.13960  0.43260  Biso   1.000  C
  C257     1.0000 0.88530  0.42590  0.68310  Biso   1.000  C
  C258     1.0000 0.61470  0.92590  0.31690  Biso   1.000  C
  C259     1.0000 0.11470  0.57410  0.31690  Biso   1.000  C
  C260     1.0000 0.38530  0.07410  0.68310  Biso   1.000  C
  C261     1.0000 0.20700  0.35621  0.64840  Biso   1.000  C
  C262     1.0000 0.29300  0.85621  0.35160  Biso   1.000  C
  C263     1.0000 0.79300  0.64379  0.35160  Biso   1.000  C
  C264     1.0000 0.70700  0.14379  0.64840  Biso   1.000  C
  C265     1.0000 0.44060  0.41882  0.10750  Biso   1.000  C
  C266     1.0000 0.05940  0.91882  0.89250  Biso   1.000  C
  C267     1.0000 0.55940  0.58118  0.89250  Biso   1.000  C
  C268     1.0000 0.94060  0.08118  0.10750  Biso   1.000  C
  C269     1.0000 0.52640  0.40652  0.15300  Biso   1.000  C
  C270     1.0000 0.97360  0.90652  0.84700  Biso   1.000  C
  C271     1.0000 0.47360  0.59348  0.84700  Biso   1.000  C
  C272     1.0000 0.02640  0.09348  0.15300  Biso   1.000  C
  H229     1.0000 0.54810  0.41620  0.20140  Biso   1.000  H
  H230     1.0000 0.95190  0.91620  0.79860  Biso   1.000  H
  H231     1.0000 0.45190  0.58380  0.79860  Biso   1.000  H
  H232     1.0000 0.04810  0.08380  0.20140  Biso   1.000  H
  C273     1.0000 0.58080  0.37980  0.12750  Biso   1.000  C
  C274     1.0000 0.91920  0.87980  0.87250  Biso   1.000  C
  C275     1.0000 0.41920  0.62020  0.87250  Biso   1.000  C
  C276     1.0000 0.08080  0.12020  0.12750  Biso   1.000  C
  C277     1.0000 0.54950  0.36603  0.05360  Biso   1.000  C
  C278     1.0000 0.95050  0.86603  0.94640  Biso   1.000  C
  C279     1.0000 0.45050  0.63397  0.94640  Biso   1.000  C
  C280     1.0000 0.04950  0.13397  0.05360  Biso   1.000  C
  H233     1.0000 0.58650  0.34830  0.03560  Biso   1.000  H
  H234     1.0000 0.91350  0.84830  0.96440  Biso   1.000  H
  H235     1.0000 0.41350  0.65170  0.96440  Biso   1.000  H
  H236     1.0000 0.08650  0.15170  0.03560  Biso   1.000  H
  C281     1.0000 0.46360  0.37865  0.00700  Biso   1.000  C
  C282     1.0000 0.03640  0.87865  0.99300  Biso   1.000  C
  C283     1.0000 0.53640  0.62135  0.99300  Biso   1.000  C
  C284     1.0000 0.96360  0.12135  0.00700  Biso   1.000  C
  C285     1.0000 0.40860  0.40519  0.03520  Biso   1.000  C
  C286     1.0000 0.09140  0.90519  0.96480  Biso   1.000  C
  C287     1.0000 0.59140  0.59481  0.96480  Biso   1.000  C
  C288     1.0000 0.90860  0.09481  0.03520  Biso   1.000  C
  H237     1.0000 0.35010  0.41370  0.00500  Biso   1.000  H
  H238     1.0000 0.14990  0.91370  0.99500  Biso   1.000  H
  H239     1.0000 0.64990  0.58630  0.99500  Biso   1.000  H
  H240     1.0000 0.85010  0.08630  0.00500  Biso   1.000  H
  C289     1.0000 0.37640  0.44670  0.13820  Biso   1.000  C
  C290     1.0000 0.12360  0.94670  0.86180  Biso   1.000  C
  C291     1.0000 0.62360  0.55330  0.86180  Biso   1.000  C
  C292     1.0000 0.87640  0.05330  0.13820  Biso   1.000  C
  C293     1.0000 0.42760  0.36380  0.92790  Biso   1.000  C
  C294     1.0000 0.07240  0.86380  0.07210  Biso   1.000  C
  C295     1.0000 0.57240  0.63620  0.07210  Biso   1.000  C
  C296     1.0000 0.92760  0.13620  0.92790  Biso   1.000  C
  C297     1.0000 0.67040  0.36470  0.18040  Biso   1.000  C
  C298     1.0000 0.82960  0.86470  0.81960  Biso   1.000  C
  C299     1.0000 0.32960  0.63530  0.81960  Biso   1.000  C
  C300     1.0000 0.17040  0.13530  0.18040  Biso   1.000  C
  Cu1      1.0000 0.88947  0.27168  0.21746  Biso   1.000  Cu
  Cu2      1.0000 0.61053  0.77168  0.78254  Biso   1.000  Cu
  Cu3      1.0000 0.11053  0.72832  0.78254  Biso   1.000  Cu
  Cu4      1.0000 0.38947  0.22832  0.21746  Biso   1.000  Cu
  Cu5      1.0000 0.97680  0.48103  0.81024  Biso   1.000  Cu
  Cu6      1.0000 0.52320  0.98103  0.18976  Biso   1.000  Cu
  Cu7      1.0000 0.02320  0.51897  0.18976  Biso   1.000  Cu
  Cu8      1.0000 0.47680  0.01897  0.81024  Biso   1.000  Cu
  Cu9      1.0000 0.39011  0.26323  0.73416  Biso   1.000  Cu
  Cu10     1.0000 0.10989  0.76323  0.26584  Biso   1.000  Cu
  Cu11     1.0000 0.60989  0.73677  0.26584  Biso   1.000  Cu
  Cu12     1.0000 0.89011  0.23677  0.73416  Biso   1.000  Cu
  Mn1      1.0000 0.81857  0.34220  0.29357  Biso   1.000  Mn
  Mn2      1.0000 0.68143  0.84220  0.70643  Biso   1.000  Mn
  Mn3      1.0000 0.18143  0.65780  0.70643  Biso   1.000  Mn
  Mn4      1.0000 0.31857  0.15780  0.29357  Biso   1.000  Mn
  Mn5      1.0000 0.73184  0.50701  0.80460  Biso   1.000  Mn
  Mn6      1.0000 0.76816  0.00701  0.19540  Biso   1.000  Mn
  Mn7      1.0000 0.26816  0.49299  0.19540  Biso   1.000  Mn
  Mn8      1.0000 0.23184  0.99299  0.80460  Biso   1.000  Mn
  Mn9      1.0000 0.34739  0.33802  0.79702  Biso   1.000  Mn
  Mn10     1.0000 0.15261  0.83802  0.20298  Biso   1.000  Mn
  Mn11     1.0000 0.65261  0.66198  0.20298  Biso   1.000  Mn
  Mn12     1.0000 0.84739  0.16198  0.79702  Biso   1.000  Mn
  N1       1.0000 0.83990  0.22727  0.23650  Biso   1.000  N
  N2       1.0000 0.66010  0.72727  0.76350  Biso   1.000  N
  N3       1.0000 0.16010  0.77273  0.76350  Biso   1.000  N
  N4       1.0000 0.33990  0.27273  0.23650  Biso   1.000  N
  N5       1.0000 0.00150  0.26056  0.14540  Biso   1.000  N
  N6       1.0000 0.49850  0.76056  0.85460  Biso   1.000  N
  N7       1.0000 0.99850  0.73944  0.85460  Biso   1.000  N
  N8       1.0000 0.50150  0.23944  0.14540  Biso   1.000  N
  N9       1.0000 0.06940  0.46450  0.90410  Biso   1.000  N
  N10      1.0000 0.43060  0.96450  0.09590  Biso   1.000  N
  N11      1.0000 0.93060  0.53550  0.09590  Biso   1.000  N
  N12      1.0000 0.56940  0.03550  0.90410  Biso   1.000  N
  N13      1.0000 0.08570  0.48540  0.73300  Biso   1.000  N
  N14      1.0000 0.41430  0.98540  0.26700  Biso   1.000  N
  N15      1.0000 0.91430  0.51460  0.26700  Biso   1.000  N
  N16      1.0000 0.58570  0.01460  0.73300  Biso   1.000  N
  N17      1.0000 0.32050  0.22175  0.75880  Biso   1.000  N
  N18      1.0000 0.17950  0.72175  0.24120  Biso   1.000  N
  N19      1.0000 0.67950  0.77825  0.24120  Biso   1.000  N
  N20      1.0000 0.82050  0.27825  0.75880  Biso   1.000  N
  N21      1.0000 0.50070  0.24610  0.66870  Biso   1.000  N
  N22      1.0000 0.99930  0.74610  0.33130  Biso   1.000  N
  N23      1.0000 0.49930  0.75390  0.33130  Biso   1.000  N
  N24      1.0000 0.00070  0.25390  0.66870  Biso   1.000  N
  O1       1.0000 0.78950  0.28950  0.28930  Biso   1.000  O
  O2       1.0000 0.71050  0.78950  0.71070  Biso   1.000  O
  O3       1.0000 0.21050  0.71050  0.71070  Biso   1.000  O
  O4       1.0000 0.28950  0.21050  0.28930  Biso   1.000  O
  O5       1.0000 0.93140  0.31732  0.21980  Biso   1.000  O
  O6       1.0000 0.56860  0.81732  0.78020  Biso   1.000  O
  O7       1.0000 0.06860  0.68268  0.78020  Biso   1.000  O
  O8       1.0000 0.43140  0.18268  0.21980  Biso   1.000  O
  O9       1.0000 0.65770  0.32702  0.35520  Biso   1.000  O
  O10      1.0000 0.84230  0.82702  0.64480  Biso   1.000  O
  O11      1.0000 0.34230  0.67298  0.64480  Biso   1.000  O
  O12      1.0000 0.15770  0.17298  0.35520  Biso   1.000  O
  O13      1.0000 0.95320  0.37819  0.24920  Biso   1.000  O
  O14      1.0000 0.54680  0.87819  0.75080  Biso   1.000  O
  O15      1.0000 0.04680  0.62181  0.75080  Biso   1.000  O
  O16      1.0000 0.45320  0.12181  0.24920  Biso   1.000  O
  O17      1.0000 0.88010  0.50977  0.74750  Biso   1.000  O
  O18      1.0000 0.61990  0.00977  0.25250  Biso   1.000  O
  O19      1.0000 0.11990  0.49023  0.25250  Biso   1.000  O
  O20      1.0000 0.38010  0.99023  0.74750  Biso   1.000  O
  O21      1.0000 0.85640  0.48294  0.87500  Biso   1.000  O
  O22      1.0000 0.64360  0.98294  0.12500  Biso   1.000  O
  O23      1.0000 0.14360  0.51706  0.12500  Biso   1.000  O
  O24      1.0000 0.35640  0.01706  0.87500  Biso   1.000  O
  O25      1.0000 0.71710  0.54174  0.68490  Biso   1.000  O
  O26      1.0000 0.78290  0.04174  0.31510  Biso   1.000  O
  O27      1.0000 0.28290  0.45826  0.31510  Biso   1.000  O
  O28      1.0000 0.21710  0.95826  0.68490  Biso   1.000  O
  O29      1.0000 0.66160  0.47777  0.91650  Biso   1.000  O
  O30      1.0000 0.83840  0.97777  0.08350  Biso   1.000  O
  O31      1.0000 0.33840  0.52223  0.08350  Biso   1.000  O
  O32      1.0000 0.16160  0.02223  0.91650  Biso   1.000  O
  O33      1.0000 0.44840  0.30673  0.73070  Biso   1.000  O
  O34      1.0000 0.05160  0.80673  0.26930  Biso   1.000  O
  O35      1.0000 0.55160  0.69327  0.26930  Biso   1.000  O
  O36      1.0000 0.94840  0.19327  0.73070  Biso   1.000  O
  O37      1.0000 0.29730  0.28711  0.80030  Biso   1.000  O
  O38      1.0000 0.20270  0.78711  0.19970  Biso   1.000  O
  O39      1.0000 0.70270  0.71289  0.19970  Biso   1.000  O
  O40      1.0000 0.79730  0.21289  0.80030  Biso   1.000  O
  O41      1.0000 0.47630  0.36913  0.73350  Biso   1.000  O
  O42      1.0000 0.02370  0.86913  0.26650  Biso   1.000  O
  O43      1.0000 0.52370  0.63087  0.26650  Biso   1.000  O
  O44      1.0000 0.97630  0.13087  0.73350  Biso   1.000  O
  O45      1.0000 0.19180  0.33072  0.87410  Biso   1.000  O
  O46      1.0000 0.30820  0.83072  0.12590  Biso   1.000  O
  O47      1.0000 0.80820  0.66928  0.12590  Biso   1.000  O
  O48      1.0000 0.69180  0.16928  0.87410  Biso   1.000  O
  O49      1.0000 0.42440  0.46712  0.18390  Biso   1.000  O
  O50      1.0000 0.07560  0.96712  0.81610  Biso   1.000  O
  O51      1.0000 0.57560  0.53288  0.81610  Biso   1.000  O
  O52      1.0000 0.92440  0.03288  0.18390  Biso   1.000  O
  O53      1.0000 0.27900  0.44938  0.11690  Biso   1.000  O
  O54      1.0000 0.22100  0.94938  0.88310  Biso   1.000  O
  O55      1.0000 0.72100  0.55062  0.88310  Biso   1.000  O
  O56      1.0000 0.77900  0.05062  0.11690  Biso   1.000  O
  O57      1.0000 0.70970  0.37991  0.23890  Biso   1.000  O
  O58      1.0000 0.79030  0.87991  0.76110  Biso   1.000  O
  O59      1.0000 0.29030  0.62009  0.76110  Biso   1.000  O
  O60      1.0000 0.20970  0.12009  0.23890  Biso   1.000  O
  O61      1.0000 0.69980  0.33720  0.16520  Biso   1.000  O
  O62      1.0000 0.80020  0.83720  0.83480  Biso   1.000  O
  O63      1.0000 0.30020  0.66280  0.83480  Biso   1.000  O
  O64      1.0000 0.19980  0.16280  0.16520  Biso   1.000  O
  O65      1.0000 0.45870  0.33635  0.91050  Biso   1.000  O
  O66      1.0000 0.04130  0.83635  0.08950  Biso   1.000  O
  O67      1.0000 0.54130  0.66365  0.08950  Biso   1.000  O
  O68      1.0000 0.95870  0.16365  0.91050  Biso   1.000  O
  O69      1.0000 0.36220  0.37942  0.88280  Biso   1.000  O
  O70      1.0000 0.13780  0.87942  0.11720  Biso   1.000  O
  O71      1.0000 0.63780  0.62058  0.11720  Biso   1.000  O
  O72      1.0000 0.86220  0.12058  0.88280  Biso   1.000  O
  O73      1.0000 0.94750  0.33656  0.39990  Biso   1.000  O
  O74      1.0000 0.55250  0.83656  0.60010  Biso   1.000  O
  O75      1.0000 0.05250  0.66344  0.60010  Biso   1.000  O
  O76      1.0000 0.44750  0.16344  0.39990  Biso   1.000  O
  O77      1.0000 0.82670  0.37467  0.40200  Biso   1.000  O
  O78      1.0000 0.67330  0.87467  0.59800  Biso   1.000  O
  O79      1.0000 0.17330  0.62533  0.59800  Biso   1.000  O
  O80      1.0000 0.32670  0.12533  0.40200  Biso   1.000  O
  O81      1.0000 0.79730  0.43605  0.65280  Biso   1.000  O
  O82      1.0000 0.70270  0.93605  0.34720  Biso   1.000  O
  O83      1.0000 0.20270  0.56395  0.34720  Biso   1.000  O
  O84      1.0000 0.29730  0.06395  0.65280  Biso   1.000  O
  O85      1.0000 0.92500  0.43196  0.75180  Biso   1.000  O
  O86      1.0000 0.57500  0.93196  0.24820  Biso   1.000  O
  O87      1.0000 0.07500  0.56804  0.24820  Biso   1.000  O
  O88      1.0000 0.42500  0.06804  0.75180  Biso   1.000  O
  O89      1.0000 0.22970  0.36041  0.72190  Biso   1.000  O
  O90      1.0000 0.27030  0.86041  0.27810  Biso   1.000  O
  O91      1.0000 0.77030  0.63959  0.27810  Biso   1.000  O
  O92      1.0000 0.72970  0.13959  0.72190  Biso   1.000  O
  O93      1.0000 0.26220  0.34121  0.60330  Biso   1.000  O
  O94      1.0000 0.23780  0.84121  0.39670  Biso   1.000  O
  O95      1.0000 0.73780  0.65879  0.39670  Biso   1.000  O
  O96      1.0000 0.76220  0.15879  0.60330  Biso   1.000  O
  O97      1.0000 0.76770  0.28255  0.10320  Biso   1.000  O
  O98      1.0000 0.73230  0.78255  0.89680  Biso   1.000  O
  O99      1.0000 0.23230  0.71745  0.89680  Biso   1.000  O
  O100     1.0000 0.26770  0.21745  0.10320  Biso   1.000  O
  O101     1.0000 0.66660  0.46913  0.73280  Biso   1.000  O
  O102     1.0000 0.83340  0.96913  0.26720  Biso   1.000  O
  O103     1.0000 0.33340  0.53087  0.26720  Biso   1.000  O
  O104     1.0000 0.16660  0.03087  0.73280  Biso   1.000  O
  O105     1.0000 0.28460  0.27636  0.60700  Biso   1.000  O
  O106     1.0000 0.21540  0.77636  0.39300  Biso   1.000  O
  O107     1.0000 0.71540  0.72364  0.39300  Biso   1.000  O
  O108     1.0000 0.78460  0.22364  0.60700  Biso   1.000  O
  C301     1.0000 0.27000  0.35750  0.39800  Biso   1.000  C
  C302     1.0000 0.23000  0.85750  0.60200  Biso   1.000  C
  C303     1.0000 0.73000  0.64250  0.60200  Biso   1.000  C
  C304     1.0000 0.77000  0.14250  0.39800  Biso   1.000  C
  O109     1.0000 0.34480  0.36760  0.46870  Biso   1.000  O
  O110     1.0000 0.15520  0.86760  0.53130  Biso   1.000  O
  O111     1.0000 0.65520  0.63240  0.53130  Biso   1.000  O
  O112     1.0000 0.84480  0.13240  0.46870  Biso   1.000  O
  O113     1.0000 0.53130  0.52480  0.34540  Biso   1.000  O
  O114     1.0000 0.96870  0.02480  0.65460  Biso   1.000  O
  O115     1.0000 0.46870  0.47520  0.65460  Biso   1.000  O
  O116     1.0000 0.03130  0.97520  0.34540  Biso   1.000  O
  O117     1.0000 0.61900  0.47990  0.26880  Biso   1.000  O
  O118     1.0000 0.88100  0.97990  0.73120  Biso   1.000  O
  O119     1.0000 0.38100  0.52010  0.73120  Biso   1.000  O
  O120     1.0000 0.11900  0.02010  0.26880  Biso   1.000  O
  C305     1.0000 0.30790  0.27080  0.52570  Biso   1.000  C
  C306     1.0000 0.19210  0.77080  0.47430  Biso   1.000  C
  C307     1.0000 0.69210  0.72920  0.47430  Biso   1.000  C
  C308     1.0000 0.80790  0.22920  0.52570  Biso   1.000  C
  C309     1.0000 0.79230  0.28820  0.02590  Biso   1.000  C
  C310     1.0000 0.70770  0.78820  0.97410  Biso   1.000  C
  C311     1.0000 0.20770  0.71180  0.97410  Biso   1.000  C
  C312     1.0000 0.29230  0.21180  0.02590  Biso   1.000  C
