data_image0
_cell_length_a       23.0085
_cell_length_b       14.6379
_cell_length_c       23.6226
_cell_angle_alpha    90
_cell_angle_beta     90
_cell_angle_gamma    90

_symmetry_space_group_name_H-M    "P 1"
_symmetry_int_tables_number       1

loop_
  _symmetry_equiv_pos_as_xyz
  'x, y, z'

loop_
  _atom_site_label
  _atom_site_occupancy
  _atom_site_fract_x
  _atom_site_fract_y
  _atom_site_fract_z
  _atom_site_thermal_displace_type
  _atom_site_B_iso_or_equiv
  _atom_site_type_symbol
  O1       1.0000 0.35070  0.31170  0.71510  Biso   1.000  O
  O2       1.0000 0.14930  0.18830  0.21510  Biso   1.000  O
  O3       1.0000 0.64930  0.31170  0.78490  Biso   1.000  O
  O4       1.0000 0.85070  0.18830  0.28490  Biso   1.000  O
  O5       1.0000 0.64930  0.68830  0.28490  Biso   1.000  O
  O6       1.0000 0.85070  0.81170  0.78490  Biso   1.000  O
  O7       1.0000 0.35070  0.68830  0.21510  Biso   1.000  O
  O8       1.0000 0.14930  0.81170  0.71510  Biso   1.000  O
  Cu1      1.0000 0.28929  0.17480  0.74235  Biso   1.000  Cu
  Cu2      1.0000 0.21071  0.32520  0.24235  Biso   1.000  Cu
  Cu3      1.0000 0.71071  0.17480  0.75765  Biso   1.000  Cu
  Cu4      1.0000 0.78929  0.32520  0.25765  Biso   1.000  Cu
  Cu5      1.0000 0.71071  0.82520  0.25765  Biso   1.000  Cu
  Cu6      1.0000 0.78929  0.67480  0.75765  Biso   1.000  Cu
  Cu7      1.0000 0.28929  0.82520  0.24235  Biso   1.000  Cu
  Cu8      1.0000 0.21071  0.67480  0.74235  Biso   1.000  Cu
  N1       1.0000 0.26990  0.23590  0.81590  Biso   1.000  N
  N2       1.0000 0.23010  0.26410  0.31590  Biso   1.000  N
  N3       1.0000 0.73010  0.23590  0.68410  Biso   1.000  N
  N4       1.0000 0.76990  0.26410  0.18410  Biso   1.000  N
  N5       1.0000 0.73010  0.76410  0.18410  Biso   1.000  N
  N6       1.0000 0.76990  0.73590  0.68410  Biso   1.000  N
  N7       1.0000 0.26990  0.76410  0.31590  Biso   1.000  N
  N8       1.0000 0.23010  0.73590  0.81590  Biso   1.000  N
  N9       1.0000 0.19240  0.38860  0.17020  Biso   1.000  N
  N10      1.0000 0.30760  0.11140  0.67020  Biso   1.000  N
  N11      1.0000 0.80760  0.38860  0.32980  Biso   1.000  N
  N12      1.0000 0.69240  0.11140  0.82980  Biso   1.000  N
  N13      1.0000 0.80760  0.61140  0.82980  Biso   1.000  N
  N14      1.0000 0.69240  0.88860  0.32980  Biso   1.000  N
  N15      1.0000 0.19240  0.61140  0.67020  Biso   1.000  N
  N16      1.0000 0.30760  0.88860  0.17020  Biso   1.000  N
  N17      1.0000 0.35320  0.10080  0.78200  Biso   1.000  N
  N18      1.0000 0.14680  0.39920  0.28200  Biso   1.000  N
  N19      1.0000 0.64680  0.10080  0.71800  Biso   1.000  N
  N20      1.0000 0.85320  0.39920  0.21800  Biso   1.000  N
  N21      1.0000 0.64680  0.89920  0.21800  Biso   1.000  N
  N22      1.0000 0.85320  0.60080  0.71800  Biso   1.000  N
  N23      1.0000 0.35320  0.89920  0.28200  Biso   1.000  N
  N24      1.0000 0.14680  0.60080  0.78200  Biso   1.000  N
  N25      1.0000 0.71760  0.72860  0.79260  Biso   1.000  N
  N26      1.0000 0.78240  0.77140  0.29260  Biso   1.000  N
  N27      1.0000 0.28240  0.72860  0.70740  Biso   1.000  N
  N28      1.0000 0.21760  0.77140  0.20740  Biso   1.000  N
  N29      1.0000 0.28240  0.27140  0.20740  Biso   1.000  N
  N30      1.0000 0.21760  0.22860  0.70740  Biso   1.000  N
  N31      1.0000 0.71760  0.27140  0.29260  Biso   1.000  N
  N32      1.0000 0.78240  0.22860  0.79260  Biso   1.000  N
  C1       1.0000 0.26020  0.32200  0.81730  Biso   1.000  C
  C2       1.0000 0.23980  0.17800  0.31730  Biso   1.000  C
  C3       1.0000 0.73980  0.32200  0.68270  Biso   1.000  C
  C4       1.0000 0.76020  0.17800  0.18270  Biso   1.000  C
  C5       1.0000 0.73980  0.67800  0.18270  Biso   1.000  C
  C6       1.0000 0.76020  0.82200  0.68270  Biso   1.000  C
  C7       1.0000 0.26020  0.67800  0.31730  Biso   1.000  C
  C8       1.0000 0.23980  0.82200  0.81730  Biso   1.000  C
  H1       1.0000 0.26830  0.35430  0.78440  Biso   1.000  H
  H2       1.0000 0.23170  0.14570  0.28440  Biso   1.000  H
  H3       1.0000 0.73170  0.35430  0.71560  Biso   1.000  H
  H4       1.0000 0.76830  0.14570  0.21560  Biso   1.000  H
  H5       1.0000 0.73170  0.64570  0.21560  Biso   1.000  H
  H6       1.0000 0.76830  0.85430  0.71560  Biso   1.000  H
  H7       1.0000 0.26830  0.64570  0.28440  Biso   1.000  H
  H8       1.0000 0.23170  0.85430  0.78440  Biso   1.000  H
  C9       1.0000 0.23870  0.37230  0.86300  Biso   1.000  C
  C10      1.0000 0.26130  0.12770  0.36300  Biso   1.000  C
  C11      1.0000 0.76130  0.37230  0.63700  Biso   1.000  C
  C12      1.0000 0.73870  0.12770  0.13700  Biso   1.000  C
  C13      1.0000 0.76130  0.62770  0.13700  Biso   1.000  C
  C14      1.0000 0.73870  0.87230  0.63700  Biso   1.000  C
  C15      1.0000 0.23870  0.62770  0.36300  Biso   1.000  C
  C16      1.0000 0.26130  0.87230  0.86300  Biso   1.000  C
  H9       1.0000 0.23540  0.43560  0.86110  Biso   1.000  H
  H10      1.0000 0.26460  0.06440  0.36110  Biso   1.000  H
  H11      1.0000 0.76460  0.43560  0.63890  Biso   1.000  H
  H12      1.0000 0.73540  0.06440  0.13890  Biso   1.000  H
  H13      1.0000 0.76460  0.56440  0.13890  Biso   1.000  H
  H14      1.0000 0.73540  0.93560  0.63890  Biso   1.000  H
  H15      1.0000 0.23540  0.56440  0.36110  Biso   1.000  H
  H16      1.0000 0.26460  0.93560  0.86110  Biso   1.000  H
  C17      1.0000 0.22280  0.32600  0.91030  Biso   1.000  C
  C18      1.0000 0.27720  0.17400  0.41030  Biso   1.000  C
  C19      1.0000 0.77720  0.32600  0.58970  Biso   1.000  C
  C20      1.0000 0.72280  0.17400  0.08970  Biso   1.000  C
  C21      1.0000 0.77720  0.67400  0.08970  Biso   1.000  C
  C22      1.0000 0.72280  0.82600  0.58970  Biso   1.000  C
  C23      1.0000 0.22280  0.67400  0.41030  Biso   1.000  C
  C24      1.0000 0.27720  0.82600  0.91030  Biso   1.000  C
  C25      1.0000 0.23530  0.23560  0.90760  Biso   1.000  C
  C26      1.0000 0.26470  0.26440  0.40760  Biso   1.000  C
  C27      1.0000 0.76470  0.23560  0.59240  Biso   1.000  C
  C28      1.0000 0.73530  0.26440  0.09240  Biso   1.000  C
  C29      1.0000 0.76470  0.76440  0.09240  Biso   1.000  C
  C30      1.0000 0.73530  0.73560  0.59240  Biso   1.000  C
  C31      1.0000 0.23530  0.76440  0.40760  Biso   1.000  C
  C32      1.0000 0.26470  0.73560  0.90760  Biso   1.000  C
  H17      1.0000 0.22860  0.20200  0.94040  Biso   1.000  H
  H18      1.0000 0.27140  0.29800  0.44040  Biso   1.000  H
  H19      1.0000 0.77140  0.20200  0.55960  Biso   1.000  H
  H20      1.0000 0.72860  0.29800  0.05960  Biso   1.000  H
  H21      1.0000 0.77140  0.79800  0.05960  Biso   1.000  H
  H22      1.0000 0.72860  0.70200  0.55960  Biso   1.000  H
  H23      1.0000 0.22860  0.79800  0.44040  Biso   1.000  H
  H24      1.0000 0.27140  0.70200  0.94040  Biso   1.000  H
  C33      1.0000 0.25700  0.18800  0.86210  Biso   1.000  C
  C34      1.0000 0.24300  0.31200  0.36210  Biso   1.000  C
  C35      1.0000 0.74300  0.18800  0.63790  Biso   1.000  C
  C36      1.0000 0.75700  0.31200  0.13790  Biso   1.000  C
  C37      1.0000 0.74300  0.81200  0.13790  Biso   1.000  C
  C38      1.0000 0.75700  0.68800  0.63790  Biso   1.000  C
  C39      1.0000 0.25700  0.81200  0.36210  Biso   1.000  C
  C40      1.0000 0.24300  0.68800  0.86210  Biso   1.000  C
  H25      1.0000 0.26220  0.12470  0.86350  Biso   1.000  H
  H26      1.0000 0.23780  0.37530  0.36350  Biso   1.000  H
  H27      1.0000 0.73780  0.12470  0.63650  Biso   1.000  H
  H28      1.0000 0.76220  0.37530  0.13650  Biso   1.000  H
  H29      1.0000 0.73780  0.87530  0.13650  Biso   1.000  H
  H30      1.0000 0.76220  0.62470  0.63650  Biso   1.000  H
  H31      1.0000 0.26220  0.87530  0.36350  Biso   1.000  H
  H32      1.0000 0.23780  0.62470  0.86350  Biso   1.000  H
  C41      1.0000 0.14120  0.37200  0.14610  Biso   1.000  C
  C42      1.0000 0.35880  0.12800  0.64610  Biso   1.000  C
  C43      1.0000 0.85880  0.37200  0.35390  Biso   1.000  C
  C44      1.0000 0.64120  0.12800  0.85390  Biso   1.000  C
  C45      1.0000 0.85880  0.62800  0.85390  Biso   1.000  C
  C46      1.0000 0.64120  0.87200  0.35390  Biso   1.000  C
  C47      1.0000 0.14120  0.62800  0.64610  Biso   1.000  C
  C48      1.0000 0.35880  0.87200  0.14610  Biso   1.000  C
  H33      1.0000 0.11550  0.33140  0.16290  Biso   1.000  H
  H34      1.0000 0.38450  0.16860  0.66290  Biso   1.000  H
  H35      1.0000 0.88450  0.33140  0.33710  Biso   1.000  H
  H36      1.0000 0.61550  0.16860  0.83710  Biso   1.000  H
  H37      1.0000 0.88450  0.66860  0.83710  Biso   1.000  H
  H38      1.0000 0.61550  0.83140  0.33710  Biso   1.000  H
  H39      1.0000 0.11550  0.66860  0.66290  Biso   1.000  H
  H40      1.0000 0.38450  0.83140  0.16290  Biso   1.000  H
  C49      1.0000 0.12570  0.41630  0.09550  Biso   1.000  C
  C50      1.0000 0.37430  0.08370  0.59550  Biso   1.000  C
  C51      1.0000 0.87430  0.41630  0.40450  Biso   1.000  C
  C52      1.0000 0.62570  0.08370  0.90450  Biso   1.000  C
  C53      1.0000 0.87430  0.58370  0.90450  Biso   1.000  C
  C54      1.0000 0.62570  0.91630  0.40450  Biso   1.000  C
  C55      1.0000 0.12570  0.58370  0.59550  Biso   1.000  C
  C56      1.0000 0.37430  0.91630  0.09550  Biso   1.000  C
  H41      1.0000 0.08770  0.41200  0.08240  Biso   1.000  H
  H42      1.0000 0.41230  0.08800  0.58240  Biso   1.000  H
  H43      1.0000 0.91230  0.41200  0.41760  Biso   1.000  H
  H44      1.0000 0.58770  0.08800  0.91760  Biso   1.000  H
  H45      1.0000 0.91230  0.58800  0.91760  Biso   1.000  H
  H46      1.0000 0.58770  0.91200  0.41760  Biso   1.000  H
  H47      1.0000 0.08770  0.58800  0.58240  Biso   1.000  H
  H48      1.0000 0.41230  0.91200  0.08240  Biso   1.000  H
  C57      1.0000 0.16530  0.46500  0.06550  Biso   1.000  C
  C58      1.0000 0.33470  0.03500  0.56550  Biso   1.000  C
  C59      1.0000 0.83470  0.46500  0.43450  Biso   1.000  C
  C60      1.0000 0.66530  0.03500  0.93450  Biso   1.000  C
  C61      1.0000 0.83470  0.53500  0.93450  Biso   1.000  C
  C62      1.0000 0.66530  0.96500  0.43450  Biso   1.000  C
  C63      1.0000 0.16530  0.53500  0.56550  Biso   1.000  C
  C64      1.0000 0.33470  0.96500  0.06550  Biso   1.000  C
  C65      1.0000 0.21970  0.48200  0.08960  Biso   1.000  C
  C66      1.0000 0.28030  0.01800  0.58960  Biso   1.000  C
  C67      1.0000 0.78030  0.48200  0.41040  Biso   1.000  C
  C68      1.0000 0.71970  0.01800  0.91040  Biso   1.000  C
  C69      1.0000 0.78030  0.51800  0.91040  Biso   1.000  C
  C70      1.0000 0.71970  0.98200  0.41040  Biso   1.000  C
  C71      1.0000 0.21970  0.51800  0.58960  Biso   1.000  C
  C72      1.0000 0.28030  0.98200  0.08960  Biso   1.000  C
  H49      1.0000 0.24640  0.52070  0.07220  Biso   1.000  H
  H50      1.0000 0.25360  0.97930  0.57220  Biso   1.000  H
  H51      1.0000 0.75360  0.52070  0.42780  Biso   1.000  H
  H52      1.0000 0.74640  0.97930  0.92780  Biso   1.000  H
  H53      1.0000 0.75360  0.47930  0.92780  Biso   1.000  H
  H54      1.0000 0.74640  0.02070  0.42780  Biso   1.000  H
  H55      1.0000 0.24640  0.47930  0.57220  Biso   1.000  H
  H56      1.0000 0.25360  0.02070  0.07220  Biso   1.000  H
  C73      1.0000 0.23270  0.43800  0.14180  Biso   1.000  C
  C74      1.0000 0.26730  0.06200  0.64180  Biso   1.000  C
  C75      1.0000 0.76730  0.43800  0.35820  Biso   1.000  C
  C76      1.0000 0.73270  0.06200  0.85820  Biso   1.000  C
  C77      1.0000 0.76730  0.56200  0.85820  Biso   1.000  C
  C78      1.0000 0.73270  0.93800  0.35820  Biso   1.000  C
  C79      1.0000 0.23270  0.56200  0.64180  Biso   1.000  C
  C80      1.0000 0.26730  0.93800  0.14180  Biso   1.000  C
  H57      1.0000 0.27000  0.44350  0.15670  Biso   1.000  H
  H58      1.0000 0.23000  0.05650  0.65670  Biso   1.000  H
  H59      1.0000 0.73000  0.44350  0.34330  Biso   1.000  H
  H60      1.0000 0.77000  0.05650  0.84330  Biso   1.000  H
  H61      1.0000 0.73000  0.55650  0.84330  Biso   1.000  H
  H62      1.0000 0.77000  0.94350  0.34330  Biso   1.000  H
  H63      1.0000 0.27000  0.55650  0.65670  Biso   1.000  H
  H64      1.0000 0.23000  0.94350  0.15670  Biso   1.000  H
  C81      1.0000 0.19050  0.36800  0.95660  Biso   1.000  C
  C82      1.0000 0.30950  0.13200  0.45660  Biso   1.000  C
  C83      1.0000 0.80950  0.36800  0.54340  Biso   1.000  C
  C84      1.0000 0.69050  0.13200  0.04340  Biso   1.000  C
  C85      1.0000 0.80950  0.63200  0.04340  Biso   1.000  C
  C86      1.0000 0.69050  0.86800  0.54340  Biso   1.000  C
  C87      1.0000 0.19050  0.63200  0.45660  Biso   1.000  C
  C88      1.0000 0.30950  0.86800  0.95660  Biso   1.000  C
  H65      1.0000 0.20590  0.34330  0.99180  Biso   1.000  H
  H66      1.0000 0.29410  0.15670  0.49180  Biso   1.000  H
  H67      1.0000 0.79410  0.34330  0.50820  Biso   1.000  H
  H68      1.0000 0.70590  0.15670  0.00820  Biso   1.000  H
  H69      1.0000 0.79410  0.65670  0.00820  Biso   1.000  H
  H70      1.0000 0.70590  0.84330  0.50820  Biso   1.000  H
  H71      1.0000 0.20590  0.65670  0.49180  Biso   1.000  H
  H72      1.0000 0.29410  0.84330  0.99180  Biso   1.000  H
  H73      1.0000 0.15050  0.34730  0.95370  Biso   1.000  H
  H74      1.0000 0.34950  0.15270  0.45370  Biso   1.000  H
  H75      1.0000 0.84950  0.34730  0.54630  Biso   1.000  H
  H76      1.0000 0.65050  0.15270  0.04630  Biso   1.000  H
  H77      1.0000 0.84950  0.65270  0.04630  Biso   1.000  H
  H78      1.0000 0.65050  0.84730  0.54630  Biso   1.000  H
  H79      1.0000 0.15050  0.65270  0.45370  Biso   1.000  H
  H80      1.0000 0.34950  0.84730  0.95370  Biso   1.000  H
  C89      1.0000 0.19010  0.47000  0.96130  Biso   1.000  C
  C90      1.0000 0.30990  0.03000  0.46130  Biso   1.000  C
  C91      1.0000 0.80990  0.47000  0.53870  Biso   1.000  C
  C92      1.0000 0.69010  0.03000  0.03870  Biso   1.000  C
  C93      1.0000 0.80990  0.53000  0.03870  Biso   1.000  C
  C94      1.0000 0.69010  0.97000  0.53870  Biso   1.000  C
  C95      1.0000 0.19010  0.53000  0.46130  Biso   1.000  C
  C96      1.0000 0.30990  0.97000  0.96130  Biso   1.000  C
  H81      1.0000 0.22950  0.49090  0.96860  Biso   1.000  H
  H82      1.0000 0.27050  0.00910  0.46860  Biso   1.000  H
  H83      1.0000 0.77050  0.49090  0.53140  Biso   1.000  H
  H84      1.0000 0.72950  0.00910  0.03140  Biso   1.000  H
  H85      1.0000 0.77050  0.50910  0.03140  Biso   1.000  H
  H86      1.0000 0.72950  0.99090  0.53140  Biso   1.000  H
  H87      1.0000 0.22950  0.50910  0.46860  Biso   1.000  H
  H88      1.0000 0.27050  0.99090  0.96860  Biso   1.000  H
  H89      1.0000 0.17820  0.49560  0.92510  Biso   1.000  H
  H90      1.0000 0.32180  0.00440  0.42510  Biso   1.000  H
  H91      1.0000 0.82180  0.49560  0.57490  Biso   1.000  H
  H92      1.0000 0.67820  0.00440  0.07490  Biso   1.000  H
  H93      1.0000 0.82180  0.50440  0.07490  Biso   1.000  H
  H94      1.0000 0.67820  0.99560  0.57490  Biso   1.000  H
  H95      1.0000 0.17820  0.50440  0.42510  Biso   1.000  H
  H96      1.0000 0.32180  0.99560  0.92510  Biso   1.000  H
  C97      1.0000 0.15090  0.50700  0.00670  Biso   1.000  C
  C98      1.0000 0.34910  0.99300  0.50670  Biso   1.000  C
  C99      1.0000 0.84910  0.50700  0.49330  Biso   1.000  C
  C100     1.0000 0.65090  0.99300  0.99330  Biso   1.000  C
  C101     1.0000 0.84910  0.49300  0.99330  Biso   1.000  C
  C102     1.0000 0.65090  0.00700  0.49330  Biso   1.000  C
  C103     1.0000 0.15090  0.49300  0.50670  Biso   1.000  C
  C104     1.0000 0.34910  0.00700  0.00670  Biso   1.000  C
  H97      1.0000 0.11080  0.49400  0.99710  Biso   1.000  H
  H98      1.0000 0.38920  0.00600  0.49710  Biso   1.000  H
  H99      1.0000 0.88920  0.49400  0.50290  Biso   1.000  H
  H100     1.0000 0.61080  0.00600  0.00290  Biso   1.000  H
  H101     1.0000 0.88920  0.50600  0.00290  Biso   1.000  H
  H102     1.0000 0.61080  0.99400  0.50290  Biso   1.000  H
  H103     1.0000 0.11080  0.50600  0.49710  Biso   1.000  H
  H104     1.0000 0.38920  0.99400  0.99710  Biso   1.000  H
  H105     1.0000 0.15520  0.57310  0.00860  Biso   1.000  H
  H106     1.0000 0.34480  0.92690  0.50860  Biso   1.000  H
  H107     1.0000 0.84480  0.57310  0.49140  Biso   1.000  H
  H108     1.0000 0.65520  0.92690  0.99140  Biso   1.000  H
  H109     1.0000 0.84480  0.42690  0.99140  Biso   1.000  H
  H110     1.0000 0.65520  0.07310  0.49140  Biso   1.000  H
  H111     1.0000 0.15520  0.42690  0.50860  Biso   1.000  H
  H112     1.0000 0.34480  0.07310  0.00860  Biso   1.000  H
  C105     1.0000 0.35390  0.01200  0.77900  Biso   1.000  C
  C106     1.0000 0.14610  0.48800  0.27900  Biso   1.000  C
  C107     1.0000 0.64610  0.01200  0.72100  Biso   1.000  C
  C108     1.0000 0.85390  0.48800  0.22100  Biso   1.000  C
  C109     1.0000 0.64610  0.98800  0.22100  Biso   1.000  C
  C110     1.0000 0.85390  0.51200  0.72100  Biso   1.000  C
  C111     1.0000 0.35390  0.98800  0.27900  Biso   1.000  C
  C112     1.0000 0.14610  0.51200  0.77900  Biso   1.000  C
  H113     1.0000 0.32690  0.98420  0.75510  Biso   1.000  H
  H114     1.0000 0.17310  0.51580  0.25510  Biso   1.000  H
  H115     1.0000 0.67310  0.98420  0.74490  Biso   1.000  H
  H116     1.0000 0.82690  0.51580  0.24490  Biso   1.000  H
  H117     1.0000 0.67310  0.01580  0.24490  Biso   1.000  H
  H118     1.0000 0.82690  0.48420  0.74490  Biso   1.000  H
  H119     1.0000 0.32690  0.01580  0.25510  Biso   1.000  H
  H120     1.0000 0.17310  0.48420  0.75510  Biso   1.000  H
  C113     1.0000 0.39030  0.95510  0.80750  Biso   1.000  C
  C114     1.0000 0.10970  0.54490  0.30750  Biso   1.000  C
  C115     1.0000 0.60970  0.95510  0.69250  Biso   1.000  C
  C116     1.0000 0.89030  0.54490  0.19250  Biso   1.000  C
  C117     1.0000 0.60970  0.04490  0.19250  Biso   1.000  C
  C118     1.0000 0.89030  0.45510  0.69250  Biso   1.000  C
  C119     1.0000 0.39030  0.04490  0.30750  Biso   1.000  C
  C120     1.0000 0.10970  0.45510  0.80750  Biso   1.000  C
  H121     1.0000 0.38700  0.89180  0.80690  Biso   1.000  H
  H122     1.0000 0.11300  0.60820  0.30690  Biso   1.000  H
  H123     1.0000 0.61300  0.89180  0.69310  Biso   1.000  H
  H124     1.0000 0.88700  0.60820  0.19310  Biso   1.000  H
  H125     1.0000 0.61300  0.10820  0.19310  Biso   1.000  H
  H126     1.0000 0.88700  0.39180  0.69310  Biso   1.000  H
  H127     1.0000 0.38700  0.10820  0.30690  Biso   1.000  H
  H128     1.0000 0.11300  0.39180  0.80690  Biso   1.000  H
  C121     1.0000 0.43390  0.00200  0.83850  Biso   1.000  C
  C122     1.0000 0.06610  0.49800  0.33850  Biso   1.000  C
  C123     1.0000 0.56610  0.00200  0.66150  Biso   1.000  C
  C124     1.0000 0.93390  0.49800  0.16150  Biso   1.000  C
  C125     1.0000 0.56610  0.99800  0.16150  Biso   1.000  C
  C126     1.0000 0.93390  0.50200  0.66150  Biso   1.000  C
  C127     1.0000 0.43390  0.99800  0.33850  Biso   1.000  C
  C128     1.0000 0.06610  0.50200  0.83850  Biso   1.000  C
  C129     1.0000 0.43290  0.09600  0.84300  Biso   1.000  C
  C130     1.0000 0.06710  0.40400  0.34300  Biso   1.000  C
  C131     1.0000 0.56710  0.09600  0.65700  Biso   1.000  C
  C132     1.0000 0.93290  0.40400  0.15700  Biso   1.000  C
  C133     1.0000 0.56710  0.90400  0.15700  Biso   1.000  C
  C134     1.0000 0.93290  0.59600  0.65700  Biso   1.000  C
  C135     1.0000 0.43290  0.90400  0.34300  Biso   1.000  C
  C136     1.0000 0.06710  0.59600  0.84300  Biso   1.000  C
  H129     1.0000 0.45820  0.12820  0.86650  Biso   1.000  H
  H130     1.0000 0.04180  0.37180  0.36650  Biso   1.000  H
  H131     1.0000 0.54180  0.12820  0.63350  Biso   1.000  H
  H132     1.0000 0.95820  0.37180  0.13350  Biso   1.000  H
  H133     1.0000 0.54180  0.87180  0.13350  Biso   1.000  H
  H134     1.0000 0.95820  0.62820  0.63350  Biso   1.000  H
  H135     1.0000 0.45820  0.87180  0.36650  Biso   1.000  H
  H136     1.0000 0.04180  0.62820  0.86650  Biso   1.000  H
  C137     1.0000 0.39400  0.13800  0.81220  Biso   1.000  C
  C138     1.0000 0.10600  0.36200  0.31220  Biso   1.000  C
  C139     1.0000 0.60600  0.13800  0.68780  Biso   1.000  C
  C140     1.0000 0.89400  0.36200  0.18780  Biso   1.000  C
  C141     1.0000 0.60600  0.86200  0.18780  Biso   1.000  C
  C142     1.0000 0.89400  0.63800  0.68780  Biso   1.000  C
  C143     1.0000 0.39400  0.86200  0.31220  Biso   1.000  C
  C144     1.0000 0.10600  0.63800  0.81220  Biso   1.000  C
  H137     1.0000 0.39570  0.20110  0.81190  Biso   1.000  H
  H138     1.0000 0.10430  0.29890  0.31190  Biso   1.000  H
  H139     1.0000 0.60430  0.20110  0.68810  Biso   1.000  H
  H140     1.0000 0.89570  0.29890  0.18810  Biso   1.000  H
  H141     1.0000 0.60430  0.79890  0.18810  Biso   1.000  H
  H142     1.0000 0.89570  0.70110  0.68810  Biso   1.000  H
  H143     1.0000 0.39570  0.79890  0.31190  Biso   1.000  H
  H144     1.0000 0.10430  0.70110  0.81190  Biso   1.000  H
  C145     1.0000 0.72070  0.77000  0.84440  Biso   1.000  C
  C146     1.0000 0.77930  0.73000  0.34440  Biso   1.000  C
  C147     1.0000 0.27930  0.77000  0.65560  Biso   1.000  C
  C148     1.0000 0.22070  0.73000  0.15560  Biso   1.000  C
  C149     1.0000 0.27930  0.23000  0.15560  Biso   1.000  C
  C150     1.0000 0.22070  0.27000  0.65560  Biso   1.000  C
  C151     1.0000 0.72070  0.23000  0.34440  Biso   1.000  C
  C152     1.0000 0.77930  0.27000  0.84440  Biso   1.000  C
  H145     1.0000 0.75620  0.77380  0.86300  Biso   1.000  H
  H146     1.0000 0.74380  0.72620  0.36300  Biso   1.000  H
  H147     1.0000 0.24380  0.77380  0.63700  Biso   1.000  H
  H148     1.0000 0.25620  0.72620  0.13700  Biso   1.000  H
  H149     1.0000 0.24380  0.22620  0.13700  Biso   1.000  H
  H150     1.0000 0.25620  0.27380  0.63700  Biso   1.000  H
  H151     1.0000 0.75620  0.22620  0.36300  Biso   1.000  H
  H152     1.0000 0.74380  0.27380  0.86300  Biso   1.000  H
  C153     1.0000 0.67190  0.80400  0.86900  Biso   1.000  C
  C154     1.0000 0.82810  0.69600  0.36900  Biso   1.000  C
  C155     1.0000 0.32810  0.80400  0.63100  Biso   1.000  C
  C156     1.0000 0.17190  0.69600  0.13100  Biso   1.000  C
  C157     1.0000 0.32810  0.19600  0.13100  Biso   1.000  C
  C158     1.0000 0.17190  0.30400  0.63100  Biso   1.000  C
  C159     1.0000 0.67190  0.19600  0.36900  Biso   1.000  C
  C160     1.0000 0.82810  0.30400  0.86900  Biso   1.000  C
  H153     1.0000 0.67490  0.82370  0.90630  Biso   1.000  H
  H154     1.0000 0.82510  0.67630  0.40630  Biso   1.000  H
  H155     1.0000 0.32510  0.82370  0.59370  Biso   1.000  H
  H156     1.0000 0.17490  0.67630  0.09370  Biso   1.000  H
  H157     1.0000 0.32510  0.17630  0.09370  Biso   1.000  H
  H158     1.0000 0.17490  0.32370  0.59370  Biso   1.000  H
  H159     1.0000 0.67490  0.17630  0.40630  Biso   1.000  H
  H160     1.0000 0.82510  0.32370  0.90630  Biso   1.000  H
  C161     1.0000 0.62050  0.81280  0.84420  Biso   1.000  C
  C162     1.0000 0.87950  0.68720  0.34420  Biso   1.000  C
  C163     1.0000 0.37950  0.81280  0.65580  Biso   1.000  C
  C164     1.0000 0.12050  0.68720  0.15580  Biso   1.000  C
  C165     1.0000 0.37950  0.18720  0.15580  Biso   1.000  C
  C166     1.0000 0.12050  0.31280  0.65580  Biso   1.000  C
  C167     1.0000 0.62050  0.18720  0.34420  Biso   1.000  C
  C168     1.0000 0.87950  0.31280  0.84420  Biso   1.000  C
  C169     1.0000 0.61620  0.77240  0.79090  Biso   1.000  C
  C170     1.0000 0.88380  0.72760  0.29090  Biso   1.000  C
  C171     1.0000 0.38380  0.77240  0.70910  Biso   1.000  C
  C172     1.0000 0.11620  0.72760  0.20910  Biso   1.000  C
  C173     1.0000 0.38380  0.22760  0.20910  Biso   1.000  C
  C174     1.0000 0.11620  0.27240  0.70910  Biso   1.000  C
  C175     1.0000 0.61620  0.22760  0.29090  Biso   1.000  C
  C176     1.0000 0.88380  0.27240  0.79090  Biso   1.000  C
  H161     1.0000 0.58140  0.77200  0.77080  Biso   1.000  H
  H162     1.0000 0.91860  0.72800  0.27080  Biso   1.000  H
  H163     1.0000 0.41860  0.77200  0.72920  Biso   1.000  H
  H164     1.0000 0.08140  0.72800  0.22920  Biso   1.000  H
  H165     1.0000 0.41860  0.22800  0.22920  Biso   1.000  H
  H166     1.0000 0.08140  0.27200  0.72920  Biso   1.000  H
  H167     1.0000 0.58140  0.22800  0.27080  Biso   1.000  H
  H168     1.0000 0.91860  0.27200  0.77080  Biso   1.000  H
  C177     1.0000 0.66840  0.73140  0.76830  Biso   1.000  C
  C178     1.0000 0.83160  0.76860  0.26830  Biso   1.000  C
  C179     1.0000 0.33160  0.73140  0.73170  Biso   1.000  C
  C180     1.0000 0.16840  0.76860  0.23170  Biso   1.000  C
  C181     1.0000 0.33160  0.26860  0.23170  Biso   1.000  C
  C182     1.0000 0.16840  0.23140  0.73170  Biso   1.000  C
  C183     1.0000 0.66840  0.26860  0.26830  Biso   1.000  C
  C184     1.0000 0.83160  0.23140  0.76830  Biso   1.000  C
  H169     1.0000 0.66570  0.70450  0.73270  Biso   1.000  H
  H170     1.0000 0.83430  0.79550  0.23270  Biso   1.000  H
  H171     1.0000 0.33430  0.70450  0.76730  Biso   1.000  H
  H172     1.0000 0.16570  0.79550  0.26730  Biso   1.000  H
  H173     1.0000 0.33430  0.29550  0.26730  Biso   1.000  H
  H174     1.0000 0.16570  0.20450  0.76730  Biso   1.000  H
  H175     1.0000 0.66570  0.29550  0.23270  Biso   1.000  H
  H176     1.0000 0.83430  0.20450  0.73270  Biso   1.000  H
  C185     1.0000 0.47850  0.94200  0.87260  Biso   1.000  C
  C186     1.0000 0.02150  0.55800  0.37260  Biso   1.000  C
  C187     1.0000 0.52150  0.94200  0.62740  Biso   1.000  C
  C188     1.0000 0.97850  0.55800  0.12740  Biso   1.000  C
  C189     1.0000 0.52150  0.05800  0.12740  Biso   1.000  C
  C190     1.0000 0.97850  0.44200  0.62740  Biso   1.000  C
  C191     1.0000 0.47850  0.05800  0.37260  Biso   1.000  C
  C192     1.0000 0.02150  0.44200  0.87260  Biso   1.000  C
  H177     1.0000 0.49470  0.97880  0.90300  Biso   1.000  H
  H178     1.0000 0.00530  0.52120  0.40300  Biso   1.000  H
  H179     1.0000 0.50530  0.97880  0.59700  Biso   1.000  H
  H180     1.0000 0.99470  0.52120  0.09700  Biso   1.000  H
  H181     1.0000 0.50530  0.02120  0.09700  Biso   1.000  H
  H182     1.0000 0.99470  0.47880  0.59700  Biso   1.000  H
  H183     1.0000 0.49470  0.02120  0.40300  Biso   1.000  H
  H184     1.0000 0.00530  0.47880  0.90300  Biso   1.000  H
  H185     1.0000 0.45820  0.89110  0.88940  Biso   1.000  H
  H186     1.0000 0.04180  0.60890  0.38940  Biso   1.000  H
  H187     1.0000 0.54180  0.89110  0.61060  Biso   1.000  H
  H188     1.0000 0.95820  0.60890  0.11060  Biso   1.000  H
  H189     1.0000 0.54180  0.10890  0.11060  Biso   1.000  H
  H190     1.0000 0.95820  0.39110  0.61060  Biso   1.000  H
  H191     1.0000 0.45820  0.10890  0.38940  Biso   1.000  H
  H192     1.0000 0.04180  0.39110  0.88940  Biso   1.000  H
  C193     1.0000 0.52610  0.90800  0.83700  Biso   1.000  C
  C194     1.0000 0.97390  0.59200  0.33700  Biso   1.000  C
  C195     1.0000 0.47390  0.90800  0.66300  Biso   1.000  C
  C196     1.0000 0.02610  0.59200  0.16300  Biso   1.000  C
  C197     1.0000 0.47390  0.09200  0.16300  Biso   1.000  C
  C198     1.0000 0.02610  0.40800  0.66300  Biso   1.000  C
  C199     1.0000 0.52610  0.09200  0.33700  Biso   1.000  C
  C200     1.0000 0.97390  0.40800  0.83700  Biso   1.000  C
  H193     1.0000 0.54820  0.95860  0.82160  Biso   1.000  H
  H194     1.0000 0.95180  0.54140  0.32160  Biso   1.000  H
  H195     1.0000 0.45180  0.95860  0.67840  Biso   1.000  H
  H196     1.0000 0.04820  0.54140  0.17840  Biso   1.000  H
  H197     1.0000 0.45180  0.04140  0.17840  Biso   1.000  H
  H198     1.0000 0.04820  0.45860  0.67840  Biso   1.000  H
  H199     1.0000 0.54820  0.04140  0.32160  Biso   1.000  H
  H200     1.0000 0.95180  0.45860  0.82160  Biso   1.000  H
  H201     1.0000 0.51040  0.87290  0.80560  Biso   1.000  H
  H202     1.0000 0.98960  0.62710  0.30560  Biso   1.000  H
  H203     1.0000 0.48960  0.87290  0.69440  Biso   1.000  H
  H204     1.0000 0.01040  0.62710  0.19440  Biso   1.000  H
  H205     1.0000 0.48960  0.12710  0.19440  Biso   1.000  H
  H206     1.0000 0.01040  0.37290  0.69440  Biso   1.000  H
  H207     1.0000 0.51040  0.12710  0.30560  Biso   1.000  H
  H208     1.0000 0.98960  0.37290  0.80560  Biso   1.000  H
  C201     1.0000 0.56460  0.84900  0.87170  Biso   1.000  C
  C202     1.0000 0.93540  0.65100  0.37170  Biso   1.000  C
  C203     1.0000 0.43540  0.84900  0.62830  Biso   1.000  C
  C204     1.0000 0.06460  0.65100  0.12830  Biso   1.000  C
  C205     1.0000 0.43540  0.15100  0.12830  Biso   1.000  C
  C206     1.0000 0.06460  0.34900  0.62830  Biso   1.000  C
  C207     1.0000 0.56460  0.15100  0.37170  Biso   1.000  C
  C208     1.0000 0.93540  0.34900  0.87170  Biso   1.000  C
  H209     1.0000 0.57550  0.88310  0.90520  Biso   1.000  H
  H210     1.0000 0.92450  0.61690  0.40520  Biso   1.000  H
  H211     1.0000 0.42450  0.88310  0.59480  Biso   1.000  H
  H212     1.0000 0.07550  0.61690  0.09480  Biso   1.000  H
  H213     1.0000 0.42450  0.11690  0.09480  Biso   1.000  H
  H214     1.0000 0.07550  0.38310  0.59480  Biso   1.000  H
  H215     1.0000 0.57550  0.11690  0.40520  Biso   1.000  H
  H216     1.0000 0.92450  0.38310  0.90520  Biso   1.000  H
  H217     1.0000 0.54200  0.79680  0.88420  Biso   1.000  H
  H218     1.0000 0.95800  0.70320  0.38420  Biso   1.000  H
  H219     1.0000 0.45800  0.79680  0.61580  Biso   1.000  H
  H220     1.0000 0.04200  0.70320  0.11580  Biso   1.000  H
  H221     1.0000 0.45800  0.20320  0.11580  Biso   1.000  H
  H222     1.0000 0.04200  0.29680  0.61580  Biso   1.000  H
  H223     1.0000 0.54200  0.20320  0.38420  Biso   1.000  H
  H224     1.0000 0.95800  0.29680  0.88420  Biso   1.000  H
  O9       1.0000 0.19530  0.03310  0.77360  Biso   1.000  O
  O10      1.0000 0.30470  0.46690  0.27360  Biso   1.000  O
  O11      1.0000 0.80470  0.03310  0.72640  Biso   1.000  O
  O12      1.0000 0.69530  0.46690  0.22640  Biso   1.000  O
  O13      1.0000 0.80470  0.96690  0.22640  Biso   1.000  O
  O14      1.0000 0.69530  0.53310  0.72640  Biso   1.000  O
  O15      1.0000 0.19530  0.96690  0.27360  Biso   1.000  O
  O16      1.0000 0.30470  0.53310  0.77360  Biso   1.000  O
  W1       1.0000 0.37378  0.38016  0.53843  Biso   1.000  W
  W2       1.0000 0.12622  0.11984  0.03843  Biso   1.000  W
  W3       1.0000 0.62622  0.38016  0.96157  Biso   1.000  W
  W4       1.0000 0.87378  0.11984  0.46157  Biso   1.000  W
  W5       1.0000 0.62622  0.61984  0.46157  Biso   1.000  W
  W6       1.0000 0.87378  0.88016  0.96157  Biso   1.000  W
  W7       1.0000 0.37378  0.61984  0.03843  Biso   1.000  W
  W8       1.0000 0.12622  0.88016  0.53843  Biso   1.000  W
  W9       1.0000 0.63202  0.38114  0.48266  Biso   1.000  W
  W10      1.0000 0.86798  0.11886  0.98266  Biso   1.000  W
  W11      1.0000 0.36798  0.38114  0.01734  Biso   1.000  W
  W12      1.0000 0.13202  0.11886  0.51734  Biso   1.000  W
  W13      1.0000 0.36798  0.61886  0.51734  Biso   1.000  W
  W14      1.0000 0.13202  0.88114  0.01734  Biso   1.000  W
  W15      1.0000 0.63202  0.61886  0.98266  Biso   1.000  W
  W16      1.0000 0.86798  0.88114  0.48266  Biso   1.000  W
  W17      1.0000 0.50588  0.26195  0.52218  Biso   1.000  W
  W18      1.0000 0.99412  0.23805  0.02218  Biso   1.000  W
  W19      1.0000 0.49412  0.26195  0.97782  Biso   1.000  W
  W20      1.0000 0.00588  0.23805  0.47782  Biso   1.000  W
  W21      1.0000 0.49412  0.73805  0.47782  Biso   1.000  W
  W22      1.0000 0.00588  0.76195  0.97782  Biso   1.000  W
  W23      1.0000 0.50588  0.73805  0.02218  Biso   1.000  W
  W24      1.0000 0.99412  0.76195  0.52218  Biso   1.000  W
  W25      1.0000 0.43375  0.35031  0.40182  Biso   1.000  W
  W26      1.0000 0.06625  0.14969  0.90182  Biso   1.000  W
  W27      1.0000 0.56625  0.35031  0.09818  Biso   1.000  W
  W28      1.0000 0.93375  0.14969  0.59818  Biso   1.000  W
  W29      1.0000 0.56625  0.64969  0.59818  Biso   1.000  W
  W30      1.0000 0.93375  0.85031  0.09818  Biso   1.000  W
  W31      1.0000 0.43375  0.64969  0.90182  Biso   1.000  W
  W32      1.0000 0.06625  0.85031  0.40182  Biso   1.000  W
  W33      1.0000 0.57285  0.41251  0.61903  Biso   1.000  W
  W34      1.0000 0.92715  0.08749  0.11903  Biso   1.000  W
  W35      1.0000 0.42715  0.41251  0.88097  Biso   1.000  W
  W36      1.0000 0.07285  0.08749  0.38097  Biso   1.000  W
  W37      1.0000 0.42715  0.58749  0.38097  Biso   1.000  W
  W38      1.0000 0.07285  0.91251  0.88097  Biso   1.000  W
  W39      1.0000 0.57285  0.58749  0.11903  Biso   1.000  W
  W40      1.0000 0.92715  0.91251  0.61903  Biso   1.000  W
  W41      1.0000 0.56037  0.47078  0.36370  Biso   1.000  W
  W42      1.0000 0.93963  0.02922  0.86370  Biso   1.000  W
  W43      1.0000 0.43963  0.47078  0.13630  Biso   1.000  W
  W44      1.0000 0.06037  0.02922  0.63630  Biso   1.000  W
  W45      1.0000 0.43963  0.52922  0.63630  Biso   1.000  W
  W46      1.0000 0.06037  0.97078  0.13630  Biso   1.000  W
  W47      1.0000 0.56037  0.52922  0.86370  Biso   1.000  W
  W48      1.0000 0.93963  0.97078  0.36370  Biso   1.000  W
  Si1      1.0000 0.50000  0.50000  0.50000  Biso   1.000  Si
  Si2      1.0000 0.00000  0.00000  0.00000  Biso   1.000  Si
  Si3      1.0000 0.50000  0.50000  0.00000  Biso   1.000  Si
  Si4      1.0000 0.00000  0.00000  0.50000  Biso   1.000  Si
  O17      1.0000 0.54240  0.41300  0.52310  Biso   1.000  O
  O18      1.0000 0.95760  0.08700  0.02310  Biso   1.000  O
  O19      1.0000 0.45760  0.41300  0.97690  Biso   1.000  O
  O20      1.0000 0.04240  0.08700  0.47690  Biso   1.000  O
  O21      1.0000 0.45760  0.58700  0.47690  Biso   1.000  O
  O22      1.0000 0.04240  0.91300  0.97690  Biso   1.000  O
  O23      1.0000 0.54240  0.58700  0.02310  Biso   1.000  O
  O24      1.0000 0.95760  0.91300  0.52310  Biso   1.000  O
  O25      1.0000 0.48510  0.47900  0.43260  Biso   1.000  O
  O26      1.0000 0.01490  0.02100  0.93260  Biso   1.000  O
  O27      1.0000 0.51490  0.47900  0.06740  Biso   1.000  O
  O28      1.0000 0.98510  0.02100  0.56740  Biso   1.000  O
  O29      1.0000 0.51490  0.52100  0.56740  Biso   1.000  O
  O30      1.0000 0.98510  0.97900  0.06740  Biso   1.000  O
  O31      1.0000 0.48510  0.52100  0.93260  Biso   1.000  O
  O32      1.0000 0.01490  0.97900  0.43260  Biso   1.000  O
  O33      1.0000 0.44200  0.49700  0.53580  Biso   1.000  O
  O34      1.0000 0.05800  0.00300  0.03580  Biso   1.000  O
  O35      1.0000 0.55800  0.49700  0.96420  Biso   1.000  O
  O36      1.0000 0.94200  0.00300  0.46420  Biso   1.000  O
  O37      1.0000 0.55800  0.50300  0.46420  Biso   1.000  O
  O38      1.0000 0.94200  0.99700  0.96420  Biso   1.000  O
  O39      1.0000 0.44200  0.50300  0.03580  Biso   1.000  O
  O40      1.0000 0.05800  0.99700  0.53580  Biso   1.000  O
  O41      1.0000 0.53130  0.58600  0.50330  Biso   1.000  O
  O42      1.0000 0.96870  0.91400  0.00330  Biso   1.000  O
  O43      1.0000 0.46870  0.58600  0.99670  Biso   1.000  O
  O44      1.0000 0.03130  0.91400  0.49670  Biso   1.000  O
  O45      1.0000 0.46870  0.41400  0.49670  Biso   1.000  O
  O46      1.0000 0.03130  0.08600  0.99670  Biso   1.000  O
  O47      1.0000 0.53130  0.41400  0.00330  Biso   1.000  O
  O48      1.0000 0.96870  0.08600  0.50330  Biso   1.000  O
  O49      1.0000 0.40140  0.27520  0.35770  Biso   1.000  O
  O50      1.0000 0.09860  0.22480  0.85770  Biso   1.000  O
  O51      1.0000 0.59860  0.27520  0.14230  Biso   1.000  O
  O52      1.0000 0.90140  0.22480  0.64230  Biso   1.000  O
  O53      1.0000 0.59860  0.72480  0.64230  Biso   1.000  O
  O54      1.0000 0.90140  0.77520  0.14230  Biso   1.000  O
  O55      1.0000 0.40140  0.72480  0.85770  Biso   1.000  O
  O56      1.0000 0.09860  0.77520  0.35770  Biso   1.000  O
  O57      1.0000 0.50880  0.14530  0.53370  Biso   1.000  O
  O58      1.0000 0.99120  0.35470  0.03370  Biso   1.000  O
  O59      1.0000 0.49120  0.14530  0.96630  Biso   1.000  O
  O60      1.0000 0.00880  0.35470  0.46630  Biso   1.000  O
  O61      1.0000 0.49120  0.85470  0.46630  Biso   1.000  O
  O62      1.0000 0.00880  0.64530  0.96630  Biso   1.000  O
  O63      1.0000 0.50880  0.85470  0.03370  Biso   1.000  O
  O64      1.0000 0.99120  0.64530  0.53370  Biso   1.000  O
  O65      1.0000 0.50400  0.37690  0.37290  Biso   1.000  O
  O66      1.0000 0.99600  0.12310  0.87290  Biso   1.000  O
  O67      1.0000 0.49600  0.37690  0.12710  Biso   1.000  O
  O68      1.0000 0.00400  0.12310  0.62710  Biso   1.000  O
  O69      1.0000 0.49600  0.62310  0.62710  Biso   1.000  O
  O70      1.0000 0.00400  0.87690  0.12710  Biso   1.000  O
  O71      1.0000 0.50400  0.62310  0.87290  Biso   1.000  O
  O72      1.0000 0.99600  0.87690  0.37290  Biso   1.000  O
  O73      1.0000 0.60560  0.36810  0.67530  Biso   1.000  O
  O74      1.0000 0.89440  0.13190  0.17530  Biso   1.000  O
  O75      1.0000 0.39440  0.36810  0.82470  Biso   1.000  O
  O76      1.0000 0.10560  0.13190  0.32470  Biso   1.000  O
  O77      1.0000 0.39440  0.63190  0.32470  Biso   1.000  O
  O78      1.0000 0.10560  0.86810  0.82470  Biso   1.000  O
  O79      1.0000 0.60560  0.63190  0.17530  Biso   1.000  O
  O80      1.0000 0.89440  0.86810  0.67530  Biso   1.000  O
  O81      1.0000 0.43210  0.29500  0.54810  Biso   1.000  O
  O82      1.0000 0.06790  0.20500  0.04810  Biso   1.000  O
  O83      1.0000 0.56790  0.29500  0.95190  Biso   1.000  O
  O84      1.0000 0.93210  0.20500  0.45190  Biso   1.000  O
  O85      1.0000 0.56790  0.70500  0.45190  Biso   1.000  O
  O86      1.0000 0.93210  0.79500  0.95190  Biso   1.000  O
  O87      1.0000 0.43210  0.70500  0.04810  Biso   1.000  O
  O88      1.0000 0.06790  0.79500  0.54810  Biso   1.000  O
  O89      1.0000 0.37870  0.35450  0.46000  Biso   1.000  O
  O90      1.0000 0.12130  0.14550  0.96000  Biso   1.000  O
  O91      1.0000 0.62130  0.35450  0.04000  Biso   1.000  O
  O92      1.0000 0.87870  0.14550  0.54000  Biso   1.000  O
  O93      1.0000 0.62130  0.64550  0.54000  Biso   1.000  O
  O94      1.0000 0.87870  0.85450  0.04000  Biso   1.000  O
  O95      1.0000 0.37870  0.64550  0.96000  Biso   1.000  O
  O96      1.0000 0.12130  0.85450  0.46000  Biso   1.000  O
  O97      1.0000 0.69420  0.32700  0.47370  Biso   1.000  O
  O98      1.0000 0.80580  0.17300  0.97370  Biso   1.000  O
  O99      1.0000 0.30580  0.32700  0.02630  Biso   1.000  O
  O100     1.0000 0.19420  0.17300  0.52630  Biso   1.000  O
  O101     1.0000 0.30580  0.67300  0.52630  Biso   1.000  O
  O102     1.0000 0.19420  0.82700  0.02630  Biso   1.000  O
  O103     1.0000 0.69420  0.67300  0.97370  Biso   1.000  O
  O104     1.0000 0.80580  0.82700  0.47370  Biso   1.000  O
  O105     1.0000 0.58850  0.46080  0.29860  Biso   1.000  O
  O106     1.0000 0.91150  0.03920  0.79860  Biso   1.000  O
  O107     1.0000 0.41150  0.46080  0.20140  Biso   1.000  O
  O108     1.0000 0.08850  0.03920  0.70140  Biso   1.000  O
  O109     1.0000 0.41150  0.53920  0.70140  Biso   1.000  O
  O110     1.0000 0.08850  0.96080  0.20140  Biso   1.000  O
  O111     1.0000 0.58850  0.53920  0.79860  Biso   1.000  O
  O112     1.0000 0.91150  0.96080  0.29860  Biso   1.000  O
  O113     1.0000 0.40280  0.46300  0.37580  Biso   1.000  O
  O114     1.0000 0.09720  0.03700  0.87580  Biso   1.000  O
  O115     1.0000 0.59720  0.46300  0.12420  Biso   1.000  O
  O116     1.0000 0.90280  0.03700  0.62420  Biso   1.000  O
  O117     1.0000 0.59720  0.53700  0.62420  Biso   1.000  O
  O118     1.0000 0.90280  0.96300  0.12420  Biso   1.000  O
  O119     1.0000 0.40280  0.53700  0.87580  Biso   1.000  O
  O120     1.0000 0.09720  0.96300  0.37580  Biso   1.000  O
  O121     1.0000 0.31410  0.32610  0.55580  Biso   1.000  O
  O122     1.0000 0.18590  0.17390  0.05580  Biso   1.000  O
  O123     1.0000 0.68590  0.32610  0.94420  Biso   1.000  O
  O124     1.0000 0.81410  0.17390  0.44420  Biso   1.000  O
  O125     1.0000 0.68590  0.67390  0.44420  Biso   1.000  O
  O126     1.0000 0.81410  0.82610  0.94420  Biso   1.000  O
  O127     1.0000 0.31410  0.67390  0.05580  Biso   1.000  O
  O128     1.0000 0.18590  0.82610  0.55580  Biso   1.000  O
  O129     1.0000 0.34400  0.49600  0.52110  Biso   1.000  O
  O130     1.0000 0.15600  0.00400  0.02110  Biso   1.000  O
  O131     1.0000 0.65600  0.49600  0.97890  Biso   1.000  O
  O132     1.0000 0.84400  0.00400  0.47890  Biso   1.000  O
  O133     1.0000 0.65600  0.50400  0.47890  Biso   1.000  O
  O134     1.0000 0.84400  0.99600  0.97890  Biso   1.000  O
  O135     1.0000 0.34400  0.50400  0.02110  Biso   1.000  O
  O136     1.0000 0.15600  0.99600  0.52110  Biso   1.000  O
  O137     1.0000 0.60660  0.39220  0.40630  Biso   1.000  O
  O138     1.0000 0.89340  0.10780  0.90630  Biso   1.000  O
  O139     1.0000 0.39340  0.39220  0.09370  Biso   1.000  O
  O140     1.0000 0.10660  0.10780  0.59370  Biso   1.000  O
  O141     1.0000 0.39340  0.60780  0.59370  Biso   1.000  O
  O142     1.0000 0.10660  0.89220  0.09370  Biso   1.000  O
  O143     1.0000 0.60660  0.60780  0.90630  Biso   1.000  O
  O144     1.0000 0.89340  0.89220  0.40630  Biso   1.000  O
  O145     1.0000 0.47670  0.26800  0.44980  Biso   1.000  O
  O146     1.0000 0.02330  0.23200  0.94980  Biso   1.000  O
  O147     1.0000 0.52330  0.26800  0.05020  Biso   1.000  O
  O148     1.0000 0.97670  0.23200  0.55020  Biso   1.000  O
  O149     1.0000 0.52330  0.73200  0.55020  Biso   1.000  O
  O150     1.0000 0.97670  0.76800  0.05020  Biso   1.000  O
  O151     1.0000 0.47670  0.73200  0.94980  Biso   1.000  O
  O152     1.0000 0.02330  0.76800  0.44980  Biso   1.000  O
  O153     1.0000 0.39410  0.43000  0.60940  Biso   1.000  O
  O154     1.0000 0.10590  0.07000  0.10940  Biso   1.000  O
  O155     1.0000 0.60590  0.43000  0.89060  Biso   1.000  O
  O156     1.0000 0.89410  0.07000  0.39060  Biso   1.000  O
  O157     1.0000 0.60590  0.57000  0.39060  Biso   1.000  O
  O158     1.0000 0.89410  0.93000  0.89060  Biso   1.000  O
  O159     1.0000 0.39410  0.57000  0.10940  Biso   1.000  O
  O160     1.0000 0.10590  0.93000  0.60940  Biso   1.000  O
  O161     1.0000 0.58600  0.26900  0.49270  Biso   1.000  O
  O162     1.0000 0.91400  0.23100  0.99270  Biso   1.000  O
  O163     1.0000 0.41400  0.26900  0.00730  Biso   1.000  O
  O164     1.0000 0.08600  0.23100  0.50730  Biso   1.000  O
  O165     1.0000 0.41400  0.73100  0.50730  Biso   1.000  O
  O166     1.0000 0.08600  0.76900  0.00730  Biso   1.000  O
  O167     1.0000 0.58600  0.73100  0.99270  Biso   1.000  O
  O168     1.0000 0.91400  0.76900  0.49270  Biso   1.000  O
  O169     1.0000 0.53540  0.30600  0.59170  Biso   1.000  O
  O170     1.0000 0.96460  0.19400  0.09170  Biso   1.000  O
  O171     1.0000 0.46460  0.30600  0.90830  Biso   1.000  O
  O172     1.0000 0.03540  0.19400  0.40830  Biso   1.000  O
  O173     1.0000 0.46460  0.69400  0.40830  Biso   1.000  O
  O174     1.0000 0.03540  0.80600  0.90830  Biso   1.000  O
  O175     1.0000 0.53540  0.69400  0.09170  Biso   1.000  O
  O176     1.0000 0.96460  0.80600  0.59170  Biso   1.000  O
  O177     1.0000 0.63090  0.39000  0.56180  Biso   1.000  O
  O178     1.0000 0.86910  0.11000  0.06180  Biso   1.000  O
  O179     1.0000 0.36910  0.39000  0.93820  Biso   1.000  O
  O180     1.0000 0.13090  0.11000  0.43820  Biso   1.000  O
  O181     1.0000 0.36910  0.61000  0.43820  Biso   1.000  O
  O182     1.0000 0.13090  0.89000  0.93820  Biso   1.000  O
  O183     1.0000 0.63090  0.61000  0.06180  Biso   1.000  O
  O184     1.0000 0.86910  0.89000  0.56180  Biso   1.000  O
  O185     1.0000 0.50100  0.44800  0.65590  Biso   1.000  O
  O186     1.0000 0.99900  0.05200  0.15590  Biso   1.000  O
  O187     1.0000 0.49900  0.44800  0.84410  Biso   1.000  O
  O188     1.0000 0.00100  0.05200  0.34410  Biso   1.000  O
  O189     1.0000 0.49900  0.55200  0.34410  Biso   1.000  O
  O190     1.0000 0.00100  0.94800  0.84410  Biso   1.000  O
  O191     1.0000 0.50100  0.55200  0.15590  Biso   1.000  O
  O192     1.0000 0.99900  0.94800  0.65590  Biso   1.000  O
