data_image0
_cell_length_a       33.175
_cell_length_b       33.175
_cell_length_c       33.175
_cell_angle_alpha    90
_cell_angle_beta     90
_cell_angle_gamma    90

_symmetry_space_group_name_H-M    "P 1"
_symmetry_int_tables_number       1

loop_
  _symmetry_equiv_pos_as_xyz
  'x, y, z'

loop_
  _atom_site_label
  _atom_site_occupancy
  _atom_site_fract_x
  _atom_site_fract_y
  _atom_site_fract_z
  _atom_site_thermal_displace_type
  _atom_site_B_iso_or_equiv
  _atom_site_type_symbol
  C1       1.0000 0.21666  0.18715  0.24634  Biso   1.000  C
  C2       1.0000 0.78334  0.81285  0.24634  Biso   1.000  C
  C3       1.0000 0.78334  0.18715  0.75366  Biso   1.000  C
  C4       1.0000 0.21666  0.81285  0.75366  Biso   1.000  C
  C5       1.0000 0.24634  0.21666  0.18715  Biso   1.000  C
  C6       1.0000 0.24634  0.78334  0.81285  Biso   1.000  C
  C7       1.0000 0.75366  0.78334  0.18715  Biso   1.000  C
  C8       1.0000 0.75366  0.21666  0.81285  Biso   1.000  C
  C9       1.0000 0.18715  0.24634  0.21666  Biso   1.000  C
  C10      1.0000 0.81285  0.24634  0.78334  Biso   1.000  C
  C11      1.0000 0.18715  0.75366  0.78334  Biso   1.000  C
  C12      1.0000 0.81285  0.75366  0.21666  Biso   1.000  C
  C13      1.0000 0.71666  0.68715  0.74634  Biso   1.000  C
  C14      1.0000 0.28334  0.31285  0.74634  Biso   1.000  C
  C15      1.0000 0.28334  0.68715  0.25366  Biso   1.000  C
  C16      1.0000 0.71666  0.31285  0.25366  Biso   1.000  C
  C17      1.0000 0.74634  0.71666  0.68715  Biso   1.000  C
  C18      1.0000 0.74634  0.28334  0.31285  Biso   1.000  C
  C19      1.0000 0.25366  0.28334  0.68715  Biso   1.000  C
  C20      1.0000 0.25366  0.71666  0.31285  Biso   1.000  C
  C21      1.0000 0.68715  0.74634  0.71666  Biso   1.000  C
  C22      1.0000 0.31285  0.74634  0.28334  Biso   1.000  C
  C23      1.0000 0.68715  0.25366  0.28334  Biso   1.000  C
  C24      1.0000 0.31285  0.25366  0.71666  Biso   1.000  C
  C25      1.0000 0.78334  0.81285  0.75366  Biso   1.000  C
  C26      1.0000 0.21666  0.18715  0.75366  Biso   1.000  C
  C27      1.0000 0.21666  0.81285  0.24634  Biso   1.000  C
  C28      1.0000 0.78334  0.18715  0.24634  Biso   1.000  C
  C29      1.0000 0.75366  0.78334  0.81285  Biso   1.000  C
  C30      1.0000 0.75366  0.21666  0.18715  Biso   1.000  C
  C31      1.0000 0.24634  0.21666  0.81285  Biso   1.000  C
  C32      1.0000 0.24634  0.78334  0.18715  Biso   1.000  C
  C33      1.0000 0.81285  0.75366  0.78334  Biso   1.000  C
  C34      1.0000 0.18715  0.75366  0.21666  Biso   1.000  C
  C35      1.0000 0.81285  0.24634  0.21666  Biso   1.000  C
  C36      1.0000 0.18715  0.24634  0.78334  Biso   1.000  C
  C37      1.0000 0.28334  0.31285  0.25366  Biso   1.000  C
  C38      1.0000 0.71666  0.68715  0.25366  Biso   1.000  C
  C39      1.0000 0.71666  0.31285  0.74634  Biso   1.000  C
  C40      1.0000 0.28334  0.68715  0.74634  Biso   1.000  C
  C41      1.0000 0.25366  0.28334  0.31285  Biso   1.000  C
  C42      1.0000 0.25366  0.71666  0.68715  Biso   1.000  C
  C43      1.0000 0.74634  0.71666  0.31285  Biso   1.000  C
  C44      1.0000 0.74634  0.28334  0.68715  Biso   1.000  C
  C45      1.0000 0.31285  0.25366  0.28334  Biso   1.000  C
  C46      1.0000 0.68715  0.25366  0.71666  Biso   1.000  C
  C47      1.0000 0.31285  0.74634  0.71666  Biso   1.000  C
  C48      1.0000 0.68715  0.74634  0.28334  Biso   1.000  C
  C49      1.0000 0.18732  0.21697  0.24666  Biso   1.000  C
  C50      1.0000 0.81268  0.78303  0.24666  Biso   1.000  C
  C51      1.0000 0.81268  0.21697  0.75334  Biso   1.000  C
  C52      1.0000 0.18732  0.78303  0.75334  Biso   1.000  C
  C53      1.0000 0.24666  0.18732  0.21697  Biso   1.000  C
  C54      1.0000 0.24666  0.81268  0.78303  Biso   1.000  C
  C55      1.0000 0.75334  0.81268  0.21697  Biso   1.000  C
  C56      1.0000 0.75334  0.18732  0.78303  Biso   1.000  C
  C57      1.0000 0.21697  0.24666  0.18732  Biso   1.000  C
  C58      1.0000 0.78303  0.24666  0.81268  Biso   1.000  C
  C59      1.0000 0.21697  0.75334  0.81268  Biso   1.000  C
  C60      1.0000 0.78303  0.75334  0.18732  Biso   1.000  C
  C61      1.0000 0.68732  0.71697  0.74666  Biso   1.000  C
  C62      1.0000 0.31268  0.28303  0.74666  Biso   1.000  C
  C63      1.0000 0.31268  0.71697  0.25334  Biso   1.000  C
  C64      1.0000 0.68732  0.28303  0.25334  Biso   1.000  C
  C65      1.0000 0.74666  0.68732  0.71697  Biso   1.000  C
  C66      1.0000 0.74666  0.31268  0.28303  Biso   1.000  C
  C67      1.0000 0.25334  0.31268  0.71697  Biso   1.000  C
  C68      1.0000 0.25334  0.68732  0.28303  Biso   1.000  C
  C69      1.0000 0.71697  0.74666  0.68732  Biso   1.000  C
  C70      1.0000 0.28303  0.74666  0.31268  Biso   1.000  C
  C71      1.0000 0.71697  0.25334  0.31268  Biso   1.000  C
  C72      1.0000 0.28303  0.25334  0.68732  Biso   1.000  C
  C73      1.0000 0.81268  0.78303  0.75334  Biso   1.000  C
  C74      1.0000 0.18732  0.21697  0.75334  Biso   1.000  C
  C75      1.0000 0.18732  0.78303  0.24666  Biso   1.000  C
  C76      1.0000 0.81268  0.21697  0.24666  Biso   1.000  C
  C77      1.0000 0.75334  0.81268  0.78303  Biso   1.000  C
  C78      1.0000 0.75334  0.18732  0.21697  Biso   1.000  C
  C79      1.0000 0.24666  0.18732  0.78303  Biso   1.000  C
  C80      1.0000 0.24666  0.81268  0.21697  Biso   1.000  C
  C81      1.0000 0.78303  0.75334  0.81268  Biso   1.000  C
  C82      1.0000 0.21697  0.75334  0.18732  Biso   1.000  C
  C83      1.0000 0.78303  0.24666  0.18732  Biso   1.000  C
  C84      1.0000 0.21697  0.24666  0.81268  Biso   1.000  C
  C85      1.0000 0.31268  0.28303  0.25334  Biso   1.000  C
  C86      1.0000 0.68732  0.71697  0.25334  Biso   1.000  C
  C87      1.0000 0.68732  0.28303  0.74666  Biso   1.000  C
  C88      1.0000 0.31268  0.71697  0.74666  Biso   1.000  C
  C89      1.0000 0.25334  0.31268  0.28303  Biso   1.000  C
  C90      1.0000 0.25334  0.68732  0.71697  Biso   1.000  C
  C91      1.0000 0.74666  0.68732  0.28303  Biso   1.000  C
  C92      1.0000 0.74666  0.31268  0.71697  Biso   1.000  C
  C93      1.0000 0.28303  0.25334  0.31268  Biso   1.000  C
  C94      1.0000 0.71697  0.25334  0.68732  Biso   1.000  C
  C95      1.0000 0.28303  0.74666  0.68732  Biso   1.000  C
  C96      1.0000 0.71697  0.74666  0.31268  Biso   1.000  C
  H1       1.0000 0.16880  0.21690  0.26870  Biso   1.000  H
  H2       1.0000 0.83120  0.78310  0.26870  Biso   1.000  H
  H3       1.0000 0.83120  0.21690  0.73130  Biso   1.000  H
  H4       1.0000 0.16880  0.78310  0.73130  Biso   1.000  H
  H5       1.0000 0.26870  0.16880  0.21690  Biso   1.000  H
  H6       1.0000 0.26870  0.83120  0.78310  Biso   1.000  H
  H7       1.0000 0.73130  0.83120  0.21690  Biso   1.000  H
  H8       1.0000 0.73130  0.16880  0.78310  Biso   1.000  H
  H9       1.0000 0.21690  0.26870  0.16880  Biso   1.000  H
  H10      1.0000 0.78310  0.26870  0.83120  Biso   1.000  H
  H11      1.0000 0.21690  0.73130  0.83120  Biso   1.000  H
  H12      1.0000 0.78310  0.73130  0.16880  Biso   1.000  H
  H13      1.0000 0.66880  0.71690  0.76870  Biso   1.000  H
  H14      1.0000 0.33120  0.28310  0.76870  Biso   1.000  H
  H15      1.0000 0.33120  0.71690  0.23130  Biso   1.000  H
  H16      1.0000 0.66880  0.28310  0.23130  Biso   1.000  H
  H17      1.0000 0.76870  0.66880  0.71690  Biso   1.000  H
  H18      1.0000 0.76870  0.33120  0.28310  Biso   1.000  H
  H19      1.0000 0.23130  0.33120  0.71690  Biso   1.000  H
  H20      1.0000 0.23130  0.66880  0.28310  Biso   1.000  H
  H21      1.0000 0.71690  0.76870  0.66880  Biso   1.000  H
  H22      1.0000 0.28310  0.76870  0.33120  Biso   1.000  H
  H23      1.0000 0.71690  0.23130  0.33120  Biso   1.000  H
  H24      1.0000 0.28310  0.23130  0.66880  Biso   1.000  H
  H25      1.0000 0.83120  0.78310  0.73130  Biso   1.000  H
  H26      1.0000 0.16880  0.21690  0.73130  Biso   1.000  H
  H27      1.0000 0.16880  0.78310  0.26870  Biso   1.000  H
  H28      1.0000 0.83120  0.21690  0.26870  Biso   1.000  H
  H29      1.0000 0.73130  0.83120  0.78310  Biso   1.000  H
  H30      1.0000 0.73130  0.16880  0.21690  Biso   1.000  H
  H31      1.0000 0.26870  0.16880  0.78310  Biso   1.000  H
  H32      1.0000 0.26870  0.83120  0.21690  Biso   1.000  H
  H33      1.0000 0.78310  0.73130  0.83120  Biso   1.000  H
  H34      1.0000 0.21690  0.73130  0.16880  Biso   1.000  H
  H35      1.0000 0.78310  0.26870  0.16880  Biso   1.000  H
  H36      1.0000 0.21690  0.26870  0.83120  Biso   1.000  H
  H37      1.0000 0.33120  0.28310  0.23130  Biso   1.000  H
  H38      1.0000 0.66880  0.71690  0.23130  Biso   1.000  H
  H39      1.0000 0.66880  0.28310  0.76870  Biso   1.000  H
  H40      1.0000 0.33120  0.71690  0.76870  Biso   1.000  H
  H41      1.0000 0.23130  0.33120  0.28310  Biso   1.000  H
  H42      1.0000 0.23130  0.66880  0.71690  Biso   1.000  H
  H43      1.0000 0.76870  0.66880  0.28310  Biso   1.000  H
  H44      1.0000 0.76870  0.33120  0.71690  Biso   1.000  H
  H45      1.0000 0.28310  0.23130  0.33120  Biso   1.000  H
  H46      1.0000 0.71690  0.23130  0.66880  Biso   1.000  H
  H47      1.0000 0.28310  0.76870  0.66880  Biso   1.000  H
  H48      1.0000 0.71690  0.76870  0.33120  Biso   1.000  H
  C97      1.0000 0.25060  0.04330  0.43890  Biso   1.000  C
  C98      1.0000 0.74940  0.95670  0.43890  Biso   1.000  C
  C99      1.0000 0.74940  0.04330  0.56110  Biso   1.000  C
  C100     1.0000 0.25060  0.95670  0.56110  Biso   1.000  C
  C101     1.0000 0.43890  0.25060  0.04330  Biso   1.000  C
  C102     1.0000 0.43890  0.74940  0.95670  Biso   1.000  C
  C103     1.0000 0.56110  0.74940  0.04330  Biso   1.000  C
  C104     1.0000 0.56110  0.25060  0.95670  Biso   1.000  C
  C105     1.0000 0.04330  0.43890  0.25060  Biso   1.000  C
  C106     1.0000 0.95670  0.43890  0.74940  Biso   1.000  C
  C107     1.0000 0.04330  0.56110  0.74940  Biso   1.000  C
  C108     1.0000 0.95670  0.56110  0.25060  Biso   1.000  C
  C109     1.0000 0.75060  0.54330  0.93890  Biso   1.000  C
  C110     1.0000 0.24940  0.45670  0.93890  Biso   1.000  C
  C111     1.0000 0.24940  0.54330  0.06110  Biso   1.000  C
  C112     1.0000 0.75060  0.45670  0.06110  Biso   1.000  C
  C113     1.0000 0.93890  0.75060  0.54330  Biso   1.000  C
  C114     1.0000 0.93890  0.24940  0.45670  Biso   1.000  C
  C115     1.0000 0.06110  0.24940  0.54330  Biso   1.000  C
  C116     1.0000 0.06110  0.75060  0.45670  Biso   1.000  C
  C117     1.0000 0.54330  0.93890  0.75060  Biso   1.000  C
  C118     1.0000 0.45670  0.93890  0.24940  Biso   1.000  C
  C119     1.0000 0.54330  0.06110  0.24940  Biso   1.000  C
  C120     1.0000 0.45670  0.06110  0.75060  Biso   1.000  C
  C121     1.0000 0.74940  0.95670  0.56110  Biso   1.000  C
  C122     1.0000 0.25060  0.04330  0.56110  Biso   1.000  C
  C123     1.0000 0.25060  0.95670  0.43890  Biso   1.000  C
  C124     1.0000 0.74940  0.04330  0.43890  Biso   1.000  C
  C125     1.0000 0.56110  0.74940  0.95670  Biso   1.000  C
  C126     1.0000 0.56110  0.25060  0.04330  Biso   1.000  C
  C127     1.0000 0.43890  0.25060  0.95670  Biso   1.000  C
  C128     1.0000 0.43890  0.74940  0.04330  Biso   1.000  C
  C129     1.0000 0.95670  0.56110  0.74940  Biso   1.000  C
  C130     1.0000 0.04330  0.56110  0.25060  Biso   1.000  C
  C131     1.0000 0.95670  0.43890  0.25060  Biso   1.000  C
  C132     1.0000 0.04330  0.43890  0.74940  Biso   1.000  C
  C133     1.0000 0.24940  0.45670  0.06110  Biso   1.000  C
  C134     1.0000 0.75060  0.54330  0.06110  Biso   1.000  C
  C135     1.0000 0.75060  0.45670  0.93890  Biso   1.000  C
  C136     1.0000 0.24940  0.54330  0.93890  Biso   1.000  C
  C137     1.0000 0.06110  0.24940  0.45670  Biso   1.000  C
  C138     1.0000 0.06110  0.75060  0.54330  Biso   1.000  C
  C139     1.0000 0.93890  0.75060  0.45670  Biso   1.000  C
  C140     1.0000 0.93890  0.24940  0.54330  Biso   1.000  C
  C141     1.0000 0.45670  0.06110  0.24940  Biso   1.000  C
  C142     1.0000 0.54330  0.06110  0.75060  Biso   1.000  C
  C143     1.0000 0.45670  0.93890  0.75060  Biso   1.000  C
  C144     1.0000 0.54330  0.93890  0.24940  Biso   1.000  C
  C145     1.0000 0.25050  0.06950  0.40000  Biso   1.000  C
  C146     1.0000 0.74950  0.93050  0.40000  Biso   1.000  C
  C147     1.0000 0.74950  0.06950  0.60000  Biso   1.000  C
  C148     1.0000 0.25050  0.93050  0.60000  Biso   1.000  C
  C149     1.0000 0.40000  0.25050  0.06950  Biso   1.000  C
  C150     1.0000 0.40000  0.74950  0.93050  Biso   1.000  C
  C151     1.0000 0.60000  0.74950  0.06950  Biso   1.000  C
  C152     1.0000 0.60000  0.25050  0.93050  Biso   1.000  C
  C153     1.0000 0.06950  0.40000  0.25050  Biso   1.000  C
  C154     1.0000 0.93050  0.40000  0.74950  Biso   1.000  C
  C155     1.0000 0.06950  0.60000  0.74950  Biso   1.000  C
  C156     1.0000 0.93050  0.60000  0.25050  Biso   1.000  C
  C157     1.0000 0.75050  0.56950  0.90000  Biso   1.000  C
  C158     1.0000 0.24950  0.43050  0.90000  Biso   1.000  C
  C159     1.0000 0.24950  0.56950  0.10000  Biso   1.000  C
  C160     1.0000 0.75050  0.43050  0.10000  Biso   1.000  C
  C161     1.0000 0.90000  0.75050  0.56950  Biso   1.000  C
  C162     1.0000 0.90000  0.24950  0.43050  Biso   1.000  C
  C163     1.0000 0.10000  0.24950  0.56950  Biso   1.000  C
  C164     1.0000 0.10000  0.75050  0.43050  Biso   1.000  C
  C165     1.0000 0.56950  0.90000  0.75050  Biso   1.000  C
  C166     1.0000 0.43050  0.90000  0.24950  Biso   1.000  C
  C167     1.0000 0.56950  0.10000  0.24950  Biso   1.000  C
  C168     1.0000 0.43050  0.10000  0.75050  Biso   1.000  C
  C169     1.0000 0.74950  0.93050  0.60000  Biso   1.000  C
  C170     1.0000 0.25050  0.06950  0.60000  Biso   1.000  C
  C171     1.0000 0.25050  0.93050  0.40000  Biso   1.000  C
  C172     1.0000 0.74950  0.06950  0.40000  Biso   1.000  C
  C173     1.0000 0.60000  0.74950  0.93050  Biso   1.000  C
  C174     1.0000 0.60000  0.25050  0.06950  Biso   1.000  C
  C175     1.0000 0.40000  0.25050  0.93050  Biso   1.000  C
  C176     1.0000 0.40000  0.74950  0.06950  Biso   1.000  C
  C177     1.0000 0.93050  0.60000  0.74950  Biso   1.000  C
  C178     1.0000 0.06950  0.60000  0.25050  Biso   1.000  C
  C179     1.0000 0.93050  0.40000  0.25050  Biso   1.000  C
  C180     1.0000 0.06950  0.40000  0.74950  Biso   1.000  C
  C181     1.0000 0.24950  0.43050  0.10000  Biso   1.000  C
  C182     1.0000 0.75050  0.56950  0.10000  Biso   1.000  C
  C183     1.0000 0.75050  0.43050  0.90000  Biso   1.000  C
  C184     1.0000 0.24950  0.56950  0.90000  Biso   1.000  C
  C185     1.0000 0.10000  0.24950  0.43050  Biso   1.000  C
  C186     1.0000 0.10000  0.75050  0.56950  Biso   1.000  C
  C187     1.0000 0.90000  0.75050  0.43050  Biso   1.000  C
  C188     1.0000 0.90000  0.24950  0.56950  Biso   1.000  C
  C189     1.0000 0.43050  0.10000  0.24950  Biso   1.000  C
  C190     1.0000 0.56950  0.10000  0.75050  Biso   1.000  C
  C191     1.0000 0.43050  0.90000  0.75050  Biso   1.000  C
  C192     1.0000 0.56950  0.90000  0.24950  Biso   1.000  C
  C193     1.0000 0.28780  0.08140  0.38270  Biso   1.000  C
  C194     1.0000 0.71220  0.91860  0.38270  Biso   1.000  C
  C195     1.0000 0.71220  0.08140  0.61730  Biso   1.000  C
  C196     1.0000 0.28780  0.91860  0.61730  Biso   1.000  C
  C197     1.0000 0.38270  0.28780  0.08140  Biso   1.000  C
  C198     1.0000 0.38270  0.71220  0.91860  Biso   1.000  C
  C199     1.0000 0.61730  0.71220  0.08140  Biso   1.000  C
  C200     1.0000 0.61730  0.28780  0.91860  Biso   1.000  C
  C201     1.0000 0.08140  0.38270  0.28780  Biso   1.000  C
  C202     1.0000 0.91860  0.38270  0.71220  Biso   1.000  C
  C203     1.0000 0.08140  0.61730  0.71220  Biso   1.000  C
  C204     1.0000 0.91860  0.61730  0.28780  Biso   1.000  C
  C205     1.0000 0.78780  0.58140  0.88270  Biso   1.000  C
  C206     1.0000 0.21220  0.41860  0.88270  Biso   1.000  C
  C207     1.0000 0.21220  0.58140  0.11730  Biso   1.000  C
  C208     1.0000 0.78780  0.41860  0.11730  Biso   1.000  C
  C209     1.0000 0.88270  0.78780  0.58140  Biso   1.000  C
  C210     1.0000 0.88270  0.21220  0.41860  Biso   1.000  C
  C211     1.0000 0.11730  0.21220  0.58140  Biso   1.000  C
  C212     1.0000 0.11730  0.78780  0.41860  Biso   1.000  C
  C213     1.0000 0.58140  0.88270  0.78780  Biso   1.000  C
  C214     1.0000 0.41860  0.88270  0.21220  Biso   1.000  C
  C215     1.0000 0.58140  0.11730  0.21220  Biso   1.000  C
  C216     1.0000 0.41860  0.11730  0.78780  Biso   1.000  C
  C217     1.0000 0.71220  0.91860  0.61730  Biso   1.000  C
  C218     1.0000 0.28780  0.08140  0.61730  Biso   1.000  C
  C219     1.0000 0.28780  0.91860  0.38270  Biso   1.000  C
  C220     1.0000 0.71220  0.08140  0.38270  Biso   1.000  C
  C221     1.0000 0.61730  0.71220  0.91860  Biso   1.000  C
  C222     1.0000 0.61730  0.28780  0.08140  Biso   1.000  C
  C223     1.0000 0.38270  0.28780  0.91860  Biso   1.000  C
  C224     1.0000 0.38270  0.71220  0.08140  Biso   1.000  C
  C225     1.0000 0.91860  0.61730  0.71220  Biso   1.000  C
  C226     1.0000 0.08140  0.61730  0.28780  Biso   1.000  C
  C227     1.0000 0.91860  0.38270  0.28780  Biso   1.000  C
  C228     1.0000 0.08140  0.38270  0.71220  Biso   1.000  C
  C229     1.0000 0.21220  0.41860  0.11730  Biso   1.000  C
  C230     1.0000 0.78780  0.58140  0.11730  Biso   1.000  C
  C231     1.0000 0.78780  0.41860  0.88270  Biso   1.000  C
  C232     1.0000 0.21220  0.58140  0.88270  Biso   1.000  C
  C233     1.0000 0.11730  0.21220  0.41860  Biso   1.000  C
  C234     1.0000 0.11730  0.78780  0.58140  Biso   1.000  C
  C235     1.0000 0.88270  0.78780  0.41860  Biso   1.000  C
  C236     1.0000 0.88270  0.21220  0.58140  Biso   1.000  C
  C237     1.0000 0.41860  0.11730  0.21220  Biso   1.000  C
  C238     1.0000 0.58140  0.11730  0.78780  Biso   1.000  C
  C239     1.0000 0.41860  0.88270  0.78780  Biso   1.000  C
  C240     1.0000 0.58140  0.88270  0.21220  Biso   1.000  C
  H49      1.0000 0.31270  0.07230  0.39420  Biso   1.000  H
  H50      1.0000 0.68730  0.92770  0.39420  Biso   1.000  H
  H51      1.0000 0.68730  0.07230  0.60580  Biso   1.000  H
  H52      1.0000 0.31270  0.92770  0.60580  Biso   1.000  H
  H53      1.0000 0.39420  0.31270  0.07230  Biso   1.000  H
  H54      1.0000 0.39420  0.68730  0.92770  Biso   1.000  H
  H55      1.0000 0.60580  0.68730  0.07230  Biso   1.000  H
  H56      1.0000 0.60580  0.31270  0.92770  Biso   1.000  H
  H57      1.0000 0.07230  0.39420  0.31270  Biso   1.000  H
  H58      1.0000 0.92770  0.39420  0.68730  Biso   1.000  H
  H59      1.0000 0.07230  0.60580  0.68730  Biso   1.000  H
  H60      1.0000 0.92770  0.60580  0.31270  Biso   1.000  H
  H61      1.0000 0.81270  0.57230  0.89420  Biso   1.000  H
  H62      1.0000 0.18730  0.42770  0.89420  Biso   1.000  H
  H63      1.0000 0.18730  0.57230  0.10580  Biso   1.000  H
  H64      1.0000 0.81270  0.42770  0.10580  Biso   1.000  H
  H65      1.0000 0.89420  0.81270  0.57230  Biso   1.000  H
  H66      1.0000 0.89420  0.18730  0.42770  Biso   1.000  H
  H67      1.0000 0.10580  0.18730  0.57230  Biso   1.000  H
  H68      1.0000 0.10580  0.81270  0.42770  Biso   1.000  H
  H69      1.0000 0.57230  0.89420  0.81270  Biso   1.000  H
  H70      1.0000 0.42770  0.89420  0.18730  Biso   1.000  H
  H71      1.0000 0.57230  0.10580  0.18730  Biso   1.000  H
  H72      1.0000 0.42770  0.10580  0.81270  Biso   1.000  H
  H73      1.0000 0.68730  0.92770  0.60580  Biso   1.000  H
  H74      1.0000 0.31270  0.07230  0.60580  Biso   1.000  H
  H75      1.0000 0.31270  0.92770  0.39420  Biso   1.000  H
  H76      1.0000 0.68730  0.07230  0.39420  Biso   1.000  H
  H77      1.0000 0.60580  0.68730  0.92770  Biso   1.000  H
  H78      1.0000 0.60580  0.31270  0.07230  Biso   1.000  H
  H79      1.0000 0.39420  0.31270  0.92770  Biso   1.000  H
  H80      1.0000 0.39420  0.68730  0.07230  Biso   1.000  H
  H81      1.0000 0.92770  0.60580  0.68730  Biso   1.000  H
  H82      1.0000 0.07230  0.60580  0.31270  Biso   1.000  H
  H83      1.0000 0.92770  0.39420  0.31270  Biso   1.000  H
  H84      1.0000 0.07230  0.39420  0.68730  Biso   1.000  H
  H85      1.0000 0.18730  0.42770  0.10580  Biso   1.000  H
  H86      1.0000 0.81270  0.57230  0.10580  Biso   1.000  H
  H87      1.0000 0.81270  0.42770  0.89420  Biso   1.000  H
  H88      1.0000 0.18730  0.57230  0.89420  Biso   1.000  H
  H89      1.0000 0.10580  0.18730  0.42770  Biso   1.000  H
  H90      1.0000 0.10580  0.81270  0.57230  Biso   1.000  H
  H91      1.0000 0.89420  0.81270  0.42770  Biso   1.000  H
  H92      1.0000 0.89420  0.18730  0.57230  Biso   1.000  H
  H93      1.0000 0.42770  0.10580  0.18730  Biso   1.000  H
  H94      1.0000 0.57230  0.10580  0.81270  Biso   1.000  H
  H95      1.0000 0.42770  0.89420  0.81270  Biso   1.000  H
  H96      1.0000 0.57230  0.89420  0.18730  Biso   1.000  H
  C241     1.0000 0.28830  0.10660  0.35020  Biso   1.000  C
  C242     1.0000 0.71170  0.89340  0.35020  Biso   1.000  C
  C243     1.0000 0.71170  0.10660  0.64980  Biso   1.000  C
  C244     1.0000 0.28830  0.89340  0.64980  Biso   1.000  C
  C245     1.0000 0.35020  0.28830  0.10660  Biso   1.000  C
  C246     1.0000 0.35020  0.71170  0.89340  Biso   1.000  C
  C247     1.0000 0.64980  0.71170  0.10660  Biso   1.000  C
  C248     1.0000 0.64980  0.28830  0.89340  Biso   1.000  C
  C249     1.0000 0.10660  0.35020  0.28830  Biso   1.000  C
  C250     1.0000 0.89340  0.35020  0.71170  Biso   1.000  C
  C251     1.0000 0.10660  0.64980  0.71170  Biso   1.000  C
  C252     1.0000 0.89340  0.64980  0.28830  Biso   1.000  C
  C253     1.0000 0.78830  0.60660  0.85020  Biso   1.000  C
  C254     1.0000 0.21170  0.39340  0.85020  Biso   1.000  C
  C255     1.0000 0.21170  0.60660  0.14980  Biso   1.000  C
  C256     1.0000 0.78830  0.39340  0.14980  Biso   1.000  C
  C257     1.0000 0.85020  0.78830  0.60660  Biso   1.000  C
  C258     1.0000 0.85020  0.21170  0.39340  Biso   1.000  C
  C259     1.0000 0.14980  0.21170  0.60660  Biso   1.000  C
  C260     1.0000 0.14980  0.78830  0.39340  Biso   1.000  C
  C261     1.0000 0.60660  0.85020  0.78830  Biso   1.000  C
  C262     1.0000 0.39340  0.85020  0.21170  Biso   1.000  C
  C263     1.0000 0.60660  0.14980  0.21170  Biso   1.000  C
  C264     1.0000 0.39340  0.14980  0.78830  Biso   1.000  C
  C265     1.0000 0.71170  0.89340  0.64980  Biso   1.000  C
  C266     1.0000 0.28830  0.10660  0.64980  Biso   1.000  C
  C267     1.0000 0.28830  0.89340  0.35020  Biso   1.000  C
  C268     1.0000 0.71170  0.10660  0.35020  Biso   1.000  C
  C269     1.0000 0.64980  0.71170  0.89340  Biso   1.000  C
  C270     1.0000 0.64980  0.28830  0.10660  Biso   1.000  C
  C271     1.0000 0.35020  0.28830  0.89340  Biso   1.000  C
  C272     1.0000 0.35020  0.71170  0.10660  Biso   1.000  C
  C273     1.0000 0.89340  0.64980  0.71170  Biso   1.000  C
  C274     1.0000 0.10660  0.64980  0.28830  Biso   1.000  C
  C275     1.0000 0.89340  0.35020  0.28830  Biso   1.000  C
  C276     1.0000 0.10660  0.35020  0.71170  Biso   1.000  C
  C277     1.0000 0.21170  0.39340  0.14980  Biso   1.000  C
  C278     1.0000 0.78830  0.60660  0.14980  Biso   1.000  C
  C279     1.0000 0.78830  0.39340  0.85020  Biso   1.000  C
  C280     1.0000 0.21170  0.60660  0.85020  Biso   1.000  C
  C281     1.0000 0.14980  0.21170  0.39340  Biso   1.000  C
  C282     1.0000 0.14980  0.78830  0.60660  Biso   1.000  C
  C283     1.0000 0.85020  0.78830  0.39340  Biso   1.000  C
  C284     1.0000 0.85020  0.21170  0.60660  Biso   1.000  C
  C285     1.0000 0.39340  0.14980  0.21170  Biso   1.000  C
  C286     1.0000 0.60660  0.14980  0.78830  Biso   1.000  C
  C287     1.0000 0.39340  0.85020  0.78830  Biso   1.000  C
  C288     1.0000 0.60660  0.85020  0.21170  Biso   1.000  C
  H97      1.0000 0.31300  0.11570  0.33980  Biso   1.000  H
  H98      1.0000 0.68700  0.88430  0.33980  Biso   1.000  H
  H99      1.0000 0.68700  0.11570  0.66020  Biso   1.000  H
  H100     1.0000 0.31300  0.88430  0.66020  Biso   1.000  H
  H101     1.0000 0.33980  0.31300  0.11570  Biso   1.000  H
  H102     1.0000 0.33980  0.68700  0.88430  Biso   1.000  H
  H103     1.0000 0.66020  0.68700  0.11570  Biso   1.000  H
  H104     1.0000 0.66020  0.31300  0.88430  Biso   1.000  H
  H105     1.0000 0.11570  0.33980  0.31300  Biso   1.000  H
  H106     1.0000 0.88430  0.33980  0.68700  Biso   1.000  H
  H107     1.0000 0.11570  0.66020  0.68700  Biso   1.000  H
  H108     1.0000 0.88430  0.66020  0.31300  Biso   1.000  H
  H109     1.0000 0.81300  0.61570  0.83980  Biso   1.000  H
  H110     1.0000 0.18700  0.38430  0.83980  Biso   1.000  H
  H111     1.0000 0.18700  0.61570  0.16020  Biso   1.000  H
  H112     1.0000 0.81300  0.38430  0.16020  Biso   1.000  H
  H113     1.0000 0.83980  0.81300  0.61570  Biso   1.000  H
  H114     1.0000 0.83980  0.18700  0.38430  Biso   1.000  H
  H115     1.0000 0.16020  0.18700  0.61570  Biso   1.000  H
  H116     1.0000 0.16020  0.81300  0.38430  Biso   1.000  H
  H117     1.0000 0.61570  0.83980  0.81300  Biso   1.000  H
  H118     1.0000 0.38430  0.83980  0.18700  Biso   1.000  H
  H119     1.0000 0.61570  0.16020  0.18700  Biso   1.000  H
  H120     1.0000 0.38430  0.16020  0.81300  Biso   1.000  H
  H121     1.0000 0.68700  0.88430  0.66020  Biso   1.000  H
  H122     1.0000 0.31300  0.11570  0.66020  Biso   1.000  H
  H123     1.0000 0.31300  0.88430  0.33980  Biso   1.000  H
  H124     1.0000 0.68700  0.11570  0.33980  Biso   1.000  H
  H125     1.0000 0.66020  0.68700  0.88430  Biso   1.000  H
  H126     1.0000 0.66020  0.31300  0.11570  Biso   1.000  H
  H127     1.0000 0.33980  0.31300  0.88430  Biso   1.000  H
  H128     1.0000 0.33980  0.68700  0.11570  Biso   1.000  H
  H129     1.0000 0.88430  0.66020  0.68700  Biso   1.000  H
  H130     1.0000 0.11570  0.66020  0.31300  Biso   1.000  H
  H131     1.0000 0.88430  0.33980  0.31300  Biso   1.000  H
  H132     1.0000 0.11570  0.33980  0.68700  Biso   1.000  H
  H133     1.0000 0.18700  0.38430  0.16020  Biso   1.000  H
  H134     1.0000 0.81300  0.61570  0.16020  Biso   1.000  H
  H135     1.0000 0.81300  0.38430  0.83980  Biso   1.000  H
  H136     1.0000 0.18700  0.61570  0.83980  Biso   1.000  H
  H137     1.0000 0.16020  0.18700  0.38430  Biso   1.000  H
  H138     1.0000 0.16020  0.81300  0.61570  Biso   1.000  H
  H139     1.0000 0.83980  0.81300  0.38430  Biso   1.000  H
  H140     1.0000 0.83980  0.18700  0.61570  Biso   1.000  H
  H141     1.0000 0.38430  0.16020  0.18700  Biso   1.000  H
  H142     1.0000 0.61570  0.16020  0.81300  Biso   1.000  H
  H143     1.0000 0.38430  0.83980  0.81300  Biso   1.000  H
  H144     1.0000 0.61570  0.83980  0.18700  Biso   1.000  H
  C289     1.0000 0.25200  0.11950  0.33180  Biso   1.000  C
  C290     1.0000 0.74800  0.88050  0.33180  Biso   1.000  C
  C291     1.0000 0.74800  0.11950  0.66820  Biso   1.000  C
  C292     1.0000 0.25200  0.88050  0.66820  Biso   1.000  C
  C293     1.0000 0.33180  0.25200  0.11950  Biso   1.000  C
  C294     1.0000 0.33180  0.74800  0.88050  Biso   1.000  C
  C295     1.0000 0.66820  0.74800  0.11950  Biso   1.000  C
  C296     1.0000 0.66820  0.25200  0.88050  Biso   1.000  C
  C297     1.0000 0.11950  0.33180  0.25200  Biso   1.000  C
  C298     1.0000 0.88050  0.33180  0.74800  Biso   1.000  C
  C299     1.0000 0.11950  0.66820  0.74800  Biso   1.000  C
  C300     1.0000 0.88050  0.66820  0.25200  Biso   1.000  C
  C301     1.0000 0.75200  0.61950  0.83180  Biso   1.000  C
  C302     1.0000 0.24800  0.38050  0.83180  Biso   1.000  C
  C303     1.0000 0.24800  0.61950  0.16820  Biso   1.000  C
  C304     1.0000 0.75200  0.38050  0.16820  Biso   1.000  C
  C305     1.0000 0.83180  0.75200  0.61950  Biso   1.000  C
  C306     1.0000 0.83180  0.24800  0.38050  Biso   1.000  C
  C307     1.0000 0.16820  0.24800  0.61950  Biso   1.000  C
  C308     1.0000 0.16820  0.75200  0.38050  Biso   1.000  C
  C309     1.0000 0.61950  0.83180  0.75200  Biso   1.000  C
  C310     1.0000 0.38050  0.83180  0.24800  Biso   1.000  C
  C311     1.0000 0.61950  0.16820  0.24800  Biso   1.000  C
  C312     1.0000 0.38050  0.16820  0.75200  Biso   1.000  C
  C313     1.0000 0.74800  0.88050  0.66820  Biso   1.000  C
  C314     1.0000 0.25200  0.11950  0.66820  Biso   1.000  C
  C315     1.0000 0.25200  0.88050  0.33180  Biso   1.000  C
  C316     1.0000 0.74800  0.11950  0.33180  Biso   1.000  C
  C317     1.0000 0.66820  0.74800  0.88050  Biso   1.000  C
  C318     1.0000 0.66820  0.25200  0.11950  Biso   1.000  C
  C319     1.0000 0.33180  0.25200  0.88050  Biso   1.000  C
  C320     1.0000 0.33180  0.74800  0.11950  Biso   1.000  C
  C321     1.0000 0.88050  0.66820  0.74800  Biso   1.000  C
  C322     1.0000 0.11950  0.66820  0.25200  Biso   1.000  C
  C323     1.0000 0.88050  0.33180  0.25200  Biso   1.000  C
  C324     1.0000 0.11950  0.33180  0.74800  Biso   1.000  C
  C325     1.0000 0.24800  0.38050  0.16820  Biso   1.000  C
  C326     1.0000 0.75200  0.61950  0.16820  Biso   1.000  C
  C327     1.0000 0.75200  0.38050  0.83180  Biso   1.000  C
  C328     1.0000 0.24800  0.61950  0.83180  Biso   1.000  C
  C329     1.0000 0.16820  0.24800  0.38050  Biso   1.000  C
  C330     1.0000 0.16820  0.75200  0.61950  Biso   1.000  C
  C331     1.0000 0.83180  0.75200  0.38050  Biso   1.000  C
  C332     1.0000 0.83180  0.24800  0.61950  Biso   1.000  C
  C333     1.0000 0.38050  0.16820  0.24800  Biso   1.000  C
  C334     1.0000 0.61950  0.16820  0.75200  Biso   1.000  C
  C335     1.0000 0.38050  0.83180  0.75200  Biso   1.000  C
  C336     1.0000 0.61950  0.83180  0.24800  Biso   1.000  C
  C337     1.0000 0.25050  0.14500  0.29840  Biso   1.000  C
  C338     1.0000 0.74950  0.85500  0.29840  Biso   1.000  C
  C339     1.0000 0.74950  0.14500  0.70160  Biso   1.000  C
  C340     1.0000 0.25050  0.85500  0.70160  Biso   1.000  C
  C341     1.0000 0.29840  0.25050  0.14500  Biso   1.000  C
  C342     1.0000 0.29840  0.74950  0.85500  Biso   1.000  C
  C343     1.0000 0.70160  0.74950  0.14500  Biso   1.000  C
  C344     1.0000 0.70160  0.25050  0.85500  Biso   1.000  C
  C345     1.0000 0.14500  0.29840  0.25050  Biso   1.000  C
  C346     1.0000 0.85500  0.29840  0.74950  Biso   1.000  C
  C347     1.0000 0.14500  0.70160  0.74950  Biso   1.000  C
  C348     1.0000 0.85500  0.70160  0.25050  Biso   1.000  C
  C349     1.0000 0.75050  0.64500  0.79840  Biso   1.000  C
  C350     1.0000 0.24950  0.35500  0.79840  Biso   1.000  C
  C351     1.0000 0.24950  0.64500  0.20160  Biso   1.000  C
  C352     1.0000 0.75050  0.35500  0.20160  Biso   1.000  C
  C353     1.0000 0.79840  0.75050  0.64500  Biso   1.000  C
  C354     1.0000 0.79840  0.24950  0.35500  Biso   1.000  C
  C355     1.0000 0.20160  0.24950  0.64500  Biso   1.000  C
  C356     1.0000 0.20160  0.75050  0.35500  Biso   1.000  C
  C357     1.0000 0.64500  0.79840  0.75050  Biso   1.000  C
  C358     1.0000 0.35500  0.79840  0.24950  Biso   1.000  C
  C359     1.0000 0.64500  0.20160  0.24950  Biso   1.000  C
  C360     1.0000 0.35500  0.20160  0.75050  Biso   1.000  C
  C361     1.0000 0.74950  0.85500  0.70160  Biso   1.000  C
  C362     1.0000 0.25050  0.14500  0.70160  Biso   1.000  C
  C363     1.0000 0.25050  0.85500  0.29840  Biso   1.000  C
  C364     1.0000 0.74950  0.14500  0.29840  Biso   1.000  C
  C365     1.0000 0.70160  0.74950  0.85500  Biso   1.000  C
  C366     1.0000 0.70160  0.25050  0.14500  Biso   1.000  C
  C367     1.0000 0.29840  0.25050  0.85500  Biso   1.000  C
  C368     1.0000 0.29840  0.74950  0.14500  Biso   1.000  C
  C369     1.0000 0.85500  0.70160  0.74950  Biso   1.000  C
  C370     1.0000 0.14500  0.70160  0.25050  Biso   1.000  C
  C371     1.0000 0.85500  0.29840  0.25050  Biso   1.000  C
  C372     1.0000 0.14500  0.29840  0.74950  Biso   1.000  C
  C373     1.0000 0.24950  0.35500  0.20160  Biso   1.000  C
  C374     1.0000 0.75050  0.64500  0.20160  Biso   1.000  C
  C375     1.0000 0.75050  0.35500  0.79840  Biso   1.000  C
  C376     1.0000 0.24950  0.64500  0.79840  Biso   1.000  C
  C377     1.0000 0.20160  0.24950  0.35500  Biso   1.000  C
  C378     1.0000 0.20160  0.75050  0.64500  Biso   1.000  C
  C379     1.0000 0.79840  0.75050  0.35500  Biso   1.000  C
  C380     1.0000 0.79840  0.24950  0.64500  Biso   1.000  C
  C381     1.0000 0.35500  0.20160  0.24950  Biso   1.000  C
  C382     1.0000 0.64500  0.20160  0.75050  Biso   1.000  C
  C383     1.0000 0.35500  0.79840  0.75050  Biso   1.000  C
  C384     1.0000 0.64500  0.79840  0.24950  Biso   1.000  C
  H145     1.0000 0.27520  0.15290  0.28680  Biso   1.000  H
  H146     1.0000 0.72480  0.84710  0.28680  Biso   1.000  H
  H147     1.0000 0.72480  0.15290  0.71320  Biso   1.000  H
  H148     1.0000 0.27520  0.84710  0.71320  Biso   1.000  H
  H149     1.0000 0.28680  0.27520  0.15290  Biso   1.000  H
  H150     1.0000 0.28680  0.72480  0.84710  Biso   1.000  H
  H151     1.0000 0.71320  0.72480  0.15290  Biso   1.000  H
  H152     1.0000 0.71320  0.27520  0.84710  Biso   1.000  H
  H153     1.0000 0.15290  0.28680  0.27520  Biso   1.000  H
  H154     1.0000 0.84710  0.28680  0.72480  Biso   1.000  H
  H155     1.0000 0.15290  0.71320  0.72480  Biso   1.000  H
  H156     1.0000 0.84710  0.71320  0.27520  Biso   1.000  H
  H157     1.0000 0.77520  0.65290  0.78680  Biso   1.000  H
  H158     1.0000 0.22480  0.34710  0.78680  Biso   1.000  H
  H159     1.0000 0.22480  0.65290  0.21320  Biso   1.000  H
  H160     1.0000 0.77520  0.34710  0.21320  Biso   1.000  H
  H161     1.0000 0.78680  0.77520  0.65290  Biso   1.000  H
  H162     1.0000 0.78680  0.22480  0.34710  Biso   1.000  H
  H163     1.0000 0.21320  0.22480  0.65290  Biso   1.000  H
  H164     1.0000 0.21320  0.77520  0.34710  Biso   1.000  H
  H165     1.0000 0.65290  0.78680  0.77520  Biso   1.000  H
  H166     1.0000 0.34710  0.78680  0.22480  Biso   1.000  H
  H167     1.0000 0.65290  0.21320  0.22480  Biso   1.000  H
  H168     1.0000 0.34710  0.21320  0.77520  Biso   1.000  H
  H169     1.0000 0.72480  0.84710  0.71320  Biso   1.000  H
  H170     1.0000 0.27520  0.15290  0.71320  Biso   1.000  H
  H171     1.0000 0.27520  0.84710  0.28680  Biso   1.000  H
  H172     1.0000 0.72480  0.15290  0.28680  Biso   1.000  H
  H173     1.0000 0.71320  0.72480  0.84710  Biso   1.000  H
  H174     1.0000 0.71320  0.27520  0.15290  Biso   1.000  H
  H175     1.0000 0.28680  0.27520  0.84710  Biso   1.000  H
  H176     1.0000 0.28680  0.72480  0.15290  Biso   1.000  H
  H177     1.0000 0.84710  0.71320  0.72480  Biso   1.000  H
  H178     1.0000 0.15290  0.71320  0.27520  Biso   1.000  H
  H179     1.0000 0.84710  0.28680  0.27520  Biso   1.000  H
  H180     1.0000 0.15290  0.28680  0.72480  Biso   1.000  H
  H181     1.0000 0.22480  0.34710  0.21320  Biso   1.000  H
  H182     1.0000 0.77520  0.65290  0.21320  Biso   1.000  H
  H183     1.0000 0.77520  0.34710  0.78680  Biso   1.000  H
  H184     1.0000 0.22480  0.65290  0.78680  Biso   1.000  H
  H185     1.0000 0.21320  0.22480  0.34710  Biso   1.000  H
  H186     1.0000 0.21320  0.77520  0.65290  Biso   1.000  H
  H187     1.0000 0.78680  0.77520  0.34710  Biso   1.000  H
  H188     1.0000 0.78680  0.22480  0.65290  Biso   1.000  H
  H189     1.0000 0.34710  0.21320  0.22480  Biso   1.000  H
  H190     1.0000 0.65290  0.21320  0.77520  Biso   1.000  H
  H191     1.0000 0.34710  0.78680  0.77520  Biso   1.000  H
  H192     1.0000 0.65290  0.78680  0.22480  Biso   1.000  H
  C385     1.0000 0.21610  0.15820  0.28140  Biso   1.000  C
  C386     1.0000 0.78390  0.84180  0.28140  Biso   1.000  C
  C387     1.0000 0.78390  0.15820  0.71860  Biso   1.000  C
  C388     1.0000 0.21610  0.84180  0.71860  Biso   1.000  C
  C389     1.0000 0.28140  0.21610  0.15820  Biso   1.000  C
  C390     1.0000 0.28140  0.78390  0.84180  Biso   1.000  C
  C391     1.0000 0.71860  0.78390  0.15820  Biso   1.000  C
  C392     1.0000 0.71860  0.21610  0.84180  Biso   1.000  C
  C393     1.0000 0.15820  0.28140  0.21610  Biso   1.000  C
  C394     1.0000 0.84180  0.28140  0.78390  Biso   1.000  C
  C395     1.0000 0.15820  0.71860  0.78390  Biso   1.000  C
  C396     1.0000 0.84180  0.71860  0.21610  Biso   1.000  C
  C397     1.0000 0.71610  0.65820  0.78140  Biso   1.000  C
  C398     1.0000 0.28390  0.34180  0.78140  Biso   1.000  C
  C399     1.0000 0.28390  0.65820  0.21860  Biso   1.000  C
  C400     1.0000 0.71610  0.34180  0.21860  Biso   1.000  C
  C401     1.0000 0.78140  0.71610  0.65820  Biso   1.000  C
  C402     1.0000 0.78140  0.28390  0.34180  Biso   1.000  C
  C403     1.0000 0.21860  0.28390  0.65820  Biso   1.000  C
  C404     1.0000 0.21860  0.71610  0.34180  Biso   1.000  C
  C405     1.0000 0.65820  0.78140  0.71610  Biso   1.000  C
  C406     1.0000 0.34180  0.78140  0.28390  Biso   1.000  C
  C407     1.0000 0.65820  0.21860  0.28390  Biso   1.000  C
  C408     1.0000 0.34180  0.21860  0.71610  Biso   1.000  C
  C409     1.0000 0.78390  0.84180  0.71860  Biso   1.000  C
  C410     1.0000 0.21610  0.15820  0.71860  Biso   1.000  C
  C411     1.0000 0.21610  0.84180  0.28140  Biso   1.000  C
  C412     1.0000 0.78390  0.15820  0.28140  Biso   1.000  C
  C413     1.0000 0.71860  0.78390  0.84180  Biso   1.000  C
  C414     1.0000 0.71860  0.21610  0.15820  Biso   1.000  C
  C415     1.0000 0.28140  0.21610  0.84180  Biso   1.000  C
  C416     1.0000 0.28140  0.78390  0.15820  Biso   1.000  C
  C417     1.0000 0.84180  0.71860  0.78390  Biso   1.000  C
  C418     1.0000 0.15820  0.71860  0.21610  Biso   1.000  C
  C419     1.0000 0.84180  0.28140  0.21610  Biso   1.000  C
  C420     1.0000 0.15820  0.28140  0.78390  Biso   1.000  C
  C421     1.0000 0.28390  0.34180  0.21860  Biso   1.000  C
  C422     1.0000 0.71610  0.65820  0.21860  Biso   1.000  C
  C423     1.0000 0.71610  0.34180  0.78140  Biso   1.000  C
  C424     1.0000 0.28390  0.65820  0.78140  Biso   1.000  C
  C425     1.0000 0.21860  0.28390  0.34180  Biso   1.000  C
  C426     1.0000 0.21860  0.71610  0.65820  Biso   1.000  C
  C427     1.0000 0.78140  0.71610  0.34180  Biso   1.000  C
  C428     1.0000 0.78140  0.28390  0.65820  Biso   1.000  C
  C429     1.0000 0.34180  0.21860  0.28390  Biso   1.000  C
  C430     1.0000 0.65820  0.21860  0.71610  Biso   1.000  C
  C431     1.0000 0.34180  0.78140  0.71610  Biso   1.000  C
  C432     1.0000 0.65820  0.78140  0.28390  Biso   1.000  C
  C433     1.0000 0.17830  0.14400  0.29860  Biso   1.000  C
  C434     1.0000 0.82170  0.85600  0.29860  Biso   1.000  C
  C435     1.0000 0.82170  0.14400  0.70140  Biso   1.000  C
  C436     1.0000 0.17830  0.85600  0.70140  Biso   1.000  C
  C437     1.0000 0.29860  0.17830  0.14400  Biso   1.000  C
  C438     1.0000 0.29860  0.82170  0.85600  Biso   1.000  C
  C439     1.0000 0.70140  0.82170  0.14400  Biso   1.000  C
  C440     1.0000 0.70140  0.17830  0.85600  Biso   1.000  C
  C441     1.0000 0.14400  0.29860  0.17830  Biso   1.000  C
  C442     1.0000 0.85600  0.29860  0.82170  Biso   1.000  C
  C443     1.0000 0.14400  0.70140  0.82170  Biso   1.000  C
  C444     1.0000 0.85600  0.70140  0.17830  Biso   1.000  C
  C445     1.0000 0.67830  0.64400  0.79860  Biso   1.000  C
  C446     1.0000 0.32170  0.35600  0.79860  Biso   1.000  C
  C447     1.0000 0.32170  0.64400  0.20140  Biso   1.000  C
  C448     1.0000 0.67830  0.35600  0.20140  Biso   1.000  C
  C449     1.0000 0.79860  0.67830  0.64400  Biso   1.000  C
  C450     1.0000 0.79860  0.32170  0.35600  Biso   1.000  C
  C451     1.0000 0.20140  0.32170  0.64400  Biso   1.000  C
  C452     1.0000 0.20140  0.67830  0.35600  Biso   1.000  C
  C453     1.0000 0.64400  0.79860  0.67830  Biso   1.000  C
  C454     1.0000 0.35600  0.79860  0.32170  Biso   1.000  C
  C455     1.0000 0.64400  0.20140  0.32170  Biso   1.000  C
  C456     1.0000 0.35600  0.20140  0.67830  Biso   1.000  C
  C457     1.0000 0.82170  0.85600  0.70140  Biso   1.000  C
  C458     1.0000 0.17830  0.14400  0.70140  Biso   1.000  C
  C459     1.0000 0.17830  0.85600  0.29860  Biso   1.000  C
  C460     1.0000 0.82170  0.14400  0.29860  Biso   1.000  C
  C461     1.0000 0.70140  0.82170  0.85600  Biso   1.000  C
  C462     1.0000 0.70140  0.17830  0.14400  Biso   1.000  C
  C463     1.0000 0.29860  0.17830  0.85600  Biso   1.000  C
  C464     1.0000 0.29860  0.82170  0.14400  Biso   1.000  C
  C465     1.0000 0.85600  0.70140  0.82170  Biso   1.000  C
  C466     1.0000 0.14400  0.70140  0.17830  Biso   1.000  C
  C467     1.0000 0.85600  0.29860  0.17830  Biso   1.000  C
  C468     1.0000 0.14400  0.29860  0.82170  Biso   1.000  C
  C469     1.0000 0.32170  0.35600  0.20140  Biso   1.000  C
  C470     1.0000 0.67830  0.64400  0.20140  Biso   1.000  C
  C471     1.0000 0.67830  0.35600  0.79860  Biso   1.000  C
  C472     1.0000 0.32170  0.64400  0.79860  Biso   1.000  C
  C473     1.0000 0.20140  0.32170  0.35600  Biso   1.000  C
  C474     1.0000 0.20140  0.67830  0.64400  Biso   1.000  C
  C475     1.0000 0.79860  0.67830  0.35600  Biso   1.000  C
  C476     1.0000 0.79860  0.32170  0.64400  Biso   1.000  C
  C477     1.0000 0.35600  0.20140  0.32170  Biso   1.000  C
  C478     1.0000 0.64400  0.20140  0.67830  Biso   1.000  C
  C479     1.0000 0.35600  0.79860  0.67830  Biso   1.000  C
  C480     1.0000 0.64400  0.79860  0.32170  Biso   1.000  C
  H193     1.0000 0.15330  0.15190  0.28650  Biso   1.000  H
  H194     1.0000 0.84670  0.84810  0.28650  Biso   1.000  H
  H195     1.0000 0.84670  0.15190  0.71350  Biso   1.000  H
  H196     1.0000 0.15330  0.84810  0.71350  Biso   1.000  H
  H197     1.0000 0.28650  0.15330  0.15190  Biso   1.000  H
  H198     1.0000 0.28650  0.84670  0.84810  Biso   1.000  H
  H199     1.0000 0.71350  0.84670  0.15190  Biso   1.000  H
  H200     1.0000 0.71350  0.15330  0.84810  Biso   1.000  H
  H201     1.0000 0.15190  0.28650  0.15330  Biso   1.000  H
  H202     1.0000 0.84810  0.28650  0.84670  Biso   1.000  H
  H203     1.0000 0.15190  0.71350  0.84670  Biso   1.000  H
  H204     1.0000 0.84810  0.71350  0.15330  Biso   1.000  H
  H205     1.0000 0.65330  0.65190  0.78650  Biso   1.000  H
  H206     1.0000 0.34670  0.34810  0.78650  Biso   1.000  H
  H207     1.0000 0.34670  0.65190  0.21350  Biso   1.000  H
  H208     1.0000 0.65330  0.34810  0.21350  Biso   1.000  H
  H209     1.0000 0.78650  0.65330  0.65190  Biso   1.000  H
  H210     1.0000 0.78650  0.34670  0.34810  Biso   1.000  H
  H211     1.0000 0.21350  0.34670  0.65190  Biso   1.000  H
  H212     1.0000 0.21350  0.65330  0.34810  Biso   1.000  H
  H213     1.0000 0.65190  0.78650  0.65330  Biso   1.000  H
  H214     1.0000 0.34810  0.78650  0.34670  Biso   1.000  H
  H215     1.0000 0.65190  0.21350  0.34670  Biso   1.000  H
  H216     1.0000 0.34810  0.21350  0.65330  Biso   1.000  H
  H217     1.0000 0.84670  0.84810  0.71350  Biso   1.000  H
  H218     1.0000 0.15330  0.15190  0.71350  Biso   1.000  H
  H219     1.0000 0.15330  0.84810  0.28650  Biso   1.000  H
  H220     1.0000 0.84670  0.15190  0.28650  Biso   1.000  H
  H221     1.0000 0.71350  0.84670  0.84810  Biso   1.000  H
  H222     1.0000 0.71350  0.15330  0.15190  Biso   1.000  H
  H223     1.0000 0.28650  0.15330  0.84810  Biso   1.000  H
  H224     1.0000 0.28650  0.84670  0.15190  Biso   1.000  H
  H225     1.0000 0.84810  0.71350  0.84670  Biso   1.000  H
  H226     1.0000 0.15190  0.71350  0.15330  Biso   1.000  H
  H227     1.0000 0.84810  0.28650  0.15330  Biso   1.000  H
  H228     1.0000 0.15190  0.28650  0.84670  Biso   1.000  H
  H229     1.0000 0.34670  0.34810  0.21350  Biso   1.000  H
  H230     1.0000 0.65330  0.65190  0.21350  Biso   1.000  H
  H231     1.0000 0.65330  0.34810  0.78650  Biso   1.000  H
  H232     1.0000 0.34670  0.65190  0.78650  Biso   1.000  H
  H233     1.0000 0.21350  0.34670  0.34810  Biso   1.000  H
  H234     1.0000 0.21350  0.65330  0.65190  Biso   1.000  H
  H235     1.0000 0.78650  0.65330  0.34810  Biso   1.000  H
  H236     1.0000 0.78650  0.34670  0.65190  Biso   1.000  H
  H237     1.0000 0.34810  0.21350  0.34670  Biso   1.000  H
  H238     1.0000 0.65190  0.21350  0.65330  Biso   1.000  H
  H239     1.0000 0.34810  0.78650  0.65330  Biso   1.000  H
  H240     1.0000 0.65190  0.78650  0.34670  Biso   1.000  H
  C481     1.0000 0.17790  0.11920  0.32960  Biso   1.000  C
  C482     1.0000 0.82210  0.88080  0.32960  Biso   1.000  C
  C483     1.0000 0.82210  0.11920  0.67040  Biso   1.000  C
  C484     1.0000 0.17790  0.88080  0.67040  Biso   1.000  C
  C485     1.0000 0.32960  0.17790  0.11920  Biso   1.000  C
  C486     1.0000 0.32960  0.82210  0.88080  Biso   1.000  C
  C487     1.0000 0.67040  0.82210  0.11920  Biso   1.000  C
  C488     1.0000 0.67040  0.17790  0.88080  Biso   1.000  C
  C489     1.0000 0.11920  0.32960  0.17790  Biso   1.000  C
  C490     1.0000 0.88080  0.32960  0.82210  Biso   1.000  C
  C491     1.0000 0.11920  0.67040  0.82210  Biso   1.000  C
  C492     1.0000 0.88080  0.67040  0.17790  Biso   1.000  C
  C493     1.0000 0.67790  0.61920  0.82960  Biso   1.000  C
  C494     1.0000 0.32210  0.38080  0.82960  Biso   1.000  C
  C495     1.0000 0.32210  0.61920  0.17040  Biso   1.000  C
  C496     1.0000 0.67790  0.38080  0.17040  Biso   1.000  C
  C497     1.0000 0.82960  0.67790  0.61920  Biso   1.000  C
  C498     1.0000 0.82960  0.32210  0.38080  Biso   1.000  C
  C499     1.0000 0.17040  0.32210  0.61920  Biso   1.000  C
  C500     1.0000 0.17040  0.67790  0.38080  Biso   1.000  C
  C501     1.0000 0.61920  0.82960  0.67790  Biso   1.000  C
  C502     1.0000 0.38080  0.82960  0.32210  Biso   1.000  C
  C503     1.0000 0.61920  0.17040  0.32210  Biso   1.000  C
  C504     1.0000 0.38080  0.17040  0.67790  Biso   1.000  C
  C505     1.0000 0.82210  0.88080  0.67040  Biso   1.000  C
  C506     1.0000 0.17790  0.11920  0.67040  Biso   1.000  C
  C507     1.0000 0.17790  0.88080  0.32960  Biso   1.000  C
  C508     1.0000 0.82210  0.11920  0.32960  Biso   1.000  C
  C509     1.0000 0.67040  0.82210  0.88080  Biso   1.000  C
  C510     1.0000 0.67040  0.17790  0.11920  Biso   1.000  C
  C511     1.0000 0.32960  0.17790  0.88080  Biso   1.000  C
  C512     1.0000 0.32960  0.82210  0.11920  Biso   1.000  C
  C513     1.0000 0.88080  0.67040  0.82210  Biso   1.000  C
  C514     1.0000 0.11920  0.67040  0.17790  Biso   1.000  C
  C515     1.0000 0.88080  0.32960  0.17790  Biso   1.000  C
  C516     1.0000 0.11920  0.32960  0.82210  Biso   1.000  C
  C517     1.0000 0.32210  0.38080  0.17040  Biso   1.000  C
  C518     1.0000 0.67790  0.61920  0.17040  Biso   1.000  C
  C519     1.0000 0.67790  0.38080  0.82960  Biso   1.000  C
  C520     1.0000 0.32210  0.61920  0.82960  Biso   1.000  C
  C521     1.0000 0.17040  0.32210  0.38080  Biso   1.000  C
  C522     1.0000 0.17040  0.67790  0.61920  Biso   1.000  C
  C523     1.0000 0.82960  0.67790  0.38080  Biso   1.000  C
  C524     1.0000 0.82960  0.32210  0.61920  Biso   1.000  C
  C525     1.0000 0.38080  0.17040  0.32210  Biso   1.000  C
  C526     1.0000 0.61920  0.17040  0.67790  Biso   1.000  C
  C527     1.0000 0.38080  0.82960  0.67790  Biso   1.000  C
  C528     1.0000 0.61920  0.82960  0.32210  Biso   1.000  C
  H241     1.0000 0.15290  0.11080  0.34020  Biso   1.000  H
  H242     1.0000 0.84710  0.88920  0.34020  Biso   1.000  H
  H243     1.0000 0.84710  0.11080  0.65980  Biso   1.000  H
  H244     1.0000 0.15290  0.88920  0.65980  Biso   1.000  H
  H245     1.0000 0.34020  0.15290  0.11080  Biso   1.000  H
  H246     1.0000 0.34020  0.84710  0.88920  Biso   1.000  H
  H247     1.0000 0.65980  0.84710  0.11080  Biso   1.000  H
  H248     1.0000 0.65980  0.15290  0.88920  Biso   1.000  H
  H249     1.0000 0.11080  0.34020  0.15290  Biso   1.000  H
  H250     1.0000 0.88920  0.34020  0.84710  Biso   1.000  H
  H251     1.0000 0.11080  0.65980  0.84710  Biso   1.000  H
  H252     1.0000 0.88920  0.65980  0.15290  Biso   1.000  H
  H253     1.0000 0.65290  0.61080  0.84020  Biso   1.000  H
  H254     1.0000 0.34710  0.38920  0.84020  Biso   1.000  H
  H255     1.0000 0.34710  0.61080  0.15980  Biso   1.000  H
  H256     1.0000 0.65290  0.38920  0.15980  Biso   1.000  H
  H257     1.0000 0.84020  0.65290  0.61080  Biso   1.000  H
  H258     1.0000 0.84020  0.34710  0.38920  Biso   1.000  H
  H259     1.0000 0.15980  0.34710  0.61080  Biso   1.000  H
  H260     1.0000 0.15980  0.65290  0.38920  Biso   1.000  H
  H261     1.0000 0.61080  0.84020  0.65290  Biso   1.000  H
  H262     1.0000 0.38920  0.84020  0.34710  Biso   1.000  H
  H263     1.0000 0.61080  0.15980  0.34710  Biso   1.000  H
  H264     1.0000 0.38920  0.15980  0.65290  Biso   1.000  H
  H265     1.0000 0.84710  0.88920  0.65980  Biso   1.000  H
  H266     1.0000 0.15290  0.11080  0.65980  Biso   1.000  H
  H267     1.0000 0.15290  0.88920  0.34020  Biso   1.000  H
  H268     1.0000 0.84710  0.11080  0.34020  Biso   1.000  H
  H269     1.0000 0.65980  0.84710  0.88920  Biso   1.000  H
  H270     1.0000 0.65980  0.15290  0.11080  Biso   1.000  H
  H271     1.0000 0.34020  0.15290  0.88920  Biso   1.000  H
  H272     1.0000 0.34020  0.84710  0.11080  Biso   1.000  H
  H273     1.0000 0.88920  0.65980  0.84710  Biso   1.000  H
  H274     1.0000 0.11080  0.65980  0.15290  Biso   1.000  H
  H275     1.0000 0.88920  0.34020  0.15290  Biso   1.000  H
  H276     1.0000 0.11080  0.34020  0.84710  Biso   1.000  H
  H277     1.0000 0.34710  0.38920  0.15980  Biso   1.000  H
  H278     1.0000 0.65290  0.61080  0.15980  Biso   1.000  H
  H279     1.0000 0.65290  0.38920  0.84020  Biso   1.000  H
  H280     1.0000 0.34710  0.61080  0.84020  Biso   1.000  H
  H281     1.0000 0.15980  0.34710  0.38920  Biso   1.000  H
  H282     1.0000 0.15980  0.65290  0.61080  Biso   1.000  H
  H283     1.0000 0.84020  0.65290  0.38920  Biso   1.000  H
  H284     1.0000 0.84020  0.34710  0.61080  Biso   1.000  H
  H285     1.0000 0.38920  0.15980  0.34710  Biso   1.000  H
  H286     1.0000 0.61080  0.15980  0.65290  Biso   1.000  H
  H287     1.0000 0.38920  0.84020  0.65290  Biso   1.000  H
  H288     1.0000 0.61080  0.84020  0.34710  Biso   1.000  H
  C529     1.0000 0.21390  0.10570  0.34810  Biso   1.000  C
  C530     1.0000 0.78610  0.89430  0.34810  Biso   1.000  C
  C531     1.0000 0.78610  0.10570  0.65190  Biso   1.000  C
  C532     1.0000 0.21390  0.89430  0.65190  Biso   1.000  C
  C533     1.0000 0.34810  0.21390  0.10570  Biso   1.000  C
  C534     1.0000 0.34810  0.78610  0.89430  Biso   1.000  C
  C535     1.0000 0.65190  0.78610  0.10570  Biso   1.000  C
  C536     1.0000 0.65190  0.21390  0.89430  Biso   1.000  C
  C537     1.0000 0.10570  0.34810  0.21390  Biso   1.000  C
  C538     1.0000 0.89430  0.34810  0.78610  Biso   1.000  C
  C539     1.0000 0.10570  0.65190  0.78610  Biso   1.000  C
  C540     1.0000 0.89430  0.65190  0.21390  Biso   1.000  C
  C541     1.0000 0.71390  0.60570  0.84810  Biso   1.000  C
  C542     1.0000 0.28610  0.39430  0.84810  Biso   1.000  C
  C543     1.0000 0.28610  0.60570  0.15190  Biso   1.000  C
  C544     1.0000 0.71390  0.39430  0.15190  Biso   1.000  C
  C545     1.0000 0.84810  0.71390  0.60570  Biso   1.000  C
  C546     1.0000 0.84810  0.28610  0.39430  Biso   1.000  C
  C547     1.0000 0.15190  0.28610  0.60570  Biso   1.000  C
  C548     1.0000 0.15190  0.71390  0.39430  Biso   1.000  C
  C549     1.0000 0.60570  0.84810  0.71390  Biso   1.000  C
  C550     1.0000 0.39430  0.84810  0.28610  Biso   1.000  C
  C551     1.0000 0.60570  0.15190  0.28610  Biso   1.000  C
  C552     1.0000 0.39430  0.15190  0.71390  Biso   1.000  C
  C553     1.0000 0.78610  0.89430  0.65190  Biso   1.000  C
  C554     1.0000 0.21390  0.10570  0.65190  Biso   1.000  C
  C555     1.0000 0.21390  0.89430  0.34810  Biso   1.000  C
  C556     1.0000 0.78610  0.10570  0.34810  Biso   1.000  C
  C557     1.0000 0.65190  0.78610  0.89430  Biso   1.000  C
  C558     1.0000 0.65190  0.21390  0.10570  Biso   1.000  C
  C559     1.0000 0.34810  0.21390  0.89430  Biso   1.000  C
  C560     1.0000 0.34810  0.78610  0.10570  Biso   1.000  C
  C561     1.0000 0.89430  0.65190  0.78610  Biso   1.000  C
  C562     1.0000 0.10570  0.65190  0.21390  Biso   1.000  C
  C563     1.0000 0.89430  0.34810  0.21390  Biso   1.000  C
  C564     1.0000 0.10570  0.34810  0.78610  Biso   1.000  C
  C565     1.0000 0.28610  0.39430  0.15190  Biso   1.000  C
  C566     1.0000 0.71390  0.60570  0.15190  Biso   1.000  C
  C567     1.0000 0.71390  0.39430  0.84810  Biso   1.000  C
  C568     1.0000 0.28610  0.60570  0.84810  Biso   1.000  C
  C569     1.0000 0.15190  0.28610  0.39430  Biso   1.000  C
  C570     1.0000 0.15190  0.71390  0.60570  Biso   1.000  C
  C571     1.0000 0.84810  0.71390  0.39430  Biso   1.000  C
  C572     1.0000 0.84810  0.28610  0.60570  Biso   1.000  C
  C573     1.0000 0.39430  0.15190  0.28610  Biso   1.000  C
  C574     1.0000 0.60570  0.15190  0.71390  Biso   1.000  C
  C575     1.0000 0.39430  0.84810  0.71390  Biso   1.000  C
  C576     1.0000 0.60570  0.84810  0.28610  Biso   1.000  C
  C577     1.0000 0.21490  0.08030  0.38240  Biso   1.000  C
  C578     1.0000 0.78510  0.91970  0.38240  Biso   1.000  C
  C579     1.0000 0.78510  0.08030  0.61760  Biso   1.000  C
  C580     1.0000 0.21490  0.91970  0.61760  Biso   1.000  C
  C581     1.0000 0.38240  0.21490  0.08030  Biso   1.000  C
  C582     1.0000 0.38240  0.78510  0.91970  Biso   1.000  C
  C583     1.0000 0.61760  0.78510  0.08030  Biso   1.000  C
  C584     1.0000 0.61760  0.21490  0.91970  Biso   1.000  C
  C585     1.0000 0.08030  0.38240  0.21490  Biso   1.000  C
  C586     1.0000 0.91970  0.38240  0.78510  Biso   1.000  C
  C587     1.0000 0.08030  0.61760  0.78510  Biso   1.000  C
  C588     1.0000 0.91970  0.61760  0.21490  Biso   1.000  C
  C589     1.0000 0.71490  0.58030  0.88240  Biso   1.000  C
  C590     1.0000 0.28510  0.41970  0.88240  Biso   1.000  C
  C591     1.0000 0.28510  0.58030  0.11760  Biso   1.000  C
  C592     1.0000 0.71490  0.41970  0.11760  Biso   1.000  C
  C593     1.0000 0.88240  0.71490  0.58030  Biso   1.000  C
  C594     1.0000 0.88240  0.28510  0.41970  Biso   1.000  C
  C595     1.0000 0.11760  0.28510  0.58030  Biso   1.000  C
  C596     1.0000 0.11760  0.71490  0.41970  Biso   1.000  C
  C597     1.0000 0.58030  0.88240  0.71490  Biso   1.000  C
  C598     1.0000 0.41970  0.88240  0.28510  Biso   1.000  C
  C599     1.0000 0.58030  0.11760  0.28510  Biso   1.000  C
  C600     1.0000 0.41970  0.11760  0.71490  Biso   1.000  C
  C601     1.0000 0.78510  0.91970  0.61760  Biso   1.000  C
  C602     1.0000 0.21490  0.08030  0.61760  Biso   1.000  C
  C603     1.0000 0.21490  0.91970  0.38240  Biso   1.000  C
  C604     1.0000 0.78510  0.08030  0.38240  Biso   1.000  C
  C605     1.0000 0.61760  0.78510  0.91970  Biso   1.000  C
  C606     1.0000 0.61760  0.21490  0.08030  Biso   1.000  C
  C607     1.0000 0.38240  0.21490  0.91970  Biso   1.000  C
  C608     1.0000 0.38240  0.78510  0.08030  Biso   1.000  C
  C609     1.0000 0.91970  0.61760  0.78510  Biso   1.000  C
  C610     1.0000 0.08030  0.61760  0.21490  Biso   1.000  C
  C611     1.0000 0.91970  0.38240  0.21490  Biso   1.000  C
  C612     1.0000 0.08030  0.38240  0.78510  Biso   1.000  C
  C613     1.0000 0.28510  0.41970  0.11760  Biso   1.000  C
  C614     1.0000 0.71490  0.58030  0.11760  Biso   1.000  C
  C615     1.0000 0.71490  0.41970  0.88240  Biso   1.000  C
  C616     1.0000 0.28510  0.58030  0.88240  Biso   1.000  C
  C617     1.0000 0.11760  0.28510  0.41970  Biso   1.000  C
  C618     1.0000 0.11760  0.71490  0.58030  Biso   1.000  C
  C619     1.0000 0.88240  0.71490  0.41970  Biso   1.000  C
  C620     1.0000 0.88240  0.28510  0.58030  Biso   1.000  C
  C621     1.0000 0.41970  0.11760  0.28510  Biso   1.000  C
  C622     1.0000 0.58030  0.11760  0.71490  Biso   1.000  C
  C623     1.0000 0.41970  0.88240  0.71490  Biso   1.000  C
  C624     1.0000 0.58030  0.88240  0.28510  Biso   1.000  C
  H289     1.0000 0.18990  0.07130  0.39390  Biso   1.000  H
  H290     1.0000 0.81010  0.92870  0.39390  Biso   1.000  H
  H291     1.0000 0.81010  0.07130  0.60610  Biso   1.000  H
  H292     1.0000 0.18990  0.92870  0.60610  Biso   1.000  H
  H293     1.0000 0.39390  0.18990  0.07130  Biso   1.000  H
  H294     1.0000 0.39390  0.81010  0.92870  Biso   1.000  H
  H295     1.0000 0.60610  0.81010  0.07130  Biso   1.000  H
  H296     1.0000 0.60610  0.18990  0.92870  Biso   1.000  H
  H297     1.0000 0.07130  0.39390  0.18990  Biso   1.000  H
  H298     1.0000 0.92870  0.39390  0.81010  Biso   1.000  H
  H299     1.0000 0.07130  0.60610  0.81010  Biso   1.000  H
  H300     1.0000 0.92870  0.60610  0.18990  Biso   1.000  H
  H301     1.0000 0.68990  0.57130  0.89390  Biso   1.000  H
  H302     1.0000 0.31010  0.42870  0.89390  Biso   1.000  H
  H303     1.0000 0.31010  0.57130  0.10610  Biso   1.000  H
  H304     1.0000 0.68990  0.42870  0.10610  Biso   1.000  H
  H305     1.0000 0.89390  0.68990  0.57130  Biso   1.000  H
  H306     1.0000 0.89390  0.31010  0.42870  Biso   1.000  H
  H307     1.0000 0.10610  0.31010  0.57130  Biso   1.000  H
  H308     1.0000 0.10610  0.68990  0.42870  Biso   1.000  H
  H309     1.0000 0.57130  0.89390  0.68990  Biso   1.000  H
  H310     1.0000 0.42870  0.89390  0.31010  Biso   1.000  H
  H311     1.0000 0.57130  0.10610  0.31010  Biso   1.000  H
  H312     1.0000 0.42870  0.10610  0.68990  Biso   1.000  H
  H313     1.0000 0.81010  0.92870  0.60610  Biso   1.000  H
  H314     1.0000 0.18990  0.07130  0.60610  Biso   1.000  H
  H315     1.0000 0.18990  0.92870  0.39390  Biso   1.000  H
  H316     1.0000 0.81010  0.07130  0.39390  Biso   1.000  H
  H317     1.0000 0.60610  0.81010  0.92870  Biso   1.000  H
  H318     1.0000 0.60610  0.18990  0.07130  Biso   1.000  H
  H319     1.0000 0.39390  0.18990  0.92870  Biso   1.000  H
  H320     1.0000 0.39390  0.81010  0.07130  Biso   1.000  H
  H321     1.0000 0.92870  0.60610  0.81010  Biso   1.000  H
  H322     1.0000 0.07130  0.60610  0.18990  Biso   1.000  H
  H323     1.0000 0.92870  0.39390  0.18990  Biso   1.000  H
  H324     1.0000 0.07130  0.39390  0.81010  Biso   1.000  H
  H325     1.0000 0.31010  0.42870  0.10610  Biso   1.000  H
  H326     1.0000 0.68990  0.57130  0.10610  Biso   1.000  H
  H327     1.0000 0.68990  0.42870  0.89390  Biso   1.000  H
  H328     1.0000 0.31010  0.57130  0.89390  Biso   1.000  H
  H329     1.0000 0.10610  0.31010  0.42870  Biso   1.000  H
  H330     1.0000 0.10610  0.68990  0.57130  Biso   1.000  H
  H331     1.0000 0.89390  0.68990  0.42870  Biso   1.000  H
  H332     1.0000 0.89390  0.31010  0.57130  Biso   1.000  H
  H333     1.0000 0.42870  0.10610  0.31010  Biso   1.000  H
  H334     1.0000 0.57130  0.10610  0.68990  Biso   1.000  H
  H335     1.0000 0.42870  0.89390  0.68990  Biso   1.000  H
  H336     1.0000 0.57130  0.89390  0.31010  Biso   1.000  H
  Cu1      1.0000 0.21013  0.00000  0.50000  Biso   1.000  Cu
  Cu2      1.0000 0.78987  0.00000  0.50000  Biso   1.000  Cu
  Cu3      1.0000 0.50000  0.21013  0.00000  Biso   1.000  Cu
  Cu4      1.0000 0.50000  0.78987  0.00000  Biso   1.000  Cu
  Cu5      1.0000 0.00000  0.50000  0.21013  Biso   1.000  Cu
  Cu6      1.0000 0.00000  0.50000  0.78987  Biso   1.000  Cu
  Cu7      1.0000 0.71013  0.50000  0.00000  Biso   1.000  Cu
  Cu8      1.0000 0.28987  0.50000  0.00000  Biso   1.000  Cu
  Cu9      1.0000 0.00000  0.71013  0.50000  Biso   1.000  Cu
  Cu10     1.0000 0.00000  0.28987  0.50000  Biso   1.000  Cu
  Cu11     1.0000 0.50000  0.00000  0.71013  Biso   1.000  Cu
  Cu12     1.0000 0.50000  0.00000  0.28987  Biso   1.000  Cu
  Cu13     1.0000 0.28987  0.00000  0.50000  Biso   1.000  Cu
  Cu14     1.0000 0.71013  0.00000  0.50000  Biso   1.000  Cu
  Cu15     1.0000 0.50000  0.28987  0.00000  Biso   1.000  Cu
  Cu16     1.0000 0.50000  0.71013  0.00000  Biso   1.000  Cu
  Cu17     1.0000 0.00000  0.50000  0.28987  Biso   1.000  Cu
  Cu18     1.0000 0.00000  0.50000  0.71013  Biso   1.000  Cu
  Cu19     1.0000 0.78987  0.50000  0.00000  Biso   1.000  Cu
  Cu20     1.0000 0.21013  0.50000  0.00000  Biso   1.000  Cu
  Cu21     1.0000 0.00000  0.78987  0.50000  Biso   1.000  Cu
  Cu22     1.0000 0.00000  0.21013  0.50000  Biso   1.000  Cu
  Cu23     1.0000 0.50000  0.00000  0.78987  Biso   1.000  Cu
  Cu24     1.0000 0.50000  0.00000  0.21013  Biso   1.000  Cu
  O1       1.0000 0.14625  0.00000  0.50000  Biso   1.000  O
  O2       1.0000 0.85375  0.00000  0.50000  Biso   1.000  O
  O3       1.0000 0.50000  0.14625  0.00000  Biso   1.000  O
  O4       1.0000 0.50000  0.85375  0.00000  Biso   1.000  O
  O5       1.0000 0.00000  0.50000  0.14625  Biso   1.000  O
  O6       1.0000 0.00000  0.50000  0.85375  Biso   1.000  O
  O7       1.0000 0.64625  0.50000  0.00000  Biso   1.000  O
  O8       1.0000 0.35375  0.50000  0.00000  Biso   1.000  O
  O9       1.0000 0.00000  0.64625  0.50000  Biso   1.000  O
  O10      1.0000 0.00000  0.35375  0.50000  Biso   1.000  O
  O11      1.0000 0.50000  0.00000  0.64625  Biso   1.000  O
  O12      1.0000 0.50000  0.00000  0.35375  Biso   1.000  O
  O13      1.0000 0.35400  0.00000  0.50000  Biso   1.000  O
  O14      1.0000 0.64600  0.00000  0.50000  Biso   1.000  O
  O15      1.0000 0.50000  0.35400  0.00000  Biso   1.000  O
  O16      1.0000 0.50000  0.64600  0.00000  Biso   1.000  O
  O17      1.0000 0.00000  0.50000  0.35400  Biso   1.000  O
  O18      1.0000 0.00000  0.50000  0.64600  Biso   1.000  O
  O19      1.0000 0.85400  0.50000  0.00000  Biso   1.000  O
  O20      1.0000 0.14600  0.50000  0.00000  Biso   1.000  O
  O21      1.0000 0.00000  0.85400  0.50000  Biso   1.000  O
  O22      1.0000 0.00000  0.14600  0.50000  Biso   1.000  O
  O23      1.0000 0.50000  0.00000  0.85400  Biso   1.000  O
  O24      1.0000 0.50000  0.00000  0.14600  Biso   1.000  O
  O25      1.0000 0.21660  0.03340  0.45160  Biso   1.000  O
  O26      1.0000 0.78340  0.96660  0.45160  Biso   1.000  O
  O27      1.0000 0.78340  0.03340  0.54840  Biso   1.000  O
  O28      1.0000 0.21660  0.96660  0.54840  Biso   1.000  O
  O29      1.0000 0.45160  0.21660  0.03340  Biso   1.000  O
  O30      1.0000 0.45160  0.78340  0.96660  Biso   1.000  O
  O31      1.0000 0.54840  0.78340  0.03340  Biso   1.000  O
  O32      1.0000 0.54840  0.21660  0.96660  Biso   1.000  O
  O33      1.0000 0.03340  0.45160  0.21660  Biso   1.000  O
  O34      1.0000 0.96660  0.45160  0.78340  Biso   1.000  O
  O35      1.0000 0.03340  0.54840  0.78340  Biso   1.000  O
  O36      1.0000 0.96660  0.54840  0.21660  Biso   1.000  O
  O37      1.0000 0.71660  0.53340  0.95160  Biso   1.000  O
  O38      1.0000 0.28340  0.46660  0.95160  Biso   1.000  O
  O39      1.0000 0.28340  0.53340  0.04840  Biso   1.000  O
  O40      1.0000 0.71660  0.46660  0.04840  Biso   1.000  O
  O41      1.0000 0.95160  0.71660  0.53340  Biso   1.000  O
  O42      1.0000 0.95160  0.28340  0.46660  Biso   1.000  O
  O43      1.0000 0.04840  0.28340  0.53340  Biso   1.000  O
  O44      1.0000 0.04840  0.71660  0.46660  Biso   1.000  O
  O45      1.0000 0.53340  0.95160  0.71660  Biso   1.000  O
  O46      1.0000 0.46660  0.95160  0.28340  Biso   1.000  O
  O47      1.0000 0.53340  0.04840  0.28340  Biso   1.000  O
  O48      1.0000 0.46660  0.04840  0.71660  Biso   1.000  O
  O49      1.0000 0.78340  0.96660  0.54840  Biso   1.000  O
  O50      1.0000 0.21660  0.03340  0.54840  Biso   1.000  O
  O51      1.0000 0.21660  0.96660  0.45160  Biso   1.000  O
  O52      1.0000 0.78340  0.03340  0.45160  Biso   1.000  O
  O53      1.0000 0.54840  0.78340  0.96660  Biso   1.000  O
  O54      1.0000 0.54840  0.21660  0.03340  Biso   1.000  O
  O55      1.0000 0.45160  0.21660  0.96660  Biso   1.000  O
  O56      1.0000 0.45160  0.78340  0.03340  Biso   1.000  O
  O57      1.0000 0.96660  0.54840  0.78340  Biso   1.000  O
  O58      1.0000 0.03340  0.54840  0.21660  Biso   1.000  O
  O59      1.0000 0.96660  0.45160  0.21660  Biso   1.000  O
  O60      1.0000 0.03340  0.45160  0.78340  Biso   1.000  O
  O61      1.0000 0.28340  0.46660  0.04840  Biso   1.000  O
  O62      1.0000 0.71660  0.53340  0.04840  Biso   1.000  O
  O63      1.0000 0.71660  0.46660  0.95160  Biso   1.000  O
  O64      1.0000 0.28340  0.53340  0.95160  Biso   1.000  O
  O65      1.0000 0.04840  0.28340  0.46660  Biso   1.000  O
  O66      1.0000 0.04840  0.71660  0.53340  Biso   1.000  O
  O67      1.0000 0.95160  0.71660  0.46660  Biso   1.000  O
  O68      1.0000 0.95160  0.28340  0.53340  Biso   1.000  O
  O69      1.0000 0.46660  0.04840  0.28340  Biso   1.000  O
  O70      1.0000 0.53340  0.04840  0.71660  Biso   1.000  O
  O71      1.0000 0.46660  0.95160  0.71660  Biso   1.000  O
  O72      1.0000 0.53340  0.95160  0.28340  Biso   1.000  O
  O73      1.0000 0.28480  0.03400  0.45210  Biso   1.000  O
  O74      1.0000 0.71520  0.96600  0.45210  Biso   1.000  O
  O75      1.0000 0.71520  0.03400  0.54790  Biso   1.000  O
  O76      1.0000 0.28480  0.96600  0.54790  Biso   1.000  O
  O77      1.0000 0.45210  0.28480  0.03400  Biso   1.000  O
  O78      1.0000 0.45210  0.71520  0.96600  Biso   1.000  O
  O79      1.0000 0.54790  0.71520  0.03400  Biso   1.000  O
  O80      1.0000 0.54790  0.28480  0.96600  Biso   1.000  O
  O81      1.0000 0.03400  0.45210  0.28480  Biso   1.000  O
  O82      1.0000 0.96600  0.45210  0.71520  Biso   1.000  O
  O83      1.0000 0.03400  0.54790  0.71520  Biso   1.000  O
  O84      1.0000 0.96600  0.54790  0.28480  Biso   1.000  O
  O85      1.0000 0.78480  0.53400  0.95210  Biso   1.000  O
  O86      1.0000 0.21520  0.46600  0.95210  Biso   1.000  O
  O87      1.0000 0.21520  0.53400  0.04790  Biso   1.000  O
  O88      1.0000 0.78480  0.46600  0.04790  Biso   1.000  O
  O89      1.0000 0.95210  0.78480  0.53400  Biso   1.000  O
  O90      1.0000 0.95210  0.21520  0.46600  Biso   1.000  O
  O91      1.0000 0.04790  0.21520  0.53400  Biso   1.000  O
  O92      1.0000 0.04790  0.78480  0.46600  Biso   1.000  O
  O93      1.0000 0.53400  0.95210  0.78480  Biso   1.000  O
  O94      1.0000 0.46600  0.95210  0.21520  Biso   1.000  O
  O95      1.0000 0.53400  0.04790  0.21520  Biso   1.000  O
  O96      1.0000 0.46600  0.04790  0.78480  Biso   1.000  O
  O97      1.0000 0.71520  0.96600  0.54790  Biso   1.000  O
  O98      1.0000 0.28480  0.03400  0.54790  Biso   1.000  O
  O99      1.0000 0.28480  0.96600  0.45210  Biso   1.000  O
  O100     1.0000 0.71520  0.03400  0.45210  Biso   1.000  O
  O101     1.0000 0.54790  0.71520  0.96600  Biso   1.000  O
  O102     1.0000 0.54790  0.28480  0.03400  Biso   1.000  O
  O103     1.0000 0.45210  0.28480  0.96600  Biso   1.000  O
  O104     1.0000 0.45210  0.71520  0.03400  Biso   1.000  O
  O105     1.0000 0.96600  0.54790  0.71520  Biso   1.000  O
  O106     1.0000 0.03400  0.54790  0.28480  Biso   1.000  O
  O107     1.0000 0.96600  0.45210  0.28480  Biso   1.000  O
  O108     1.0000 0.03400  0.45210  0.71520  Biso   1.000  O
  O109     1.0000 0.21520  0.46600  0.04790  Biso   1.000  O
  O110     1.0000 0.78480  0.53400  0.04790  Biso   1.000  O
  O111     1.0000 0.78480  0.46600  0.95210  Biso   1.000  O
  O112     1.0000 0.21520  0.53400  0.95210  Biso   1.000  O
  O113     1.0000 0.04790  0.21520  0.46600  Biso   1.000  O
  O114     1.0000 0.04790  0.78480  0.53400  Biso   1.000  O
  O115     1.0000 0.95210  0.78480  0.46600  Biso   1.000  O
  O116     1.0000 0.95210  0.21520  0.53400  Biso   1.000  O
  O117     1.0000 0.46600  0.04790  0.21520  Biso   1.000  O
  O118     1.0000 0.53400  0.04790  0.78480  Biso   1.000  O
  O119     1.0000 0.46600  0.95210  0.78480  Biso   1.000  O
  O120     1.0000 0.53400  0.95210  0.21520  Biso   1.000  O
  C625     1.0000 0.24910  0.06130  0.45600  Biso   1.000  C
  C626     1.0000 0.75090  0.93870  0.45600  Biso   1.000  C
  C627     1.0000 0.75090  0.06130  0.54400  Biso   1.000  C
  C628     1.0000 0.24910  0.93870  0.54400  Biso   1.000  C
  C629     1.0000 0.45600  0.24910  0.06130  Biso   1.000  C
  C630     1.0000 0.45600  0.75090  0.93870  Biso   1.000  C
  C631     1.0000 0.54400  0.75090  0.06130  Biso   1.000  C
  C632     1.0000 0.54400  0.24910  0.93870  Biso   1.000  C
  C633     1.0000 0.06130  0.45600  0.24910  Biso   1.000  C
  C634     1.0000 0.93870  0.45600  0.75090  Biso   1.000  C
  C635     1.0000 0.06130  0.54400  0.75090  Biso   1.000  C
  C636     1.0000 0.93870  0.54400  0.24910  Biso   1.000  C
  C637     1.0000 0.74910  0.56130  0.95600  Biso   1.000  C
  C638     1.0000 0.25090  0.43870  0.95600  Biso   1.000  C
  C639     1.0000 0.25090  0.56130  0.04400  Biso   1.000  C
  C640     1.0000 0.74910  0.43870  0.04400  Biso   1.000  C
  C641     1.0000 0.95600  0.74910  0.56130  Biso   1.000  C
  C642     1.0000 0.95600  0.25090  0.43870  Biso   1.000  C
  C643     1.0000 0.04400  0.25090  0.56130  Biso   1.000  C
  C644     1.0000 0.04400  0.74910  0.43870  Biso   1.000  C
  C645     1.0000 0.56130  0.95600  0.74910  Biso   1.000  C
  C646     1.0000 0.43870  0.95600  0.25090  Biso   1.000  C
  C647     1.0000 0.56130  0.04400  0.25090  Biso   1.000  C
  C648     1.0000 0.43870  0.04400  0.74910  Biso   1.000  C
  C649     1.0000 0.75090  0.93870  0.54400  Biso   1.000  C
  C650     1.0000 0.24910  0.06130  0.54400  Biso   1.000  C
  C651     1.0000 0.24910  0.93870  0.45600  Biso   1.000  C
  C652     1.0000 0.75090  0.06130  0.45600  Biso   1.000  C
  C653     1.0000 0.54400  0.75090  0.93870  Biso   1.000  C
  C654     1.0000 0.54400  0.24910  0.06130  Biso   1.000  C
  C655     1.0000 0.45600  0.24910  0.93870  Biso   1.000  C
  C656     1.0000 0.45600  0.75090  0.06130  Biso   1.000  C
  C657     1.0000 0.93870  0.54400  0.75090  Biso   1.000  C
  C658     1.0000 0.06130  0.54400  0.24910  Biso   1.000  C
  C659     1.0000 0.93870  0.45600  0.24910  Biso   1.000  C
  C660     1.0000 0.06130  0.45600  0.75090  Biso   1.000  C
  C661     1.0000 0.25090  0.43870  0.04400  Biso   1.000  C
  C662     1.0000 0.74910  0.56130  0.04400  Biso   1.000  C
  C663     1.0000 0.74910  0.43870  0.95600  Biso   1.000  C
  C664     1.0000 0.25090  0.56130  0.95600  Biso   1.000  C
  C665     1.0000 0.04400  0.25090  0.43870  Biso   1.000  C
  C666     1.0000 0.04400  0.74910  0.56130  Biso   1.000  C
  C667     1.0000 0.95600  0.74910  0.43870  Biso   1.000  C
  C668     1.0000 0.95600  0.25090  0.56130  Biso   1.000  C
  C669     1.0000 0.43870  0.04400  0.25090  Biso   1.000  C
  C670     1.0000 0.56130  0.04400  0.74910  Biso   1.000  C
  C671     1.0000 0.43870  0.95600  0.74910  Biso   1.000  C
  C672     1.0000 0.56130  0.95600  0.25090  Biso   1.000  C
  C673     1.0000 0.24950  0.10010  0.43040  Biso   1.000  C
  C674     1.0000 0.75050  0.89990  0.43040  Biso   1.000  C
  C675     1.0000 0.75050  0.10010  0.56960  Biso   1.000  C
  C676     1.0000 0.24950  0.89990  0.56960  Biso   1.000  C
  C677     1.0000 0.43040  0.24950  0.10010  Biso   1.000  C
  C678     1.0000 0.43040  0.75050  0.89990  Biso   1.000  C
  C679     1.0000 0.56960  0.75050  0.10010  Biso   1.000  C
  C680     1.0000 0.56960  0.24950  0.89990  Biso   1.000  C
  C681     1.0000 0.10010  0.43040  0.24950  Biso   1.000  C
  C682     1.0000 0.89990  0.43040  0.75050  Biso   1.000  C
  C683     1.0000 0.10010  0.56960  0.75050  Biso   1.000  C
  C684     1.0000 0.89990  0.56960  0.24950  Biso   1.000  C
  C685     1.0000 0.74950  0.60010  0.93040  Biso   1.000  C
  C686     1.0000 0.25050  0.39990  0.93040  Biso   1.000  C
  C687     1.0000 0.25050  0.60010  0.06960  Biso   1.000  C
  C688     1.0000 0.74950  0.39990  0.06960  Biso   1.000  C
  C689     1.0000 0.93040  0.74950  0.60010  Biso   1.000  C
  C690     1.0000 0.93040  0.25050  0.39990  Biso   1.000  C
  C691     1.0000 0.06960  0.25050  0.60010  Biso   1.000  C
  C692     1.0000 0.06960  0.74950  0.39990  Biso   1.000  C
  C693     1.0000 0.60010  0.93040  0.74950  Biso   1.000  C
  C694     1.0000 0.39990  0.93040  0.25050  Biso   1.000  C
  C695     1.0000 0.60010  0.06960  0.25050  Biso   1.000  C
  C696     1.0000 0.39990  0.06960  0.74950  Biso   1.000  C
  C697     1.0000 0.75050  0.89990  0.56960  Biso   1.000  C
  C698     1.0000 0.24950  0.10010  0.56960  Biso   1.000  C
  C699     1.0000 0.24950  0.89990  0.43040  Biso   1.000  C
  C700     1.0000 0.75050  0.10010  0.43040  Biso   1.000  C
  C701     1.0000 0.56960  0.75050  0.89990  Biso   1.000  C
  C702     1.0000 0.56960  0.24950  0.10010  Biso   1.000  C
  C703     1.0000 0.43040  0.24950  0.89990  Biso   1.000  C
  C704     1.0000 0.43040  0.75050  0.10010  Biso   1.000  C
  C705     1.0000 0.89990  0.56960  0.75050  Biso   1.000  C
  C706     1.0000 0.10010  0.56960  0.24950  Biso   1.000  C
  C707     1.0000 0.89990  0.43040  0.24950  Biso   1.000  C
  C708     1.0000 0.10010  0.43040  0.75050  Biso   1.000  C
  C709     1.0000 0.25050  0.39990  0.06960  Biso   1.000  C
  C710     1.0000 0.74950  0.60010  0.06960  Biso   1.000  C
  C711     1.0000 0.74950  0.39990  0.93040  Biso   1.000  C
  C712     1.0000 0.25050  0.60010  0.93040  Biso   1.000  C
  C713     1.0000 0.06960  0.25050  0.39990  Biso   1.000  C
  C714     1.0000 0.06960  0.74950  0.60010  Biso   1.000  C
  C715     1.0000 0.93040  0.74950  0.39990  Biso   1.000  C
  C716     1.0000 0.93040  0.25050  0.60010  Biso   1.000  C
  C717     1.0000 0.39990  0.06960  0.25050  Biso   1.000  C
  C718     1.0000 0.60010  0.06960  0.74950  Biso   1.000  C
  C719     1.0000 0.39990  0.93040  0.74950  Biso   1.000  C
  C720     1.0000 0.60010  0.93040  0.25050  Biso   1.000  C
  C721     1.0000 0.21270  0.11750  0.41750  Biso   1.000  C
  C722     1.0000 0.78730  0.88250  0.41750  Biso   1.000  C
  C723     1.0000 0.78730  0.11750  0.58250  Biso   1.000  C
  C724     1.0000 0.21270  0.88250  0.58250  Biso   1.000  C
  C725     1.0000 0.41750  0.21270  0.11750  Biso   1.000  C
  C726     1.0000 0.41750  0.78730  0.88250  Biso   1.000  C
  C727     1.0000 0.58250  0.78730  0.11750  Biso   1.000  C
  C728     1.0000 0.58250  0.21270  0.88250  Biso   1.000  C
  C729     1.0000 0.11750  0.41750  0.21270  Biso   1.000  C
  C730     1.0000 0.88250  0.41750  0.78730  Biso   1.000  C
  C731     1.0000 0.11750  0.58250  0.78730  Biso   1.000  C
  C732     1.0000 0.88250  0.58250  0.21270  Biso   1.000  C
  C733     1.0000 0.71270  0.61750  0.91750  Biso   1.000  C
  C734     1.0000 0.28730  0.38250  0.91750  Biso   1.000  C
  C735     1.0000 0.28730  0.61750  0.08250  Biso   1.000  C
  C736     1.0000 0.71270  0.38250  0.08250  Biso   1.000  C
  C737     1.0000 0.91750  0.71270  0.61750  Biso   1.000  C
  C738     1.0000 0.91750  0.28730  0.38250  Biso   1.000  C
  C739     1.0000 0.08250  0.28730  0.61750  Biso   1.000  C
  C740     1.0000 0.08250  0.71270  0.38250  Biso   1.000  C
  C741     1.0000 0.61750  0.91750  0.71270  Biso   1.000  C
  C742     1.0000 0.38250  0.91750  0.28730  Biso   1.000  C
  C743     1.0000 0.61750  0.08250  0.28730  Biso   1.000  C
  C744     1.0000 0.38250  0.08250  0.71270  Biso   1.000  C
  C745     1.0000 0.78730  0.88250  0.58250  Biso   1.000  C
  C746     1.0000 0.21270  0.11750  0.58250  Biso   1.000  C
  C747     1.0000 0.21270  0.88250  0.41750  Biso   1.000  C
  C748     1.0000 0.78730  0.11750  0.41750  Biso   1.000  C
  C749     1.0000 0.58250  0.78730  0.88250  Biso   1.000  C
  C750     1.0000 0.58250  0.21270  0.11750  Biso   1.000  C
  C751     1.0000 0.41750  0.21270  0.88250  Biso   1.000  C
  C752     1.0000 0.41750  0.78730  0.11750  Biso   1.000  C
  C753     1.0000 0.88250  0.58250  0.78730  Biso   1.000  C
  C754     1.0000 0.11750  0.58250  0.21270  Biso   1.000  C
  C755     1.0000 0.88250  0.41750  0.21270  Biso   1.000  C
  C756     1.0000 0.11750  0.41750  0.78730  Biso   1.000  C
  C757     1.0000 0.28730  0.38250  0.08250  Biso   1.000  C
  C758     1.0000 0.71270  0.61750  0.08250  Biso   1.000  C
  C759     1.0000 0.71270  0.38250  0.91750  Biso   1.000  C
  C760     1.0000 0.28730  0.61750  0.91750  Biso   1.000  C
  C761     1.0000 0.08250  0.28730  0.38250  Biso   1.000  C
  C762     1.0000 0.08250  0.71270  0.61750  Biso   1.000  C
  C763     1.0000 0.91750  0.71270  0.38250  Biso   1.000  C
  C764     1.0000 0.91750  0.28730  0.61750  Biso   1.000  C
  C765     1.0000 0.38250  0.08250  0.28730  Biso   1.000  C
  C766     1.0000 0.61750  0.08250  0.71270  Biso   1.000  C
  C767     1.0000 0.38250  0.91750  0.71270  Biso   1.000  C
  C768     1.0000 0.61750  0.91750  0.28730  Biso   1.000  C
  H337     1.0000 0.18770  0.10650  0.42700  Biso   1.000  H
  H338     1.0000 0.81230  0.89350  0.42700  Biso   1.000  H
  H339     1.0000 0.81230  0.10650  0.57300  Biso   1.000  H
  H340     1.0000 0.18770  0.89350  0.57300  Biso   1.000  H
  H341     1.0000 0.42700  0.18770  0.10650  Biso   1.000  H
  H342     1.0000 0.42700  0.81230  0.89350  Biso   1.000  H
  H343     1.0000 0.57300  0.81230  0.10650  Biso   1.000  H
  H344     1.0000 0.57300  0.18770  0.89350  Biso   1.000  H
  H345     1.0000 0.10650  0.42700  0.18770  Biso   1.000  H
  H346     1.0000 0.89350  0.42700  0.81230  Biso   1.000  H
  H347     1.0000 0.10650  0.57300  0.81230  Biso   1.000  H
  H348     1.0000 0.89350  0.57300  0.18770  Biso   1.000  H
  H349     1.0000 0.68770  0.60650  0.92700  Biso   1.000  H
  H350     1.0000 0.31230  0.39350  0.92700  Biso   1.000  H
  H351     1.0000 0.31230  0.60650  0.07300  Biso   1.000  H
  H352     1.0000 0.68770  0.39350  0.07300  Biso   1.000  H
  H353     1.0000 0.92700  0.68770  0.60650  Biso   1.000  H
  H354     1.0000 0.92700  0.31230  0.39350  Biso   1.000  H
  H355     1.0000 0.07300  0.31230  0.60650  Biso   1.000  H
  H356     1.0000 0.07300  0.68770  0.39350  Biso   1.000  H
  H357     1.0000 0.60650  0.92700  0.68770  Biso   1.000  H
  H358     1.0000 0.39350  0.92700  0.31230  Biso   1.000  H
  H359     1.0000 0.60650  0.07300  0.31230  Biso   1.000  H
  H360     1.0000 0.39350  0.07300  0.68770  Biso   1.000  H
  H361     1.0000 0.81230  0.89350  0.57300  Biso   1.000  H
  H362     1.0000 0.18770  0.10650  0.57300  Biso   1.000  H
  H363     1.0000 0.18770  0.89350  0.42700  Biso   1.000  H
  H364     1.0000 0.81230  0.10650  0.42700  Biso   1.000  H
  H365     1.0000 0.57300  0.81230  0.89350  Biso   1.000  H
  H366     1.0000 0.57300  0.18770  0.10650  Biso   1.000  H
  H367     1.0000 0.42700  0.18770  0.89350  Biso   1.000  H
  H368     1.0000 0.42700  0.81230  0.10650  Biso   1.000  H
  H369     1.0000 0.89350  0.57300  0.81230  Biso   1.000  H
  H370     1.0000 0.10650  0.57300  0.18770  Biso   1.000  H
  H371     1.0000 0.89350  0.42700  0.18770  Biso   1.000  H
  H372     1.0000 0.10650  0.42700  0.81230  Biso   1.000  H
  H373     1.0000 0.31230  0.39350  0.07300  Biso   1.000  H
  H374     1.0000 0.68770  0.60650  0.07300  Biso   1.000  H
  H375     1.0000 0.68770  0.39350  0.92700  Biso   1.000  H
  H376     1.0000 0.31230  0.60650  0.92700  Biso   1.000  H
  H377     1.0000 0.07300  0.31230  0.39350  Biso   1.000  H
  H378     1.0000 0.07300  0.68770  0.60650  Biso   1.000  H
  H379     1.0000 0.92700  0.68770  0.39350  Biso   1.000  H
  H380     1.0000 0.92700  0.31230  0.60650  Biso   1.000  H
  H381     1.0000 0.39350  0.07300  0.31230  Biso   1.000  H
  H382     1.0000 0.60650  0.07300  0.68770  Biso   1.000  H
  H383     1.0000 0.39350  0.92700  0.68770  Biso   1.000  H
  H384     1.0000 0.60650  0.92700  0.31230  Biso   1.000  H
  C769     1.0000 0.21220  0.14920  0.39340  Biso   1.000  C
  C770     1.0000 0.78780  0.85080  0.39340  Biso   1.000  C
  C771     1.0000 0.78780  0.14920  0.60660  Biso   1.000  C
  C772     1.0000 0.21220  0.85080  0.60660  Biso   1.000  C
  C773     1.0000 0.39340  0.21220  0.14920  Biso   1.000  C
  C774     1.0000 0.39340  0.78780  0.85080  Biso   1.000  C
  C775     1.0000 0.60660  0.78780  0.14920  Biso   1.000  C
  C776     1.0000 0.60660  0.21220  0.85080  Biso   1.000  C
  C777     1.0000 0.14920  0.39340  0.21220  Biso   1.000  C
  C778     1.0000 0.85080  0.39340  0.78780  Biso   1.000  C
  C779     1.0000 0.14920  0.60660  0.78780  Biso   1.000  C
  C780     1.0000 0.85080  0.60660  0.21220  Biso   1.000  C
  C781     1.0000 0.71220  0.64920  0.89340  Biso   1.000  C
  C782     1.0000 0.28780  0.35080  0.89340  Biso   1.000  C
  C783     1.0000 0.28780  0.64920  0.10660  Biso   1.000  C
  C784     1.0000 0.71220  0.35080  0.10660  Biso   1.000  C
  C785     1.0000 0.89340  0.71220  0.64920  Biso   1.000  C
  C786     1.0000 0.89340  0.28780  0.35080  Biso   1.000  C
  C787     1.0000 0.10660  0.28780  0.64920  Biso   1.000  C
  C788     1.0000 0.10660  0.71220  0.35080  Biso   1.000  C
  C789     1.0000 0.64920  0.89340  0.71220  Biso   1.000  C
  C790     1.0000 0.35080  0.89340  0.28780  Biso   1.000  C
  C791     1.0000 0.64920  0.10660  0.28780  Biso   1.000  C
  C792     1.0000 0.35080  0.10660  0.71220  Biso   1.000  C
  C793     1.0000 0.78780  0.85080  0.60660  Biso   1.000  C
  C794     1.0000 0.21220  0.14920  0.60660  Biso   1.000  C
  C795     1.0000 0.21220  0.85080  0.39340  Biso   1.000  C
  C796     1.0000 0.78780  0.14920  0.39340  Biso   1.000  C
  C797     1.0000 0.60660  0.78780  0.85080  Biso   1.000  C
  C798     1.0000 0.60660  0.21220  0.14920  Biso   1.000  C
  C799     1.0000 0.39340  0.21220  0.85080  Biso   1.000  C
  C800     1.0000 0.39340  0.78780  0.14920  Biso   1.000  C
  C801     1.0000 0.85080  0.60660  0.78780  Biso   1.000  C
  C802     1.0000 0.14920  0.60660  0.21220  Biso   1.000  C
  C803     1.0000 0.85080  0.39340  0.21220  Biso   1.000  C
  C804     1.0000 0.14920  0.39340  0.78780  Biso   1.000  C
  C805     1.0000 0.28780  0.35080  0.10660  Biso   1.000  C
  C806     1.0000 0.71220  0.64920  0.10660  Biso   1.000  C
  C807     1.0000 0.71220  0.35080  0.89340  Biso   1.000  C
  C808     1.0000 0.28780  0.64920  0.89340  Biso   1.000  C
  C809     1.0000 0.10660  0.28780  0.35080  Biso   1.000  C
  C810     1.0000 0.10660  0.71220  0.64920  Biso   1.000  C
  C811     1.0000 0.89340  0.71220  0.35080  Biso   1.000  C
  C812     1.0000 0.89340  0.28780  0.64920  Biso   1.000  C
  C813     1.0000 0.35080  0.10660  0.28780  Biso   1.000  C
  C814     1.0000 0.64920  0.10660  0.71220  Biso   1.000  C
  C815     1.0000 0.35080  0.89340  0.71220  Biso   1.000  C
  C816     1.0000 0.64920  0.89340  0.28780  Biso   1.000  C
  H385     1.0000 0.18750  0.15910  0.38380  Biso   1.000  H
  H386     1.0000 0.81250  0.84090  0.38380  Biso   1.000  H
  H387     1.0000 0.81250  0.15910  0.61620  Biso   1.000  H
  H388     1.0000 0.18750  0.84090  0.61620  Biso   1.000  H
  H389     1.0000 0.38380  0.18750  0.15910  Biso   1.000  H
  H390     1.0000 0.38380  0.81250  0.84090  Biso   1.000  H
  H391     1.0000 0.61620  0.81250  0.15910  Biso   1.000  H
  H392     1.0000 0.61620  0.18750  0.84090  Biso   1.000  H
  H393     1.0000 0.15910  0.38380  0.18750  Biso   1.000  H
  H394     1.0000 0.84090  0.38380  0.81250  Biso   1.000  H
  H395     1.0000 0.15910  0.61620  0.81250  Biso   1.000  H
  H396     1.0000 0.84090  0.61620  0.18750  Biso   1.000  H
  H397     1.0000 0.68750  0.65910  0.88380  Biso   1.000  H
  H398     1.0000 0.31250  0.34090  0.88380  Biso   1.000  H
  H399     1.0000 0.31250  0.65910  0.11620  Biso   1.000  H
  H400     1.0000 0.68750  0.34090  0.11620  Biso   1.000  H
  H401     1.0000 0.88380  0.68750  0.65910  Biso   1.000  H
  H402     1.0000 0.88380  0.31250  0.34090  Biso   1.000  H
  H403     1.0000 0.11620  0.31250  0.65910  Biso   1.000  H
  H404     1.0000 0.11620  0.68750  0.34090  Biso   1.000  H
  H405     1.0000 0.65910  0.88380  0.68750  Biso   1.000  H
  H406     1.0000 0.34090  0.88380  0.31250  Biso   1.000  H
  H407     1.0000 0.65910  0.11620  0.31250  Biso   1.000  H
  H408     1.0000 0.34090  0.11620  0.68750  Biso   1.000  H
  H409     1.0000 0.81250  0.84090  0.61620  Biso   1.000  H
  H410     1.0000 0.18750  0.15910  0.61620  Biso   1.000  H
  H411     1.0000 0.18750  0.84090  0.38380  Biso   1.000  H
  H412     1.0000 0.81250  0.15910  0.38380  Biso   1.000  H
  H413     1.0000 0.61620  0.81250  0.84090  Biso   1.000  H
  H414     1.0000 0.61620  0.18750  0.15910  Biso   1.000  H
  H415     1.0000 0.38380  0.18750  0.84090  Biso   1.000  H
  H416     1.0000 0.38380  0.81250  0.15910  Biso   1.000  H
  H417     1.0000 0.84090  0.61620  0.81250  Biso   1.000  H
  H418     1.0000 0.15910  0.61620  0.18750  Biso   1.000  H
  H419     1.0000 0.84090  0.38380  0.18750  Biso   1.000  H
  H420     1.0000 0.15910  0.38380  0.81250  Biso   1.000  H
  H421     1.0000 0.31250  0.34090  0.11620  Biso   1.000  H
  H422     1.0000 0.68750  0.65910  0.11620  Biso   1.000  H
  H423     1.0000 0.68750  0.34090  0.88380  Biso   1.000  H
  H424     1.0000 0.31250  0.65910  0.88380  Biso   1.000  H
  H425     1.0000 0.11620  0.31250  0.34090  Biso   1.000  H
  H426     1.0000 0.11620  0.68750  0.65910  Biso   1.000  H
  H427     1.0000 0.88380  0.68750  0.34090  Biso   1.000  H
  H428     1.0000 0.88380  0.31250  0.65910  Biso   1.000  H
  H429     1.0000 0.34090  0.11620  0.31250  Biso   1.000  H
  H430     1.0000 0.65910  0.11620  0.68750  Biso   1.000  H
  H431     1.0000 0.34090  0.88380  0.68750  Biso   1.000  H
  H432     1.0000 0.65910  0.88380  0.31250  Biso   1.000  H
  C817     1.0000 0.24830  0.16830  0.38070  Biso   1.000  C
  C818     1.0000 0.75170  0.83170  0.38070  Biso   1.000  C
  C819     1.0000 0.75170  0.16830  0.61930  Biso   1.000  C
  C820     1.0000 0.24830  0.83170  0.61930  Biso   1.000  C
  C821     1.0000 0.38070  0.24830  0.16830  Biso   1.000  C
  C822     1.0000 0.38070  0.75170  0.83170  Biso   1.000  C
  C823     1.0000 0.61930  0.75170  0.16830  Biso   1.000  C
  C824     1.0000 0.61930  0.24830  0.83170  Biso   1.000  C
  C825     1.0000 0.16830  0.38070  0.24830  Biso   1.000  C
  C826     1.0000 0.83170  0.38070  0.75170  Biso   1.000  C
  C827     1.0000 0.16830  0.61930  0.75170  Biso   1.000  C
  C828     1.0000 0.83170  0.61930  0.24830  Biso   1.000  C
  C829     1.0000 0.74830  0.66830  0.88070  Biso   1.000  C
  C830     1.0000 0.25170  0.33170  0.88070  Biso   1.000  C
  C831     1.0000 0.25170  0.66830  0.11930  Biso   1.000  C
  C832     1.0000 0.74830  0.33170  0.11930  Biso   1.000  C
  C833     1.0000 0.88070  0.74830  0.66830  Biso   1.000  C
  C834     1.0000 0.88070  0.25170  0.33170  Biso   1.000  C
  C835     1.0000 0.11930  0.25170  0.66830  Biso   1.000  C
  C836     1.0000 0.11930  0.74830  0.33170  Biso   1.000  C
  C837     1.0000 0.66830  0.88070  0.74830  Biso   1.000  C
  C838     1.0000 0.33170  0.88070  0.25170  Biso   1.000  C
  C839     1.0000 0.66830  0.11930  0.25170  Biso   1.000  C
  C840     1.0000 0.33170  0.11930  0.74830  Biso   1.000  C
  C841     1.0000 0.75170  0.83170  0.61930  Biso   1.000  C
  C842     1.0000 0.24830  0.16830  0.61930  Biso   1.000  C
  C843     1.0000 0.24830  0.83170  0.38070  Biso   1.000  C
  C844     1.0000 0.75170  0.16830  0.38070  Biso   1.000  C
  C845     1.0000 0.61930  0.75170  0.83170  Biso   1.000  C
  C846     1.0000 0.61930  0.24830  0.16830  Biso   1.000  C
  C847     1.0000 0.38070  0.24830  0.83170  Biso   1.000  C
  C848     1.0000 0.38070  0.75170  0.16830  Biso   1.000  C
  C849     1.0000 0.83170  0.61930  0.75170  Biso   1.000  C
  C850     1.0000 0.16830  0.61930  0.24830  Biso   1.000  C
  C851     1.0000 0.83170  0.38070  0.24830  Biso   1.000  C
  C852     1.0000 0.16830  0.38070  0.75170  Biso   1.000  C
  C853     1.0000 0.25170  0.33170  0.11930  Biso   1.000  C
  C854     1.0000 0.74830  0.66830  0.11930  Biso   1.000  C
  C855     1.0000 0.74830  0.33170  0.88070  Biso   1.000  C
  C856     1.0000 0.25170  0.66830  0.88070  Biso   1.000  C
  C857     1.0000 0.11930  0.25170  0.33170  Biso   1.000  C
  C858     1.0000 0.11930  0.74830  0.66830  Biso   1.000  C
  C859     1.0000 0.88070  0.74830  0.33170  Biso   1.000  C
  C860     1.0000 0.88070  0.25170  0.66830  Biso   1.000  C
  C861     1.0000 0.33170  0.11930  0.25170  Biso   1.000  C
  C862     1.0000 0.66830  0.11930  0.74830  Biso   1.000  C
  C863     1.0000 0.33170  0.88070  0.74830  Biso   1.000  C
  C864     1.0000 0.66830  0.88070  0.25170  Biso   1.000  C
  C865     1.0000 0.24930  0.20180  0.35460  Biso   1.000  C
  C866     1.0000 0.75070  0.79820  0.35460  Biso   1.000  C
  C867     1.0000 0.75070  0.20180  0.64540  Biso   1.000  C
  C868     1.0000 0.24930  0.79820  0.64540  Biso   1.000  C
  C869     1.0000 0.35460  0.24930  0.20180  Biso   1.000  C
  C870     1.0000 0.35460  0.75070  0.79820  Biso   1.000  C
  C871     1.0000 0.64540  0.75070  0.20180  Biso   1.000  C
  C872     1.0000 0.64540  0.24930  0.79820  Biso   1.000  C
  C873     1.0000 0.20180  0.35460  0.24930  Biso   1.000  C
  C874     1.0000 0.79820  0.35460  0.75070  Biso   1.000  C
  C875     1.0000 0.20180  0.64540  0.75070  Biso   1.000  C
  C876     1.0000 0.79820  0.64540  0.24930  Biso   1.000  C
  C877     1.0000 0.74930  0.70180  0.85460  Biso   1.000  C
  C878     1.0000 0.25070  0.29820  0.85460  Biso   1.000  C
  C879     1.0000 0.25070  0.70180  0.14540  Biso   1.000  C
  C880     1.0000 0.74930  0.29820  0.14540  Biso   1.000  C
  C881     1.0000 0.85460  0.74930  0.70180  Biso   1.000  C
  C882     1.0000 0.85460  0.25070  0.29820  Biso   1.000  C
  C883     1.0000 0.14540  0.25070  0.70180  Biso   1.000  C
  C884     1.0000 0.14540  0.74930  0.29820  Biso   1.000  C
  C885     1.0000 0.70180  0.85460  0.74930  Biso   1.000  C
  C886     1.0000 0.29820  0.85460  0.25070  Biso   1.000  C
  C887     1.0000 0.70180  0.14540  0.25070  Biso   1.000  C
  C888     1.0000 0.29820  0.14540  0.74930  Biso   1.000  C
  C889     1.0000 0.75070  0.79820  0.64540  Biso   1.000  C
  C890     1.0000 0.24930  0.20180  0.64540  Biso   1.000  C
  C891     1.0000 0.24930  0.79820  0.35460  Biso   1.000  C
  C892     1.0000 0.75070  0.20180  0.35460  Biso   1.000  C
  C893     1.0000 0.64540  0.75070  0.79820  Biso   1.000  C
  C894     1.0000 0.64540  0.24930  0.20180  Biso   1.000  C
  C895     1.0000 0.35460  0.24930  0.79820  Biso   1.000  C
  C896     1.0000 0.35460  0.75070  0.20180  Biso   1.000  C
  C897     1.0000 0.79820  0.64540  0.75070  Biso   1.000  C
  C898     1.0000 0.20180  0.64540  0.24930  Biso   1.000  C
  C899     1.0000 0.79820  0.35460  0.24930  Biso   1.000  C
  C900     1.0000 0.20180  0.35460  0.75070  Biso   1.000  C
  C901     1.0000 0.25070  0.29820  0.14540  Biso   1.000  C
  C902     1.0000 0.74930  0.70180  0.14540  Biso   1.000  C
  C903     1.0000 0.74930  0.29820  0.85460  Biso   1.000  C
  C904     1.0000 0.25070  0.70180  0.85460  Biso   1.000  C
  C905     1.0000 0.14540  0.25070  0.29820  Biso   1.000  C
  C906     1.0000 0.14540  0.74930  0.70180  Biso   1.000  C
  C907     1.0000 0.85460  0.74930  0.29820  Biso   1.000  C
  C908     1.0000 0.85460  0.25070  0.70180  Biso   1.000  C
  C909     1.0000 0.29820  0.14540  0.25070  Biso   1.000  C
  C910     1.0000 0.70180  0.14540  0.74930  Biso   1.000  C
  C911     1.0000 0.29820  0.85460  0.74930  Biso   1.000  C
  C912     1.0000 0.70180  0.85460  0.25070  Biso   1.000  C
  H433     1.0000 0.22460  0.21260  0.34600  Biso   1.000  H
  H434     1.0000 0.77540  0.78740  0.34600  Biso   1.000  H
  H435     1.0000 0.77540  0.21260  0.65400  Biso   1.000  H
  H436     1.0000 0.22460  0.78740  0.65400  Biso   1.000  H
  H437     1.0000 0.34600  0.22460  0.21260  Biso   1.000  H
  H438     1.0000 0.34600  0.77540  0.78740  Biso   1.000  H
  H439     1.0000 0.65400  0.77540  0.21260  Biso   1.000  H
  H440     1.0000 0.65400  0.22460  0.78740  Biso   1.000  H
  H441     1.0000 0.21260  0.34600  0.22460  Biso   1.000  H
  H442     1.0000 0.78740  0.34600  0.77540  Biso   1.000  H
  H443     1.0000 0.21260  0.65400  0.77540  Biso   1.000  H
  H444     1.0000 0.78740  0.65400  0.22460  Biso   1.000  H
  H445     1.0000 0.72460  0.71260  0.84600  Biso   1.000  H
  H446     1.0000 0.27540  0.28740  0.84600  Biso   1.000  H
  H447     1.0000 0.27540  0.71260  0.15400  Biso   1.000  H
  H448     1.0000 0.72460  0.28740  0.15400  Biso   1.000  H
  H449     1.0000 0.84600  0.72460  0.71260  Biso   1.000  H
  H450     1.0000 0.84600  0.27540  0.28740  Biso   1.000  H
  H451     1.0000 0.15400  0.27540  0.71260  Biso   1.000  H
  H452     1.0000 0.15400  0.72460  0.28740  Biso   1.000  H
  H453     1.0000 0.71260  0.84600  0.72460  Biso   1.000  H
  H454     1.0000 0.28740  0.84600  0.27540  Biso   1.000  H
  H455     1.0000 0.71260  0.15400  0.27540  Biso   1.000  H
  H456     1.0000 0.28740  0.15400  0.72460  Biso   1.000  H
  H457     1.0000 0.77540  0.78740  0.65400  Biso   1.000  H
  H458     1.0000 0.22460  0.21260  0.65400  Biso   1.000  H
  H459     1.0000 0.22460  0.78740  0.34600  Biso   1.000  H
  H460     1.0000 0.77540  0.21260  0.34600  Biso   1.000  H
  H461     1.0000 0.65400  0.77540  0.78740  Biso   1.000  H
  H462     1.0000 0.65400  0.22460  0.21260  Biso   1.000  H
  H463     1.0000 0.34600  0.22460  0.78740  Biso   1.000  H
  H464     1.0000 0.34600  0.77540  0.21260  Biso   1.000  H
  H465     1.0000 0.78740  0.65400  0.77540  Biso   1.000  H
  H466     1.0000 0.21260  0.65400  0.22460  Biso   1.000  H
  H467     1.0000 0.78740  0.34600  0.22460  Biso   1.000  H
  H468     1.0000 0.21260  0.34600  0.77540  Biso   1.000  H
  H469     1.0000 0.27540  0.28740  0.15400  Biso   1.000  H
  H470     1.0000 0.72460  0.71260  0.15400  Biso   1.000  H
  H471     1.0000 0.72460  0.28740  0.84600  Biso   1.000  H
  H472     1.0000 0.27540  0.71260  0.84600  Biso   1.000  H
  H473     1.0000 0.15400  0.27540  0.28740  Biso   1.000  H
  H474     1.0000 0.15400  0.72460  0.71260  Biso   1.000  H
  H475     1.0000 0.84600  0.72460  0.28740  Biso   1.000  H
  H476     1.0000 0.84600  0.27540  0.71260  Biso   1.000  H
  H477     1.0000 0.28740  0.15400  0.27540  Biso   1.000  H
  H478     1.0000 0.71260  0.15400  0.72460  Biso   1.000  H
  H479     1.0000 0.28740  0.84600  0.72460  Biso   1.000  H
  H480     1.0000 0.71260  0.84600  0.27540  Biso   1.000  H
  C913     1.0000 0.28340  0.21790  0.34200  Biso   1.000  C
  C914     1.0000 0.71660  0.78210  0.34200  Biso   1.000  C
  C915     1.0000 0.71660  0.21790  0.65800  Biso   1.000  C
  C916     1.0000 0.28340  0.78210  0.65800  Biso   1.000  C
  C917     1.0000 0.34200  0.28340  0.21790  Biso   1.000  C
  C918     1.0000 0.34200  0.71660  0.78210  Biso   1.000  C
  C919     1.0000 0.65800  0.71660  0.21790  Biso   1.000  C
  C920     1.0000 0.65800  0.28340  0.78210  Biso   1.000  C
  C921     1.0000 0.21790  0.34200  0.28340  Biso   1.000  C
  C922     1.0000 0.78210  0.34200  0.71660  Biso   1.000  C
  C923     1.0000 0.21790  0.65800  0.71660  Biso   1.000  C
  C924     1.0000 0.78210  0.65800  0.28340  Biso   1.000  C
  C925     1.0000 0.78340  0.71790  0.84200  Biso   1.000  C
  C926     1.0000 0.21660  0.28210  0.84200  Biso   1.000  C
  C927     1.0000 0.21660  0.71790  0.15800  Biso   1.000  C
  C928     1.0000 0.78340  0.28210  0.15800  Biso   1.000  C
  C929     1.0000 0.84200  0.78340  0.71790  Biso   1.000  C
  C930     1.0000 0.84200  0.21660  0.28210  Biso   1.000  C
  C931     1.0000 0.15800  0.21660  0.71790  Biso   1.000  C
  C932     1.0000 0.15800  0.78340  0.28210  Biso   1.000  C
  C933     1.0000 0.71790  0.84200  0.78340  Biso   1.000  C
  C934     1.0000 0.28210  0.84200  0.21660  Biso   1.000  C
  C935     1.0000 0.71790  0.15800  0.21660  Biso   1.000  C
  C936     1.0000 0.28210  0.15800  0.78340  Biso   1.000  C
  C937     1.0000 0.71660  0.78210  0.65800  Biso   1.000  C
  C938     1.0000 0.28340  0.21790  0.65800  Biso   1.000  C
  C939     1.0000 0.28340  0.78210  0.34200  Biso   1.000  C
  C940     1.0000 0.71660  0.21790  0.34200  Biso   1.000  C
  C941     1.0000 0.65800  0.71660  0.78210  Biso   1.000  C
  C942     1.0000 0.65800  0.28340  0.21790  Biso   1.000  C
  C943     1.0000 0.34200  0.28340  0.78210  Biso   1.000  C
  C944     1.0000 0.34200  0.71660  0.21790  Biso   1.000  C
  C945     1.0000 0.78210  0.65800  0.71660  Biso   1.000  C
  C946     1.0000 0.21790  0.65800  0.28340  Biso   1.000  C
  C947     1.0000 0.78210  0.34200  0.28340  Biso   1.000  C
  C948     1.0000 0.21790  0.34200  0.71660  Biso   1.000  C
  C949     1.0000 0.21660  0.28210  0.15800  Biso   1.000  C
  C950     1.0000 0.78340  0.71790  0.15800  Biso   1.000  C
  C951     1.0000 0.78340  0.28210  0.84200  Biso   1.000  C
  C952     1.0000 0.21660  0.71790  0.84200  Biso   1.000  C
  C953     1.0000 0.15800  0.21660  0.28210  Biso   1.000  C
  C954     1.0000 0.15800  0.78340  0.71790  Biso   1.000  C
  C955     1.0000 0.84200  0.78340  0.28210  Biso   1.000  C
  C956     1.0000 0.84200  0.21660  0.71790  Biso   1.000  C
  C957     1.0000 0.28210  0.15800  0.21660  Biso   1.000  C
  C958     1.0000 0.71790  0.15800  0.78340  Biso   1.000  C
  C959     1.0000 0.28210  0.84200  0.78340  Biso   1.000  C
  C960     1.0000 0.71790  0.84200  0.21660  Biso   1.000  C
  C961     1.0000 0.32170  0.20120  0.35660  Biso   1.000  C
  C962     1.0000 0.67830  0.79880  0.35660  Biso   1.000  C
  C963     1.0000 0.67830  0.20120  0.64340  Biso   1.000  C
  C964     1.0000 0.32170  0.79880  0.64340  Biso   1.000  C
  C965     1.0000 0.35660  0.32170  0.20120  Biso   1.000  C
  C966     1.0000 0.35660  0.67830  0.79880  Biso   1.000  C
  C967     1.0000 0.64340  0.67830  0.20120  Biso   1.000  C
  C968     1.0000 0.64340  0.32170  0.79880  Biso   1.000  C
  C969     1.0000 0.20120  0.35660  0.32170  Biso   1.000  C
  C970     1.0000 0.79880  0.35660  0.67830  Biso   1.000  C
  C971     1.0000 0.20120  0.64340  0.67830  Biso   1.000  C
  C972     1.0000 0.79880  0.64340  0.32170  Biso   1.000  C
  C973     1.0000 0.82170  0.70120  0.85660  Biso   1.000  C
  C974     1.0000 0.17830  0.29880  0.85660  Biso   1.000  C
  C975     1.0000 0.17830  0.70120  0.14340  Biso   1.000  C
  C976     1.0000 0.82170  0.29880  0.14340  Biso   1.000  C
  C977     1.0000 0.85660  0.82170  0.70120  Biso   1.000  C
  C978     1.0000 0.85660  0.17830  0.29880  Biso   1.000  C
  C979     1.0000 0.14340  0.17830  0.70120  Biso   1.000  C
  C980     1.0000 0.14340  0.82170  0.29880  Biso   1.000  C
  C981     1.0000 0.70120  0.85660  0.82170  Biso   1.000  C
  C982     1.0000 0.29880  0.85660  0.17830  Biso   1.000  C
  C983     1.0000 0.70120  0.14340  0.17830  Biso   1.000  C
  C984     1.0000 0.29880  0.14340  0.82170  Biso   1.000  C
  C985     1.0000 0.67830  0.79880  0.64340  Biso   1.000  C
  C986     1.0000 0.32170  0.20120  0.64340  Biso   1.000  C
  C987     1.0000 0.32170  0.79880  0.35660  Biso   1.000  C
  C988     1.0000 0.67830  0.20120  0.35660  Biso   1.000  C
  C989     1.0000 0.64340  0.67830  0.79880  Biso   1.000  C
  C990     1.0000 0.64340  0.32170  0.20120  Biso   1.000  C
  C991     1.0000 0.35660  0.32170  0.79880  Biso   1.000  C
  C992     1.0000 0.35660  0.67830  0.20120  Biso   1.000  C
  C993     1.0000 0.79880  0.64340  0.67830  Biso   1.000  C
  C994     1.0000 0.20120  0.64340  0.32170  Biso   1.000  C
  C995     1.0000 0.79880  0.35660  0.32170  Biso   1.000  C
  C996     1.0000 0.20120  0.35660  0.67830  Biso   1.000  C
  C997     1.0000 0.17830  0.29880  0.14340  Biso   1.000  C
  C998     1.0000 0.82170  0.70120  0.14340  Biso   1.000  C
  C999     1.0000 0.82170  0.29880  0.85660  Biso   1.000  C
  C1000    1.0000 0.17830  0.70120  0.85660  Biso   1.000  C
  C1001    1.0000 0.14340  0.17830  0.29880  Biso   1.000  C
  C1002    1.0000 0.14340  0.82170  0.70120  Biso   1.000  C
  C1003    1.0000 0.85660  0.82170  0.29880  Biso   1.000  C
  C1004    1.0000 0.85660  0.17830  0.70120  Biso   1.000  C
  C1005    1.0000 0.29880  0.14340  0.17830  Biso   1.000  C
  C1006    1.0000 0.70120  0.14340  0.82170  Biso   1.000  C
  C1007    1.0000 0.29880  0.85660  0.82170  Biso   1.000  C
  C1008    1.0000 0.70120  0.85660  0.17830  Biso   1.000  C
  H481     1.0000 0.34700  0.21310  0.34900  Biso   1.000  H
  H482     1.0000 0.65300  0.78690  0.34900  Biso   1.000  H
  H483     1.0000 0.65300  0.21310  0.65100  Biso   1.000  H
  H484     1.0000 0.34700  0.78690  0.65100  Biso   1.000  H
  H485     1.0000 0.34900  0.34700  0.21310  Biso   1.000  H
  H486     1.0000 0.34900  0.65300  0.78690  Biso   1.000  H
  H487     1.0000 0.65100  0.65300  0.21310  Biso   1.000  H
  H488     1.0000 0.65100  0.34700  0.78690  Biso   1.000  H
  H489     1.0000 0.21310  0.34900  0.34700  Biso   1.000  H
  H490     1.0000 0.78690  0.34900  0.65300  Biso   1.000  H
  H491     1.0000 0.21310  0.65100  0.65300  Biso   1.000  H
  H492     1.0000 0.78690  0.65100  0.34700  Biso   1.000  H
  H493     1.0000 0.84700  0.71310  0.84900  Biso   1.000  H
  H494     1.0000 0.15300  0.28690  0.84900  Biso   1.000  H
  H495     1.0000 0.15300  0.71310  0.15100  Biso   1.000  H
  H496     1.0000 0.84700  0.28690  0.15100  Biso   1.000  H
  H497     1.0000 0.84900  0.84700  0.71310  Biso   1.000  H
  H498     1.0000 0.84900  0.15300  0.28690  Biso   1.000  H
  H499     1.0000 0.15100  0.15300  0.71310  Biso   1.000  H
  H500     1.0000 0.15100  0.84700  0.28690  Biso   1.000  H
  H501     1.0000 0.71310  0.84900  0.84700  Biso   1.000  H
  H502     1.0000 0.28690  0.84900  0.15300  Biso   1.000  H
  H503     1.0000 0.71310  0.15100  0.15300  Biso   1.000  H
  H504     1.0000 0.28690  0.15100  0.84700  Biso   1.000  H
  H505     1.0000 0.65300  0.78690  0.65100  Biso   1.000  H
  H506     1.0000 0.34700  0.21310  0.65100  Biso   1.000  H
  H507     1.0000 0.34700  0.78690  0.34900  Biso   1.000  H
  H508     1.0000 0.65300  0.21310  0.34900  Biso   1.000  H
  H509     1.0000 0.65100  0.65300  0.78690  Biso   1.000  H
  H510     1.0000 0.65100  0.34700  0.21310  Biso   1.000  H
  H511     1.0000 0.34900  0.34700  0.78690  Biso   1.000  H
  H512     1.0000 0.34900  0.65300  0.21310  Biso   1.000  H
  H513     1.0000 0.78690  0.65100  0.65300  Biso   1.000  H
  H514     1.0000 0.21310  0.65100  0.34700  Biso   1.000  H
  H515     1.0000 0.78690  0.34900  0.34700  Biso   1.000  H
  H516     1.0000 0.21310  0.34900  0.65300  Biso   1.000  H
  H517     1.0000 0.15300  0.28690  0.15100  Biso   1.000  H
  H518     1.0000 0.84700  0.71310  0.15100  Biso   1.000  H
  H519     1.0000 0.84700  0.28690  0.84900  Biso   1.000  H
  H520     1.0000 0.15300  0.71310  0.84900  Biso   1.000  H
  H521     1.0000 0.15100  0.15300  0.28690  Biso   1.000  H
  H522     1.0000 0.15100  0.84700  0.71310  Biso   1.000  H
  H523     1.0000 0.84900  0.84700  0.28690  Biso   1.000  H
  H524     1.0000 0.84900  0.15300  0.71310  Biso   1.000  H
  H525     1.0000 0.28690  0.15100  0.15300  Biso   1.000  H
  H526     1.0000 0.71310  0.15100  0.84700  Biso   1.000  H
  H527     1.0000 0.28690  0.84900  0.84700  Biso   1.000  H
  H528     1.0000 0.71310  0.84900  0.15300  Biso   1.000  H
  C1009    1.0000 0.32140  0.17030  0.38130  Biso   1.000  C
  C1010    1.0000 0.67860  0.82970  0.38130  Biso   1.000  C
  C1011    1.0000 0.67860  0.17030  0.61870  Biso   1.000  C
  C1012    1.0000 0.32140  0.82970  0.61870  Biso   1.000  C
  C1013    1.0000 0.38130  0.32140  0.17030  Biso   1.000  C
  C1014    1.0000 0.38130  0.67860  0.82970  Biso   1.000  C
  C1015    1.0000 0.61870  0.67860  0.17030  Biso   1.000  C
  C1016    1.0000 0.61870  0.32140  0.82970  Biso   1.000  C
  C1017    1.0000 0.17030  0.38130  0.32140  Biso   1.000  C
  C1018    1.0000 0.82970  0.38130  0.67860  Biso   1.000  C
  C1019    1.0000 0.17030  0.61870  0.67860  Biso   1.000  C
  C1020    1.0000 0.82970  0.61870  0.32140  Biso   1.000  C
  C1021    1.0000 0.82140  0.67030  0.88130  Biso   1.000  C
  C1022    1.0000 0.17860  0.32970  0.88130  Biso   1.000  C
  C1023    1.0000 0.17860  0.67030  0.11870  Biso   1.000  C
  C1024    1.0000 0.82140  0.32970  0.11870  Biso   1.000  C
  C1025    1.0000 0.88130  0.82140  0.67030  Biso   1.000  C
  C1026    1.0000 0.88130  0.17860  0.32970  Biso   1.000  C
  C1027    1.0000 0.11870  0.17860  0.67030  Biso   1.000  C
  C1028    1.0000 0.11870  0.82140  0.32970  Biso   1.000  C
  C1029    1.0000 0.67030  0.88130  0.82140  Biso   1.000  C
  C1030    1.0000 0.32970  0.88130  0.17860  Biso   1.000  C
  C1031    1.0000 0.67030  0.11870  0.17860  Biso   1.000  C
  C1032    1.0000 0.32970  0.11870  0.82140  Biso   1.000  C
  C1033    1.0000 0.67860  0.82970  0.61870  Biso   1.000  C
  C1034    1.0000 0.32140  0.17030  0.61870  Biso   1.000  C
  C1035    1.0000 0.32140  0.82970  0.38130  Biso   1.000  C
  C1036    1.0000 0.67860  0.17030  0.38130  Biso   1.000  C
  C1037    1.0000 0.61870  0.67860  0.82970  Biso   1.000  C
  C1038    1.0000 0.61870  0.32140  0.17030  Biso   1.000  C
  C1039    1.0000 0.38130  0.32140  0.82970  Biso   1.000  C
  C1040    1.0000 0.38130  0.67860  0.17030  Biso   1.000  C
  C1041    1.0000 0.82970  0.61870  0.67860  Biso   1.000  C
  C1042    1.0000 0.17030  0.61870  0.32140  Biso   1.000  C
  C1043    1.0000 0.82970  0.38130  0.32140  Biso   1.000  C
  C1044    1.0000 0.17030  0.38130  0.67860  Biso   1.000  C
  C1045    1.0000 0.17860  0.32970  0.11870  Biso   1.000  C
  C1046    1.0000 0.82140  0.67030  0.11870  Biso   1.000  C
  C1047    1.0000 0.82140  0.32970  0.88130  Biso   1.000  C
  C1048    1.0000 0.17860  0.67030  0.88130  Biso   1.000  C
  C1049    1.0000 0.11870  0.17860  0.32970  Biso   1.000  C
  C1050    1.0000 0.11870  0.82140  0.67030  Biso   1.000  C
  C1051    1.0000 0.88130  0.82140  0.32970  Biso   1.000  C
  C1052    1.0000 0.88130  0.17860  0.67030  Biso   1.000  C
  C1053    1.0000 0.32970  0.11870  0.17860  Biso   1.000  C
  C1054    1.0000 0.67030  0.11870  0.82140  Biso   1.000  C
  C1055    1.0000 0.32970  0.88130  0.82140  Biso   1.000  C
  C1056    1.0000 0.67030  0.88130  0.17860  Biso   1.000  C
  H529     1.0000 0.34620  0.15990  0.39010  Biso   1.000  H
  H530     1.0000 0.65380  0.84010  0.39010  Biso   1.000  H
  H531     1.0000 0.65380  0.15990  0.60990  Biso   1.000  H
  H532     1.0000 0.34620  0.84010  0.60990  Biso   1.000  H
  H533     1.0000 0.39010  0.34620  0.15990  Biso   1.000  H
  H534     1.0000 0.39010  0.65380  0.84010  Biso   1.000  H
  H535     1.0000 0.60990  0.65380  0.15990  Biso   1.000  H
  H536     1.0000 0.60990  0.34620  0.84010  Biso   1.000  H
  H537     1.0000 0.15990  0.39010  0.34620  Biso   1.000  H
  H538     1.0000 0.84010  0.39010  0.65380  Biso   1.000  H
  H539     1.0000 0.15990  0.60990  0.65380  Biso   1.000  H
  H540     1.0000 0.84010  0.60990  0.34620  Biso   1.000  H
  H541     1.0000 0.84620  0.65990  0.89010  Biso   1.000  H
  H542     1.0000 0.15380  0.34010  0.89010  Biso   1.000  H
  H543     1.0000 0.15380  0.65990  0.10990  Biso   1.000  H
  H544     1.0000 0.84620  0.34010  0.10990  Biso   1.000  H
  H545     1.0000 0.89010  0.84620  0.65990  Biso   1.000  H
  H546     1.0000 0.89010  0.15380  0.34010  Biso   1.000  H
  H547     1.0000 0.10990  0.15380  0.65990  Biso   1.000  H
  H548     1.0000 0.10990  0.84620  0.34010  Biso   1.000  H
  H549     1.0000 0.65990  0.89010  0.84620  Biso   1.000  H
  H550     1.0000 0.34010  0.89010  0.15380  Biso   1.000  H
  H551     1.0000 0.65990  0.10990  0.15380  Biso   1.000  H
  H552     1.0000 0.34010  0.10990  0.84620  Biso   1.000  H
  H553     1.0000 0.65380  0.84010  0.60990  Biso   1.000  H
  H554     1.0000 0.34620  0.15990  0.60990  Biso   1.000  H
  H555     1.0000 0.34620  0.84010  0.39010  Biso   1.000  H
  H556     1.0000 0.65380  0.15990  0.39010  Biso   1.000  H
  H557     1.0000 0.60990  0.65380  0.84010  Biso   1.000  H
  H558     1.0000 0.60990  0.34620  0.15990  Biso   1.000  H
  H559     1.0000 0.39010  0.34620  0.84010  Biso   1.000  H
  H560     1.0000 0.39010  0.65380  0.15990  Biso   1.000  H
  H561     1.0000 0.84010  0.60990  0.65380  Biso   1.000  H
  H562     1.0000 0.15990  0.60990  0.34620  Biso   1.000  H
  H563     1.0000 0.84010  0.39010  0.34620  Biso   1.000  H
  H564     1.0000 0.15990  0.39010  0.65380  Biso   1.000  H
  H565     1.0000 0.15380  0.34010  0.10990  Biso   1.000  H
  H566     1.0000 0.84620  0.65990  0.10990  Biso   1.000  H
  H567     1.0000 0.84620  0.34010  0.89010  Biso   1.000  H
  H568     1.0000 0.15380  0.65990  0.89010  Biso   1.000  H
  H569     1.0000 0.10990  0.15380  0.34010  Biso   1.000  H
  H570     1.0000 0.10990  0.84620  0.65990  Biso   1.000  H
  H571     1.0000 0.89010  0.84620  0.34010  Biso   1.000  H
  H572     1.0000 0.89010  0.15380  0.65990  Biso   1.000  H
  H573     1.0000 0.34010  0.10990  0.15380  Biso   1.000  H
  H574     1.0000 0.65990  0.10990  0.84620  Biso   1.000  H
  H575     1.0000 0.34010  0.89010  0.84620  Biso   1.000  H
  H576     1.0000 0.65990  0.89010  0.15380  Biso   1.000  H
  C1057    1.0000 0.28640  0.15160  0.39440  Biso   1.000  C
  C1058    1.0000 0.71360  0.84840  0.39440  Biso   1.000  C
  C1059    1.0000 0.71360  0.15160  0.60560  Biso   1.000  C
  C1060    1.0000 0.28640  0.84840  0.60560  Biso   1.000  C
  C1061    1.0000 0.39440  0.28640  0.15160  Biso   1.000  C
  C1062    1.0000 0.39440  0.71360  0.84840  Biso   1.000  C
  C1063    1.0000 0.60560  0.71360  0.15160  Biso   1.000  C
  C1064    1.0000 0.60560  0.28640  0.84840  Biso   1.000  C
  C1065    1.0000 0.15160  0.39440  0.28640  Biso   1.000  C
  C1066    1.0000 0.84840  0.39440  0.71360  Biso   1.000  C
  C1067    1.0000 0.15160  0.60560  0.71360  Biso   1.000  C
  C1068    1.0000 0.84840  0.60560  0.28640  Biso   1.000  C
  C1069    1.0000 0.78640  0.65160  0.89440  Biso   1.000  C
  C1070    1.0000 0.21360  0.34840  0.89440  Biso   1.000  C
  C1071    1.0000 0.21360  0.65160  0.10560  Biso   1.000  C
  C1072    1.0000 0.78640  0.34840  0.10560  Biso   1.000  C
  C1073    1.0000 0.89440  0.78640  0.65160  Biso   1.000  C
  C1074    1.0000 0.89440  0.21360  0.34840  Biso   1.000  C
  C1075    1.0000 0.10560  0.21360  0.65160  Biso   1.000  C
  C1076    1.0000 0.10560  0.78640  0.34840  Biso   1.000  C
  C1077    1.0000 0.65160  0.89440  0.78640  Biso   1.000  C
  C1078    1.0000 0.34840  0.89440  0.21360  Biso   1.000  C
  C1079    1.0000 0.65160  0.10560  0.21360  Biso   1.000  C
  C1080    1.0000 0.34840  0.10560  0.78640  Biso   1.000  C
  C1081    1.0000 0.71360  0.84840  0.60560  Biso   1.000  C
  C1082    1.0000 0.28640  0.15160  0.60560  Biso   1.000  C
  C1083    1.0000 0.28640  0.84840  0.39440  Biso   1.000  C
  C1084    1.0000 0.71360  0.15160  0.39440  Biso   1.000  C
  C1085    1.0000 0.60560  0.71360  0.84840  Biso   1.000  C
  C1086    1.0000 0.60560  0.28640  0.15160  Biso   1.000  C
  C1087    1.0000 0.39440  0.28640  0.84840  Biso   1.000  C
  C1088    1.0000 0.39440  0.71360  0.15160  Biso   1.000  C
  C1089    1.0000 0.84840  0.60560  0.71360  Biso   1.000  C
  C1090    1.0000 0.15160  0.60560  0.28640  Biso   1.000  C
  C1091    1.0000 0.84840  0.39440  0.28640  Biso   1.000  C
  C1092    1.0000 0.15160  0.39440  0.71360  Biso   1.000  C
  C1093    1.0000 0.21360  0.34840  0.10560  Biso   1.000  C
  C1094    1.0000 0.78640  0.65160  0.10560  Biso   1.000  C
  C1095    1.0000 0.78640  0.34840  0.89440  Biso   1.000  C
  C1096    1.0000 0.21360  0.65160  0.89440  Biso   1.000  C
  C1097    1.0000 0.10560  0.21360  0.34840  Biso   1.000  C
  C1098    1.0000 0.10560  0.78640  0.65160  Biso   1.000  C
  C1099    1.0000 0.89440  0.78640  0.34840  Biso   1.000  C
  C1100    1.0000 0.89440  0.21360  0.65160  Biso   1.000  C
  C1101    1.0000 0.34840  0.10560  0.21360  Biso   1.000  C
  C1102    1.0000 0.65160  0.10560  0.78640  Biso   1.000  C
  C1103    1.0000 0.34840  0.89440  0.78640  Biso   1.000  C
  C1104    1.0000 0.65160  0.89440  0.21360  Biso   1.000  C
  C1105    1.0000 0.28490  0.11760  0.41920  Biso   1.000  C
  C1106    1.0000 0.71510  0.88240  0.41920  Biso   1.000  C
  C1107    1.0000 0.71510  0.11760  0.58080  Biso   1.000  C
  C1108    1.0000 0.28490  0.88240  0.58080  Biso   1.000  C
  C1109    1.0000 0.41920  0.28490  0.11760  Biso   1.000  C
  C1110    1.0000 0.41920  0.71510  0.88240  Biso   1.000  C
  C1111    1.0000 0.58080  0.71510  0.11760  Biso   1.000  C
  C1112    1.0000 0.58080  0.28490  0.88240  Biso   1.000  C
  C1113    1.0000 0.11760  0.41920  0.28490  Biso   1.000  C
  C1114    1.0000 0.88240  0.41920  0.71510  Biso   1.000  C
  C1115    1.0000 0.11760  0.58080  0.71510  Biso   1.000  C
  C1116    1.0000 0.88240  0.58080  0.28490  Biso   1.000  C
  C1117    1.0000 0.78490  0.61760  0.91920  Biso   1.000  C
  C1118    1.0000 0.21510  0.38240  0.91920  Biso   1.000  C
  C1119    1.0000 0.21510  0.61760  0.08080  Biso   1.000  C
  C1120    1.0000 0.78490  0.38240  0.08080  Biso   1.000  C
  C1121    1.0000 0.91920  0.78490  0.61760  Biso   1.000  C
  C1122    1.0000 0.91920  0.21510  0.38240  Biso   1.000  C
  C1123    1.0000 0.08080  0.21510  0.61760  Biso   1.000  C
  C1124    1.0000 0.08080  0.78490  0.38240  Biso   1.000  C
  C1125    1.0000 0.61760  0.91920  0.78490  Biso   1.000  C
  C1126    1.0000 0.38240  0.91920  0.21510  Biso   1.000  C
  C1127    1.0000 0.61760  0.08080  0.21510  Biso   1.000  C
  C1128    1.0000 0.38240  0.08080  0.78490  Biso   1.000  C
  C1129    1.0000 0.71510  0.88240  0.58080  Biso   1.000  C
  C1130    1.0000 0.28490  0.11760  0.58080  Biso   1.000  C
  C1131    1.0000 0.28490  0.88240  0.41920  Biso   1.000  C
  C1132    1.0000 0.71510  0.11760  0.41920  Biso   1.000  C
  C1133    1.0000 0.58080  0.71510  0.88240  Biso   1.000  C
  C1134    1.0000 0.58080  0.28490  0.11760  Biso   1.000  C
  C1135    1.0000 0.41920  0.28490  0.88240  Biso   1.000  C
  C1136    1.0000 0.41920  0.71510  0.11760  Biso   1.000  C
  C1137    1.0000 0.88240  0.58080  0.71510  Biso   1.000  C
  C1138    1.0000 0.11760  0.58080  0.28490  Biso   1.000  C
  C1139    1.0000 0.88240  0.41920  0.28490  Biso   1.000  C
  C1140    1.0000 0.11760  0.41920  0.71510  Biso   1.000  C
  C1141    1.0000 0.21510  0.38240  0.08080  Biso   1.000  C
  C1142    1.0000 0.78490  0.61760  0.08080  Biso   1.000  C
  C1143    1.0000 0.78490  0.38240  0.91920  Biso   1.000  C
  C1144    1.0000 0.21510  0.61760  0.91920  Biso   1.000  C
  C1145    1.0000 0.08080  0.21510  0.38240  Biso   1.000  C
  C1146    1.0000 0.08080  0.78490  0.61760  Biso   1.000  C
  C1147    1.0000 0.91920  0.78490  0.38240  Biso   1.000  C
  C1148    1.0000 0.91920  0.21510  0.61760  Biso   1.000  C
  C1149    1.0000 0.38240  0.08080  0.21510  Biso   1.000  C
  C1150    1.0000 0.61760  0.08080  0.78490  Biso   1.000  C
  C1151    1.0000 0.38240  0.91920  0.78490  Biso   1.000  C
  C1152    1.0000 0.61760  0.91920  0.21510  Biso   1.000  C
  H577     1.0000 0.30990  0.10610  0.42810  Biso   1.000  H
  H578     1.0000 0.69010  0.89390  0.42810  Biso   1.000  H
  H579     1.0000 0.69010  0.10610  0.57190  Biso   1.000  H
  H580     1.0000 0.30990  0.89390  0.57190  Biso   1.000  H
  H581     1.0000 0.42810  0.30990  0.10610  Biso   1.000  H
  H582     1.0000 0.42810  0.69010  0.89390  Biso   1.000  H
  H583     1.0000 0.57190  0.69010  0.10610  Biso   1.000  H
  H584     1.0000 0.57190  0.30990  0.89390  Biso   1.000  H
  H585     1.0000 0.10610  0.42810  0.30990  Biso   1.000  H
  H586     1.0000 0.89390  0.42810  0.69010  Biso   1.000  H
  H587     1.0000 0.10610  0.57190  0.69010  Biso   1.000  H
  H588     1.0000 0.89390  0.57190  0.30990  Biso   1.000  H
  H589     1.0000 0.80990  0.60610  0.92810  Biso   1.000  H
  H590     1.0000 0.19010  0.39390  0.92810  Biso   1.000  H
  H591     1.0000 0.19010  0.60610  0.07190  Biso   1.000  H
  H592     1.0000 0.80990  0.39390  0.07190  Biso   1.000  H
  H593     1.0000 0.92810  0.80990  0.60610  Biso   1.000  H
  H594     1.0000 0.92810  0.19010  0.39390  Biso   1.000  H
  H595     1.0000 0.07190  0.19010  0.60610  Biso   1.000  H
  H596     1.0000 0.07190  0.80990  0.39390  Biso   1.000  H
  H597     1.0000 0.60610  0.92810  0.80990  Biso   1.000  H
  H598     1.0000 0.39390  0.92810  0.19010  Biso   1.000  H
  H599     1.0000 0.60610  0.07190  0.19010  Biso   1.000  H
  H600     1.0000 0.39390  0.07190  0.80990  Biso   1.000  H
  H601     1.0000 0.69010  0.89390  0.57190  Biso   1.000  H
  H602     1.0000 0.30990  0.10610  0.57190  Biso   1.000  H
  H603     1.0000 0.30990  0.89390  0.42810  Biso   1.000  H
  H604     1.0000 0.69010  0.10610  0.42810  Biso   1.000  H
  H605     1.0000 0.57190  0.69010  0.89390  Biso   1.000  H
  H606     1.0000 0.57190  0.30990  0.10610  Biso   1.000  H
  H607     1.0000 0.42810  0.30990  0.89390  Biso   1.000  H
  H608     1.0000 0.42810  0.69010  0.10610  Biso   1.000  H
  H609     1.0000 0.89390  0.57190  0.69010  Biso   1.000  H
  H610     1.0000 0.10610  0.57190  0.30990  Biso   1.000  H
  H611     1.0000 0.89390  0.42810  0.30990  Biso   1.000  H
  H612     1.0000 0.10610  0.42810  0.69010  Biso   1.000  H
  H613     1.0000 0.19010  0.39390  0.07190  Biso   1.000  H
  H614     1.0000 0.80990  0.60610  0.07190  Biso   1.000  H
  H615     1.0000 0.80990  0.39390  0.92810  Biso   1.000  H
  H616     1.0000 0.19010  0.60610  0.92810  Biso   1.000  H
  H617     1.0000 0.07190  0.19010  0.39390  Biso   1.000  H
  H618     1.0000 0.07190  0.80990  0.60610  Biso   1.000  H
  H619     1.0000 0.92810  0.80990  0.39390  Biso   1.000  H
  H620     1.0000 0.92810  0.19010  0.60610  Biso   1.000  H
  H621     1.0000 0.39390  0.07190  0.19010  Biso   1.000  H
  H622     1.0000 0.60610  0.07190  0.80990  Biso   1.000  H
  H623     1.0000 0.39390  0.92810  0.80990  Biso   1.000  H
  H624     1.0000 0.60610  0.92810  0.19010  Biso   1.000  H
  O121     1.0000 0.21560  0.04780  0.46560  Biso   1.000  O
  O122     1.0000 0.78440  0.95220  0.46560  Biso   1.000  O
  O123     1.0000 0.78440  0.04780  0.53440  Biso   1.000  O
  O124     1.0000 0.21560  0.95220  0.53440  Biso   1.000  O
  O125     1.0000 0.46560  0.21560  0.04780  Biso   1.000  O
  O126     1.0000 0.46560  0.78440  0.95220  Biso   1.000  O
  O127     1.0000 0.53440  0.78440  0.04780  Biso   1.000  O
  O128     1.0000 0.53440  0.21560  0.95220  Biso   1.000  O
  O129     1.0000 0.04780  0.46560  0.21560  Biso   1.000  O
  O130     1.0000 0.95220  0.46560  0.78440  Biso   1.000  O
  O131     1.0000 0.04780  0.53440  0.78440  Biso   1.000  O
  O132     1.0000 0.95220  0.53440  0.21560  Biso   1.000  O
  O133     1.0000 0.71560  0.54780  0.96560  Biso   1.000  O
  O134     1.0000 0.28440  0.45220  0.96560  Biso   1.000  O
  O135     1.0000 0.28440  0.54780  0.03440  Biso   1.000  O
  O136     1.0000 0.71560  0.45220  0.03440  Biso   1.000  O
  O137     1.0000 0.96560  0.71560  0.54780  Biso   1.000  O
  O138     1.0000 0.96560  0.28440  0.45220  Biso   1.000  O
  O139     1.0000 0.03440  0.28440  0.54780  Biso   1.000  O
  O140     1.0000 0.03440  0.71560  0.45220  Biso   1.000  O
  O141     1.0000 0.54780  0.96560  0.71560  Biso   1.000  O
  O142     1.0000 0.45220  0.96560  0.28440  Biso   1.000  O
  O143     1.0000 0.54780  0.03440  0.28440  Biso   1.000  O
  O144     1.0000 0.45220  0.03440  0.71560  Biso   1.000  O
  O145     1.0000 0.78440  0.95220  0.53440  Biso   1.000  O
  O146     1.0000 0.21560  0.04780  0.53440  Biso   1.000  O
  O147     1.0000 0.21560  0.95220  0.46560  Biso   1.000  O
  O148     1.0000 0.78440  0.04780  0.46560  Biso   1.000  O
  O149     1.0000 0.53440  0.78440  0.95220  Biso   1.000  O
  O150     1.0000 0.53440  0.21560  0.04780  Biso   1.000  O
  O151     1.0000 0.46560  0.21560  0.95220  Biso   1.000  O
  O152     1.0000 0.46560  0.78440  0.04780  Biso   1.000  O
  O153     1.0000 0.95220  0.53440  0.78440  Biso   1.000  O
  O154     1.0000 0.04780  0.53440  0.21560  Biso   1.000  O
  O155     1.0000 0.95220  0.46560  0.21560  Biso   1.000  O
  O156     1.0000 0.04780  0.46560  0.78440  Biso   1.000  O
  O157     1.0000 0.28440  0.45220  0.03440  Biso   1.000  O
  O158     1.0000 0.71560  0.54780  0.03440  Biso   1.000  O
  O159     1.0000 0.71560  0.45220  0.96560  Biso   1.000  O
  O160     1.0000 0.28440  0.54780  0.96560  Biso   1.000  O
  O161     1.0000 0.03440  0.28440  0.45220  Biso   1.000  O
  O162     1.0000 0.03440  0.71560  0.54780  Biso   1.000  O
  O163     1.0000 0.96560  0.71560  0.45220  Biso   1.000  O
  O164     1.0000 0.96560  0.28440  0.54780  Biso   1.000  O
  O165     1.0000 0.45220  0.03440  0.28440  Biso   1.000  O
  O166     1.0000 0.54780  0.03440  0.71560  Biso   1.000  O
  O167     1.0000 0.45220  0.96560  0.71560  Biso   1.000  O
  O168     1.0000 0.54780  0.96560  0.28440  Biso   1.000  O
  O169     1.0000 0.28320  0.04830  0.46600  Biso   1.000  O
  O170     1.0000 0.71680  0.95170  0.46600  Biso   1.000  O
  O171     1.0000 0.71680  0.04830  0.53400  Biso   1.000  O
  O172     1.0000 0.28320  0.95170  0.53400  Biso   1.000  O
  O173     1.0000 0.46600  0.28320  0.04830  Biso   1.000  O
  O174     1.0000 0.46600  0.71680  0.95170  Biso   1.000  O
  O175     1.0000 0.53400  0.71680  0.04830  Biso   1.000  O
  O176     1.0000 0.53400  0.28320  0.95170  Biso   1.000  O
  O177     1.0000 0.04830  0.46600  0.28320  Biso   1.000  O
  O178     1.0000 0.95170  0.46600  0.71680  Biso   1.000  O
  O179     1.0000 0.04830  0.53400  0.71680  Biso   1.000  O
  O180     1.0000 0.95170  0.53400  0.28320  Biso   1.000  O
  O181     1.0000 0.78320  0.54830  0.96600  Biso   1.000  O
  O182     1.0000 0.21680  0.45170  0.96600  Biso   1.000  O
  O183     1.0000 0.21680  0.54830  0.03400  Biso   1.000  O
  O184     1.0000 0.78320  0.45170  0.03400  Biso   1.000  O
  O185     1.0000 0.96600  0.78320  0.54830  Biso   1.000  O
  O186     1.0000 0.96600  0.21680  0.45170  Biso   1.000  O
  O187     1.0000 0.03400  0.21680  0.54830  Biso   1.000  O
  O188     1.0000 0.03400  0.78320  0.45170  Biso   1.000  O
  O189     1.0000 0.54830  0.96600  0.78320  Biso   1.000  O
  O190     1.0000 0.45170  0.96600  0.21680  Biso   1.000  O
  O191     1.0000 0.54830  0.03400  0.21680  Biso   1.000  O
  O192     1.0000 0.45170  0.03400  0.78320  Biso   1.000  O
  O193     1.0000 0.71680  0.95170  0.53400  Biso   1.000  O
  O194     1.0000 0.28320  0.04830  0.53400  Biso   1.000  O
  O195     1.0000 0.28320  0.95170  0.46600  Biso   1.000  O
  O196     1.0000 0.71680  0.04830  0.46600  Biso   1.000  O
  O197     1.0000 0.53400  0.71680  0.95170  Biso   1.000  O
  O198     1.0000 0.53400  0.28320  0.04830  Biso   1.000  O
  O199     1.0000 0.46600  0.28320  0.95170  Biso   1.000  O
  O200     1.0000 0.46600  0.71680  0.04830  Biso   1.000  O
  O201     1.0000 0.95170  0.53400  0.71680  Biso   1.000  O
  O202     1.0000 0.04830  0.53400  0.28320  Biso   1.000  O
  O203     1.0000 0.95170  0.46600  0.28320  Biso   1.000  O
  O204     1.0000 0.04830  0.46600  0.71680  Biso   1.000  O
  O205     1.0000 0.21680  0.45170  0.03400  Biso   1.000  O
  O206     1.0000 0.78320  0.54830  0.03400  Biso   1.000  O
  O207     1.0000 0.78320  0.45170  0.96600  Biso   1.000  O
  O208     1.0000 0.21680  0.54830  0.96600  Biso   1.000  O
  O209     1.0000 0.03400  0.21680  0.45170  Biso   1.000  O
  O210     1.0000 0.03400  0.78320  0.54830  Biso   1.000  O
  O211     1.0000 0.96600  0.78320  0.45170  Biso   1.000  O
  O212     1.0000 0.96600  0.21680  0.54830  Biso   1.000  O
  O213     1.0000 0.45170  0.03400  0.21680  Biso   1.000  O
  O214     1.0000 0.54830  0.03400  0.78320  Biso   1.000  O
  O215     1.0000 0.45170  0.96600  0.78320  Biso   1.000  O
  O216     1.0000 0.54830  0.96600  0.21680  Biso   1.000  O
  H625     1.0000 0.36230  0.97690  0.50480  Biso   1.000  H
  H626     1.0000 0.63770  0.02310  0.50480  Biso   1.000  H
  H627     1.0000 0.63770  0.97690  0.49520  Biso   1.000  H
  H628     1.0000 0.36230  0.02310  0.49520  Biso   1.000  H
  H629     1.0000 0.50480  0.36230  0.97690  Biso   1.000  H
  H630     1.0000 0.50480  0.63770  0.02310  Biso   1.000  H
  H631     1.0000 0.49520  0.63770  0.97690  Biso   1.000  H
  H632     1.0000 0.49520  0.36230  0.02310  Biso   1.000  H
  H633     1.0000 0.97690  0.50480  0.36230  Biso   1.000  H
  H634     1.0000 0.02310  0.50480  0.63770  Biso   1.000  H
  H635     1.0000 0.97690  0.49520  0.63770  Biso   1.000  H
  H636     1.0000 0.02310  0.49520  0.36230  Biso   1.000  H
  H637     1.0000 0.86230  0.47690  0.00480  Biso   1.000  H
  H638     1.0000 0.13770  0.52310  0.00480  Biso   1.000  H
  H639     1.0000 0.13770  0.47690  0.99520  Biso   1.000  H
  H640     1.0000 0.86230  0.52310  0.99520  Biso   1.000  H
  H641     1.0000 0.00480  0.86230  0.47690  Biso   1.000  H
  H642     1.0000 0.00480  0.13770  0.52310  Biso   1.000  H
  H643     1.0000 0.99520  0.13770  0.47690  Biso   1.000  H
  H644     1.0000 0.99520  0.86230  0.52310  Biso   1.000  H
  H645     1.0000 0.47690  0.00480  0.86230  Biso   1.000  H
  H646     1.0000 0.52310  0.00480  0.13770  Biso   1.000  H
  H647     1.0000 0.47690  0.99520  0.13770  Biso   1.000  H
  H648     1.0000 0.52310  0.99520  0.86230  Biso   1.000  H
  H649     1.0000 0.63770  0.02310  0.49520  Biso   1.000  H
  H650     1.0000 0.36230  0.97690  0.49520  Biso   1.000  H
  H651     1.0000 0.36230  0.02310  0.50480  Biso   1.000  H
  H652     1.0000 0.63770  0.97690  0.50480  Biso   1.000  H
  H653     1.0000 0.49520  0.63770  0.02310  Biso   1.000  H
  H654     1.0000 0.49520  0.36230  0.97690  Biso   1.000  H
  H655     1.0000 0.50480  0.36230  0.02310  Biso   1.000  H
  H656     1.0000 0.50480  0.63770  0.97690  Biso   1.000  H
  H657     1.0000 0.02310  0.49520  0.63770  Biso   1.000  H
  H658     1.0000 0.97690  0.49520  0.36230  Biso   1.000  H
  H659     1.0000 0.02310  0.50480  0.36230  Biso   1.000  H
  H660     1.0000 0.97690  0.50480  0.63770  Biso   1.000  H
  H661     1.0000 0.13770  0.52310  0.99520  Biso   1.000  H
  H662     1.0000 0.86230  0.47690  0.99520  Biso   1.000  H
  H663     1.0000 0.86230  0.52310  0.00480  Biso   1.000  H
  H664     1.0000 0.13770  0.47690  0.00480  Biso   1.000  H
  H665     1.0000 0.99520  0.13770  0.52310  Biso   1.000  H
  H666     1.0000 0.99520  0.86230  0.47690  Biso   1.000  H
  H667     1.0000 0.00480  0.86230  0.52310  Biso   1.000  H
  H668     1.0000 0.00480  0.13770  0.47690  Biso   1.000  H
  H669     1.0000 0.52310  0.99520  0.13770  Biso   1.000  H
  H670     1.0000 0.47690  0.99520  0.86230  Biso   1.000  H
  H671     1.0000 0.52310  0.00480  0.86230  Biso   1.000  H
  H672     1.0000 0.47690  0.00480  0.13770  Biso   1.000  H
  H673     1.0000 0.13790  0.99170  0.47790  Biso   1.000  H
  H674     1.0000 0.86210  0.00830  0.47790  Biso   1.000  H
  H675     1.0000 0.86210  0.99170  0.52210  Biso   1.000  H
  H676     1.0000 0.13790  0.00830  0.52210  Biso   1.000  H
  H677     1.0000 0.47790  0.13790  0.99170  Biso   1.000  H
  H678     1.0000 0.47790  0.86210  0.00830  Biso   1.000  H
  H679     1.0000 0.52210  0.86210  0.99170  Biso   1.000  H
  H680     1.0000 0.52210  0.13790  0.00830  Biso   1.000  H
  H681     1.0000 0.99170  0.47790  0.13790  Biso   1.000  H
  H682     1.0000 0.00830  0.47790  0.86210  Biso   1.000  H
  H683     1.0000 0.99170  0.52210  0.86210  Biso   1.000  H
  H684     1.0000 0.00830  0.52210  0.13790  Biso   1.000  H
  H685     1.0000 0.63790  0.49170  0.97790  Biso   1.000  H
  H686     1.0000 0.36210  0.50830  0.97790  Biso   1.000  H
  H687     1.0000 0.36210  0.49170  0.02210  Biso   1.000  H
  H688     1.0000 0.63790  0.50830  0.02210  Biso   1.000  H
  H689     1.0000 0.97790  0.63790  0.49170  Biso   1.000  H
  H690     1.0000 0.97790  0.36210  0.50830  Biso   1.000  H
  H691     1.0000 0.02210  0.36210  0.49170  Biso   1.000  H
  H692     1.0000 0.02210  0.63790  0.50830  Biso   1.000  H
  H693     1.0000 0.49170  0.97790  0.63790  Biso   1.000  H
  H694     1.0000 0.50830  0.97790  0.36210  Biso   1.000  H
  H695     1.0000 0.49170  0.02210  0.36210  Biso   1.000  H
  H696     1.0000 0.50830  0.02210  0.63790  Biso   1.000  H
  H697     1.0000 0.86210  0.00830  0.52210  Biso   1.000  H
  H698     1.0000 0.13790  0.99170  0.52210  Biso   1.000  H
  H699     1.0000 0.13790  0.00830  0.47790  Biso   1.000  H
  H700     1.0000 0.86210  0.99170  0.47790  Biso   1.000  H
  H701     1.0000 0.52210  0.86210  0.00830  Biso   1.000  H
  H702     1.0000 0.52210  0.13790  0.99170  Biso   1.000  H
  H703     1.0000 0.47790  0.13790  0.00830  Biso   1.000  H
  H704     1.0000 0.47790  0.86210  0.99170  Biso   1.000  H
  H705     1.0000 0.00830  0.52210  0.86210  Biso   1.000  H
  H706     1.0000 0.99170  0.52210  0.13790  Biso   1.000  H
  H707     1.0000 0.00830  0.47790  0.13790  Biso   1.000  H
  H708     1.0000 0.99170  0.47790  0.86210  Biso   1.000  H
  H709     1.0000 0.36210  0.50830  0.02210  Biso   1.000  H
  H710     1.0000 0.63790  0.49170  0.02210  Biso   1.000  H
  H711     1.0000 0.63790  0.50830  0.97790  Biso   1.000  H
  H712     1.0000 0.36210  0.49170  0.97790  Biso   1.000  H
  H713     1.0000 0.02210  0.36210  0.50830  Biso   1.000  H
  H714     1.0000 0.02210  0.63790  0.49170  Biso   1.000  H
  H715     1.0000 0.97790  0.63790  0.50830  Biso   1.000  H
  H716     1.0000 0.97790  0.36210  0.49170  Biso   1.000  H
  H717     1.0000 0.50830  0.02210  0.36210  Biso   1.000  H
  H718     1.0000 0.49170  0.02210  0.63790  Biso   1.000  H
  H719     1.0000 0.50830  0.97790  0.63790  Biso   1.000  H
  H720     1.0000 0.49170  0.97790  0.36210  Biso   1.000  H
