data_image0
_cell_length_a       31.4115
_cell_length_b       11.5964
_cell_length_c       23.1449
_cell_angle_alpha    90
_cell_angle_beta     112.003
_cell_angle_gamma    90

_symmetry_space_group_name_H-M    "P 1"
_symmetry_int_tables_number       1

loop_
  _symmetry_equiv_pos_as_xyz
  'x, y, z'

loop_
  _atom_site_label
  _atom_site_occupancy
  _atom_site_fract_x
  _atom_site_fract_y
  _atom_site_fract_z
  _atom_site_thermal_displace_type
  _atom_site_B_iso_or_equiv
  _atom_site_type_symbol
  Cu1      1.0000 0.13122  0.77993  0.09662  Biso   1.000  Cu
  Cu2      1.0000 0.86878  0.77993  0.40338  Biso   1.000  Cu
  Cu3      1.0000 0.63122  0.27993  0.09662  Biso   1.000  Cu
  Cu4      1.0000 0.36878  0.27993  0.40338  Biso   1.000  Cu
  Cu5      1.0000 0.86878  0.22007  0.90338  Biso   1.000  Cu
  Cu6      1.0000 0.13122  0.22007  0.59662  Biso   1.000  Cu
  Cu7      1.0000 0.36878  0.72007  0.90338  Biso   1.000  Cu
  Cu8      1.0000 0.63122  0.72007  0.59662  Biso   1.000  Cu
  N1       1.0000 0.08564  0.65100  0.05807  Biso   1.000  N
  N2       1.0000 0.91436  0.65100  0.44193  Biso   1.000  N
  N3       1.0000 0.58564  0.15100  0.05807  Biso   1.000  N
  N4       1.0000 0.41436  0.15100  0.44193  Biso   1.000  N
  N5       1.0000 0.91436  0.34900  0.94193  Biso   1.000  N
  N6       1.0000 0.08564  0.34900  0.55807  Biso   1.000  N
  N7       1.0000 0.41436  0.84900  0.94193  Biso   1.000  N
  N8       1.0000 0.58564  0.84900  0.55807  Biso   1.000  N
  H1       1.0000 0.06580  0.67500  0.01980  Biso   1.000  H
  H2       1.0000 0.93420  0.67500  0.48020  Biso   1.000  H
  H3       1.0000 0.56580  0.17500  0.01980  Biso   1.000  H
  H4       1.0000 0.43420  0.17500  0.48020  Biso   1.000  H
  H5       1.0000 0.93420  0.32500  0.98020  Biso   1.000  H
  H6       1.0000 0.06580  0.32500  0.51980  Biso   1.000  H
  H7       1.0000 0.43420  0.82500  0.98020  Biso   1.000  H
  H8       1.0000 0.56580  0.82500  0.51980  Biso   1.000  H
  N9       1.0000 0.15239  0.77750  0.02431  Biso   1.000  N
  N10      1.0000 0.84761  0.77750  0.47569  Biso   1.000  N
  N11      1.0000 0.65239  0.27750  0.02431  Biso   1.000  N
  N12      1.0000 0.34761  0.27750  0.47569  Biso   1.000  N
  N13      1.0000 0.84761  0.22250  0.97569  Biso   1.000  N
  N14      1.0000 0.15239  0.22250  0.52431  Biso   1.000  N
  N15      1.0000 0.34761  0.72250  0.97569  Biso   1.000  N
  N16      1.0000 0.65239  0.72250  0.52431  Biso   1.000  N
  H9       1.0000 0.12900  0.79390  0.98810  Biso   1.000  H
  H10      1.0000 0.87100  0.79390  0.51190  Biso   1.000  H
  H11      1.0000 0.62900  0.29390  0.98810  Biso   1.000  H
  H12      1.0000 0.37100  0.29390  0.51190  Biso   1.000  H
  H13      1.0000 0.87100  0.20610  0.01190  Biso   1.000  H
  H14      1.0000 0.12900  0.20610  0.48810  Biso   1.000  H
  H15      1.0000 0.37100  0.70610  0.01190  Biso   1.000  H
  H16      1.0000 0.62900  0.70610  0.48810  Biso   1.000  H
  N17      1.0000 0.19012  0.86900  0.14391  Biso   1.000  N
  N18      1.0000 0.80988  0.86900  0.35609  Biso   1.000  N
  N19      1.0000 0.69012  0.36900  0.14391  Biso   1.000  N
  N20      1.0000 0.30988  0.36900  0.35609  Biso   1.000  N
  N21      1.0000 0.80988  0.13100  0.85609  Biso   1.000  N
  N22      1.0000 0.19012  0.13100  0.64391  Biso   1.000  N
  N23      1.0000 0.30988  0.63100  0.85609  Biso   1.000  N
  N24      1.0000 0.69012  0.63100  0.64391  Biso   1.000  N
  H17      1.0000 0.17500  0.94480  0.14250  Biso   1.000  H
  H18      1.0000 0.82500  0.94480  0.35750  Biso   1.000  H
  H19      1.0000 0.67500  0.44480  0.14250  Biso   1.000  H
  H20      1.0000 0.32500  0.44480  0.35750  Biso   1.000  H
  H21      1.0000 0.82500  0.05520  0.85750  Biso   1.000  H
  H22      1.0000 0.17500  0.05520  0.64250  Biso   1.000  H
  H23      1.0000 0.32500  0.55520  0.85750  Biso   1.000  H
  H24      1.0000 0.67500  0.55520  0.64250  Biso   1.000  H
  N25      1.0000 0.11018  0.77060  0.16995  Biso   1.000  N
  N26      1.0000 0.88982  0.77060  0.33005  Biso   1.000  N
  N27      1.0000 0.61018  0.27060  0.16995  Biso   1.000  N
  N28      1.0000 0.38982  0.27060  0.33005  Biso   1.000  N
  N29      1.0000 0.88982  0.22940  0.83005  Biso   1.000  N
  N30      1.0000 0.11018  0.22940  0.66995  Biso   1.000  N
  N31      1.0000 0.38982  0.72940  0.83005  Biso   1.000  N
  N32      1.0000 0.61018  0.72940  0.66995  Biso   1.000  N
  H25      1.0000 0.09470  0.83670  0.15500  Biso   1.000  H
  H26      1.0000 0.90530  0.83670  0.34500  Biso   1.000  H
  H27      1.0000 0.59470  0.33670  0.15500  Biso   1.000  H
  H28      1.0000 0.40530  0.33670  0.34500  Biso   1.000  H
  H29      1.0000 0.90530  0.16330  0.84500  Biso   1.000  H
  H30      1.0000 0.09470  0.16330  0.65500  Biso   1.000  H
  H31      1.0000 0.40530  0.66330  0.84500  Biso   1.000  H
  H32      1.0000 0.59470  0.66330  0.65500  Biso   1.000  H
  C1       1.0000 0.10445  0.54480  0.03843  Biso   1.000  C
  C2       1.0000 0.89555  0.54480  0.46157  Biso   1.000  C
  C3       1.0000 0.60445  0.04480  0.03843  Biso   1.000  C
  C4       1.0000 0.39555  0.04480  0.46157  Biso   1.000  C
  C5       1.0000 0.89555  0.45520  0.96157  Biso   1.000  C
  C6       1.0000 0.10445  0.45520  0.53843  Biso   1.000  C
  C7       1.0000 0.39555  0.95520  0.96157  Biso   1.000  C
  C8       1.0000 0.60445  0.95520  0.53843  Biso   1.000  C
  C9       1.0000 0.14033  0.48860  0.09490  Biso   1.000  C
  C10      1.0000 0.85967  0.48860  0.40510  Biso   1.000  C
  C11      1.0000 0.64033  0.98860  0.09490  Biso   1.000  C
  C12      1.0000 0.35967  0.98860  0.40510  Biso   1.000  C
  C13      1.0000 0.85967  0.51140  0.90510  Biso   1.000  C
  C14      1.0000 0.14033  0.51140  0.59490  Biso   1.000  C
  C15      1.0000 0.35967  0.01140  0.90510  Biso   1.000  C
  C16      1.0000 0.64033  0.01140  0.59490  Biso   1.000  C
  H33      1.0000 0.16430  0.54300  0.11530  Biso   1.000  H
  H34      1.0000 0.83570  0.54300  0.38470  Biso   1.000  H
  H35      1.0000 0.66430  0.04300  0.11530  Biso   1.000  H
  H36      1.0000 0.33570  0.04300  0.38470  Biso   1.000  H
  H37      1.0000 0.83570  0.45700  0.88470  Biso   1.000  H
  H38      1.0000 0.16430  0.45700  0.61530  Biso   1.000  H
  H39      1.0000 0.33570  0.95700  0.88470  Biso   1.000  H
  H40      1.0000 0.66430  0.95700  0.61530  Biso   1.000  H
  H41      1.0000 0.15310  0.42290  0.08190  Biso   1.000  H
  H42      1.0000 0.84690  0.42290  0.41810  Biso   1.000  H
  H43      1.0000 0.65310  0.92290  0.08190  Biso   1.000  H
  H44      1.0000 0.34690  0.92290  0.41810  Biso   1.000  H
  H45      1.0000 0.84690  0.57710  0.91810  Biso   1.000  H
  H46      1.0000 0.15310  0.57710  0.58190  Biso   1.000  H
  H47      1.0000 0.34690  0.07710  0.91810  Biso   1.000  H
  H48      1.0000 0.65310  0.07710  0.58190  Biso   1.000  H
  H49      1.0000 0.12630  0.46420  0.12330  Biso   1.000  H
  H50      1.0000 0.87370  0.46420  0.37670  Biso   1.000  H
  H51      1.0000 0.62630  0.96420  0.12330  Biso   1.000  H
  H52      1.0000 0.37370  0.96420  0.37670  Biso   1.000  H
  H53      1.0000 0.87370  0.53580  0.87670  Biso   1.000  H
  H54      1.0000 0.12630  0.53580  0.62330  Biso   1.000  H
  H55      1.0000 0.37370  0.03580  0.87670  Biso   1.000  H
  H56      1.0000 0.62630  0.03580  0.62330  Biso   1.000  H
  C17      1.0000 0.06550  0.46040  0.00500  Biso   1.000  C
  C18      1.0000 0.93450  0.46040  0.49500  Biso   1.000  C
  C19      1.0000 0.56550  0.96040  0.00500  Biso   1.000  C
  C20      1.0000 0.43450  0.96040  0.49500  Biso   1.000  C
  C21      1.0000 0.93450  0.53960  0.99500  Biso   1.000  C
  C22      1.0000 0.06550  0.53960  0.50500  Biso   1.000  C
  C23      1.0000 0.43450  0.03960  0.99500  Biso   1.000  C
  C24      1.0000 0.56550  0.03960  0.50500  Biso   1.000  C
  H57      1.0000 0.04350  0.49720  0.96900  Biso   1.000  H
  H58      1.0000 0.95650  0.49720  0.53100  Biso   1.000  H
  H59      1.0000 0.54350  0.99720  0.96900  Biso   1.000  H
  H60      1.0000 0.45650  0.99720  0.53100  Biso   1.000  H
  H61      1.0000 0.95650  0.50280  0.03100  Biso   1.000  H
  H62      1.0000 0.04350  0.50280  0.46900  Biso   1.000  H
  H63      1.0000 0.45650  0.00280  0.03100  Biso   1.000  H
  H64      1.0000 0.54350  0.00280  0.46900  Biso   1.000  H
  H65      1.0000 0.05080  0.43740  0.03280  Biso   1.000  H
  H66      1.0000 0.94920  0.43740  0.46720  Biso   1.000  H
  H67      1.0000 0.55080  0.93740  0.03280  Biso   1.000  H
  H68      1.0000 0.44920  0.93740  0.46720  Biso   1.000  H
  H69      1.0000 0.94920  0.56260  0.96720  Biso   1.000  H
  H70      1.0000 0.05080  0.56260  0.53280  Biso   1.000  H
  H71      1.0000 0.44920  0.06260  0.96720  Biso   1.000  H
  H72      1.0000 0.55080  0.06260  0.53280  Biso   1.000  H
  H73      1.0000 0.07780  0.39370  0.99220  Biso   1.000  H
  H74      1.0000 0.92220  0.39370  0.50780  Biso   1.000  H
  H75      1.0000 0.57780  0.89370  0.99220  Biso   1.000  H
  H76      1.0000 0.42220  0.89370  0.50780  Biso   1.000  H
  H77      1.0000 0.92220  0.60630  0.00780  Biso   1.000  H
  H78      1.0000 0.07780  0.60630  0.49220  Biso   1.000  H
  H79      1.0000 0.42220  0.10630  0.00780  Biso   1.000  H
  H80      1.0000 0.57780  0.10630  0.49220  Biso   1.000  H
  C25      1.0000 0.12508  0.58090  0.99139  Biso   1.000  C
  C26      1.0000 0.87492  0.58090  0.50861  Biso   1.000  C
  C27      1.0000 0.62508  0.08090  0.99139  Biso   1.000  C
  C28      1.0000 0.37492  0.08090  0.50861  Biso   1.000  C
  C29      1.0000 0.87492  0.41910  0.00861  Biso   1.000  C
  C30      1.0000 0.12508  0.41910  0.49139  Biso   1.000  C
  C31      1.0000 0.37492  0.91910  0.00861  Biso   1.000  C
  C32      1.0000 0.62508  0.91910  0.49139  Biso   1.000  C
  H81      1.0000 0.10080  0.61720  0.95690  Biso   1.000  H
  H82      1.0000 0.89920  0.61720  0.54310  Biso   1.000  H
  H83      1.0000 0.60080  0.11720  0.95690  Biso   1.000  H
  H84      1.0000 0.39920  0.11720  0.54310  Biso   1.000  H
  H85      1.0000 0.89920  0.38280  0.04310  Biso   1.000  H
  H86      1.0000 0.10080  0.38280  0.45690  Biso   1.000  H
  H87      1.0000 0.39920  0.88280  0.04310  Biso   1.000  H
  H88      1.0000 0.60080  0.88280  0.45690  Biso   1.000  H
  H89      1.0000 0.13350  0.51100  0.97530  Biso   1.000  H
  H90      1.0000 0.86650  0.51100  0.52470  Biso   1.000  H
  H91      1.0000 0.63350  0.01100  0.97530  Biso   1.000  H
  H92      1.0000 0.36650  0.01100  0.52470  Biso   1.000  H
  H93      1.0000 0.86650  0.48900  0.02470  Biso   1.000  H
  H94      1.0000 0.13350  0.48900  0.47530  Biso   1.000  H
  H95      1.0000 0.36650  0.98900  0.02470  Biso   1.000  H
  H96      1.0000 0.63350  0.98900  0.47530  Biso   1.000  H
  C33      1.0000 0.16669  0.66150  0.01061  Biso   1.000  C
  C34      1.0000 0.83331  0.66150  0.48939  Biso   1.000  C
  C35      1.0000 0.66669  0.16150  0.01061  Biso   1.000  C
  C36      1.0000 0.33331  0.16150  0.48939  Biso   1.000  C
  C37      1.0000 0.83331  0.33850  0.98939  Biso   1.000  C
  C38      1.0000 0.16669  0.33850  0.51061  Biso   1.000  C
  C39      1.0000 0.33331  0.83850  0.98939  Biso   1.000  C
  C40      1.0000 0.66669  0.83850  0.51061  Biso   1.000  C
  H97      1.0000 0.19030  0.63130  0.04870  Biso   1.000  H
  H98      1.0000 0.80970  0.63130  0.45130  Biso   1.000  H
  H99      1.0000 0.69030  0.13130  0.04870  Biso   1.000  H
  H100     1.0000 0.30970  0.13130  0.45130  Biso   1.000  H
  H101     1.0000 0.80970  0.36870  0.95130  Biso   1.000  H
  H102     1.0000 0.19030  0.36870  0.54870  Biso   1.000  H
  H103     1.0000 0.30970  0.86870  0.95130  Biso   1.000  H
  H104     1.0000 0.69030  0.86870  0.54870  Biso   1.000  H
  C41      1.0000 0.18571  0.66220  0.95890  Biso   1.000  C
  C42      1.0000 0.81429  0.66220  0.54110  Biso   1.000  C
  C43      1.0000 0.68571  0.16220  0.95890  Biso   1.000  C
  C44      1.0000 0.31429  0.16220  0.54110  Biso   1.000  C
  C45      1.0000 0.81429  0.33780  0.04110  Biso   1.000  C
  C46      1.0000 0.18571  0.33780  0.45890  Biso   1.000  C
  C47      1.0000 0.31429  0.83780  0.04110  Biso   1.000  C
  C48      1.0000 0.68571  0.83780  0.45890  Biso   1.000  C
  H105     1.0000 0.21190  0.71230  0.97030  Biso   1.000  H
  H106     1.0000 0.78810  0.71230  0.52970  Biso   1.000  H
  H107     1.0000 0.71190  0.21230  0.97030  Biso   1.000  H
  H108     1.0000 0.28810  0.21230  0.52970  Biso   1.000  H
  H109     1.0000 0.78810  0.28770  0.02970  Biso   1.000  H
  H110     1.0000 0.21190  0.28770  0.47030  Biso   1.000  H
  H111     1.0000 0.28810  0.78770  0.02970  Biso   1.000  H
  H112     1.0000 0.71190  0.78770  0.47030  Biso   1.000  H
  H113     1.0000 0.16250  0.68920  0.92090  Biso   1.000  H
  H114     1.0000 0.83750  0.68920  0.57910  Biso   1.000  H
  H115     1.0000 0.66250  0.18920  0.92090  Biso   1.000  H
  H116     1.0000 0.33750  0.18920  0.57910  Biso   1.000  H
  H117     1.0000 0.83750  0.31080  0.07910  Biso   1.000  H
  H118     1.0000 0.16250  0.31080  0.42090  Biso   1.000  H
  H119     1.0000 0.33750  0.81080  0.07910  Biso   1.000  H
  H120     1.0000 0.66250  0.81080  0.42090  Biso   1.000  H
  H121     1.0000 0.19470  0.58540  0.95280  Biso   1.000  H
  H122     1.0000 0.80530  0.58540  0.54720  Biso   1.000  H
  H123     1.0000 0.69470  0.08540  0.95280  Biso   1.000  H
  H124     1.0000 0.30530  0.08540  0.54720  Biso   1.000  H
  H125     1.0000 0.80530  0.41460  0.04720  Biso   1.000  H
  H126     1.0000 0.19470  0.41460  0.45280  Biso   1.000  H
  H127     1.0000 0.30530  0.91460  0.04720  Biso   1.000  H
  H128     1.0000 0.69470  0.91460  0.45280  Biso   1.000  H
  C49      1.0000 0.18786  0.86950  0.03886  Biso   1.000  C
  C50      1.0000 0.81214  0.86950  0.46114  Biso   1.000  C
  C51      1.0000 0.68786  0.36950  0.03886  Biso   1.000  C
  C52      1.0000 0.31214  0.36950  0.46114  Biso   1.000  C
  C53      1.0000 0.81214  0.13050  0.96114  Biso   1.000  C
  C54      1.0000 0.18786  0.13050  0.53886  Biso   1.000  C
  C55      1.0000 0.31214  0.63050  0.96114  Biso   1.000  C
  C56      1.0000 0.68786  0.63050  0.53886  Biso   1.000  C
  H129     1.0000 0.17320  0.94460  0.03070  Biso   1.000  H
  H130     1.0000 0.82680  0.94460  0.46930  Biso   1.000  H
  H131     1.0000 0.67320  0.44460  0.03070  Biso   1.000  H
  H132     1.0000 0.32680  0.44460  0.46930  Biso   1.000  H
  H133     1.0000 0.82680  0.05540  0.96930  Biso   1.000  H
  H134     1.0000 0.17320  0.05540  0.53070  Biso   1.000  H
  H135     1.0000 0.32680  0.55540  0.96930  Biso   1.000  H
  H136     1.0000 0.67320  0.55540  0.53070  Biso   1.000  H
  H137     1.0000 0.20560  0.86070  0.01270  Biso   1.000  H
  H138     1.0000 0.79440  0.86070  0.48730  Biso   1.000  H
  H139     1.0000 0.70560  0.36070  0.01270  Biso   1.000  H
  H140     1.0000 0.29440  0.36070  0.48730  Biso   1.000  H
  H141     1.0000 0.79440  0.13930  0.98730  Biso   1.000  H
  H142     1.0000 0.20560  0.13930  0.51270  Biso   1.000  H
  H143     1.0000 0.29440  0.63930  0.98730  Biso   1.000  H
  H144     1.0000 0.70560  0.63930  0.51270  Biso   1.000  H
  C57      1.0000 0.21915  0.86060  0.10669  Biso   1.000  C
  C58      1.0000 0.78085  0.86060  0.39331  Biso   1.000  C
  C59      1.0000 0.71915  0.36060  0.10669  Biso   1.000  C
  C60      1.0000 0.28085  0.36060  0.39331  Biso   1.000  C
  C61      1.0000 0.78085  0.13940  0.89331  Biso   1.000  C
  C62      1.0000 0.21915  0.13940  0.60669  Biso   1.000  C
  C63      1.0000 0.28085  0.63940  0.89331  Biso   1.000  C
  C64      1.0000 0.71915  0.63940  0.60669  Biso   1.000  C
  H145     1.0000 0.23540  0.78760  0.11450  Biso   1.000  H
  H146     1.0000 0.76460  0.78760  0.38550  Biso   1.000  H
  H147     1.0000 0.73540  0.28760  0.11450  Biso   1.000  H
  H148     1.0000 0.26460  0.28760  0.38550  Biso   1.000  H
  H149     1.0000 0.76460  0.21240  0.88550  Biso   1.000  H
  H150     1.0000 0.23540  0.21240  0.61450  Biso   1.000  H
  H151     1.0000 0.26460  0.71240  0.88550  Biso   1.000  H
  H152     1.0000 0.73540  0.71240  0.61450  Biso   1.000  H
  H153     1.0000 0.24150  0.92250  0.11760  Biso   1.000  H
  H154     1.0000 0.75850  0.92250  0.38240  Biso   1.000  H
  H155     1.0000 0.74150  0.42250  0.11760  Biso   1.000  H
  H156     1.0000 0.25850  0.42250  0.38240  Biso   1.000  H
  H157     1.0000 0.75850  0.07750  0.88240  Biso   1.000  H
  H158     1.0000 0.24150  0.07750  0.61760  Biso   1.000  H
  H159     1.0000 0.25850  0.57750  0.88240  Biso   1.000  H
  H160     1.0000 0.74150  0.57750  0.61760  Biso   1.000  H
  C65      1.0000 0.21318  0.84750  0.21253  Biso   1.000  C
  C66      1.0000 0.78682  0.84750  0.28747  Biso   1.000  C
  C67      1.0000 0.71318  0.34750  0.21253  Biso   1.000  C
  C68      1.0000 0.28682  0.34750  0.28747  Biso   1.000  C
  C69      1.0000 0.78682  0.15250  0.78747  Biso   1.000  C
  C70      1.0000 0.21318  0.15250  0.71253  Biso   1.000  C
  C71      1.0000 0.28682  0.65250  0.78747  Biso   1.000  C
  C72      1.0000 0.71318  0.65250  0.71253  Biso   1.000  C
  C73      1.0000 0.25451  0.92800  0.24020  Biso   1.000  C
  C74      1.0000 0.74549  0.92800  0.25980  Biso   1.000  C
  C75      1.0000 0.75451  0.42800  0.24020  Biso   1.000  C
  C76      1.0000 0.24549  0.42800  0.25980  Biso   1.000  C
  C77      1.0000 0.74549  0.07200  0.75980  Biso   1.000  C
  C78      1.0000 0.25451  0.07200  0.74020  Biso   1.000  C
  C79      1.0000 0.24549  0.57200  0.75980  Biso   1.000  C
  C80      1.0000 0.75451  0.57200  0.74020  Biso   1.000  C
  H161     1.0000 0.27680  0.91070  0.22220  Biso   1.000  H
  H162     1.0000 0.72320  0.91070  0.27780  Biso   1.000  H
  H163     1.0000 0.77680  0.41070  0.22220  Biso   1.000  H
  H164     1.0000 0.22320  0.41070  0.27780  Biso   1.000  H
  H165     1.0000 0.72320  0.08930  0.77780  Biso   1.000  H
  H166     1.0000 0.27680  0.08930  0.72220  Biso   1.000  H
  H167     1.0000 0.22320  0.58930  0.77780  Biso   1.000  H
  H168     1.0000 0.77680  0.58930  0.72220  Biso   1.000  H
  H169     1.0000 0.26800  0.91710  0.28450  Biso   1.000  H
  H170     1.0000 0.73200  0.91710  0.21550  Biso   1.000  H
  H171     1.0000 0.76800  0.41710  0.28450  Biso   1.000  H
  H172     1.0000 0.23200  0.41710  0.21550  Biso   1.000  H
  H173     1.0000 0.73200  0.08290  0.71550  Biso   1.000  H
  H174     1.0000 0.26800  0.08290  0.78450  Biso   1.000  H
  H175     1.0000 0.23200  0.58290  0.71550  Biso   1.000  H
  H176     1.0000 0.76800  0.58290  0.78450  Biso   1.000  H
  H177     1.0000 0.24460  0.00660  0.23120  Biso   1.000  H
  H178     1.0000 0.75540  0.00660  0.26880  Biso   1.000  H
  H179     1.0000 0.74460  0.50660  0.23120  Biso   1.000  H
  H180     1.0000 0.25540  0.50660  0.26880  Biso   1.000  H
  H181     1.0000 0.75540  0.99340  0.76880  Biso   1.000  H
  H182     1.0000 0.24460  0.99340  0.73120  Biso   1.000  H
  H183     1.0000 0.25540  0.49340  0.76880  Biso   1.000  H
  H184     1.0000 0.74460  0.49340  0.73120  Biso   1.000  H
  C81      1.0000 0.22954  0.72380  0.22410  Biso   1.000  C
  C82      1.0000 0.77046  0.72380  0.27590  Biso   1.000  C
  C83      1.0000 0.72954  0.22380  0.22410  Biso   1.000  C
  C84      1.0000 0.27046  0.22380  0.27590  Biso   1.000  C
  C85      1.0000 0.77046  0.27620  0.77590  Biso   1.000  C
  C86      1.0000 0.22954  0.27620  0.72410  Biso   1.000  C
  C87      1.0000 0.27046  0.77620  0.77590  Biso   1.000  C
  C88      1.0000 0.72954  0.77620  0.72410  Biso   1.000  C
  H185     1.0000 0.25140  0.70980  0.20510  Biso   1.000  H
  H186     1.0000 0.74860  0.70980  0.29490  Biso   1.000  H
  H187     1.0000 0.75140  0.20980  0.20510  Biso   1.000  H
  H188     1.0000 0.24860  0.20980  0.29490  Biso   1.000  H
  H189     1.0000 0.74860  0.29020  0.79490  Biso   1.000  H
  H190     1.0000 0.25140  0.29020  0.70510  Biso   1.000  H
  H191     1.0000 0.24860  0.79020  0.79490  Biso   1.000  H
  H192     1.0000 0.75140  0.79020  0.70510  Biso   1.000  H
  H193     1.0000 0.20380  0.67280  0.20640  Biso   1.000  H
  H194     1.0000 0.79620  0.67280  0.29360  Biso   1.000  H
  H195     1.0000 0.70380  0.17280  0.20640  Biso   1.000  H
  H196     1.0000 0.29620  0.17280  0.29360  Biso   1.000  H
  H197     1.0000 0.79620  0.32720  0.79360  Biso   1.000  H
  H198     1.0000 0.20380  0.32720  0.70640  Biso   1.000  H
  H199     1.0000 0.29620  0.82720  0.79360  Biso   1.000  H
  H200     1.0000 0.70380  0.82720  0.70640  Biso   1.000  H
  H201     1.0000 0.24370  0.71030  0.26810  Biso   1.000  H
  H202     1.0000 0.75630  0.71030  0.23190  Biso   1.000  H
  H203     1.0000 0.74370  0.21030  0.26810  Biso   1.000  H
  H204     1.0000 0.25630  0.21030  0.23190  Biso   1.000  H
  H205     1.0000 0.75630  0.28970  0.73190  Biso   1.000  H
  H206     1.0000 0.24370  0.28970  0.76810  Biso   1.000  H
  H207     1.0000 0.25630  0.78970  0.73190  Biso   1.000  H
  H208     1.0000 0.74370  0.78970  0.76810  Biso   1.000  H
  C89      1.0000 0.17866  0.87630  0.24190  Biso   1.000  C
  C90      1.0000 0.82134  0.87630  0.25810  Biso   1.000  C
  C91      1.0000 0.67866  0.37630  0.24190  Biso   1.000  C
  C92      1.0000 0.32134  0.37630  0.25810  Biso   1.000  C
  C93      1.0000 0.82134  0.12370  0.75810  Biso   1.000  C
  C94      1.0000 0.17866  0.12370  0.74190  Biso   1.000  C
  C95      1.0000 0.32134  0.62370  0.75810  Biso   1.000  C
  C96      1.0000 0.67866  0.62370  0.74190  Biso   1.000  C
  H209     1.0000 0.16430  0.94910  0.22450  Biso   1.000  H
  H210     1.0000 0.83570  0.94910  0.27550  Biso   1.000  H
  H211     1.0000 0.66430  0.44910  0.22450  Biso   1.000  H
  H212     1.0000 0.33570  0.44910  0.27550  Biso   1.000  H
  H213     1.0000 0.83570  0.05090  0.77550  Biso   1.000  H
  H214     1.0000 0.16430  0.05090  0.72450  Biso   1.000  H
  H215     1.0000 0.33570  0.55090  0.77550  Biso   1.000  H
  H216     1.0000 0.66430  0.55090  0.72450  Biso   1.000  H
  H217     1.0000 0.19550  0.88860  0.28610  Biso   1.000  H
  H218     1.0000 0.80450  0.88860  0.21390  Biso   1.000  H
  H219     1.0000 0.69550  0.38860  0.28610  Biso   1.000  H
  H220     1.0000 0.30450  0.38860  0.21390  Biso   1.000  H
  H221     1.0000 0.80450  0.11140  0.71390  Biso   1.000  H
  H222     1.0000 0.19550  0.11140  0.78610  Biso   1.000  H
  H223     1.0000 0.30450  0.61140  0.71390  Biso   1.000  H
  H224     1.0000 0.69550  0.61140  0.78610  Biso   1.000  H
  C97      1.0000 0.14083  0.79050  0.23507  Biso   1.000  C
  C98      1.0000 0.85917  0.79050  0.26493  Biso   1.000  C
  C99      1.0000 0.64083  0.29050  0.23507  Biso   1.000  C
  C100     1.0000 0.35917  0.29050  0.26493  Biso   1.000  C
  C101     1.0000 0.85917  0.20950  0.76493  Biso   1.000  C
  C102     1.0000 0.14083  0.20950  0.73507  Biso   1.000  C
  C103     1.0000 0.35917  0.70950  0.76493  Biso   1.000  C
  C104     1.0000 0.64083  0.70950  0.73507  Biso   1.000  C
  H225     1.0000 0.15570  0.71670  0.25140  Biso   1.000  H
  H226     1.0000 0.84430  0.71670  0.24860  Biso   1.000  H
  H227     1.0000 0.65570  0.21670  0.25140  Biso   1.000  H
  H228     1.0000 0.34430  0.21670  0.24860  Biso   1.000  H
  H229     1.0000 0.84430  0.28330  0.74860  Biso   1.000  H
  H230     1.0000 0.15570  0.28330  0.75140  Biso   1.000  H
  H231     1.0000 0.34430  0.78330  0.74860  Biso   1.000  H
  H232     1.0000 0.65570  0.78330  0.75140  Biso   1.000  H
  C105     1.0000 0.11410  0.82650  0.27540  Biso   1.000  C
  C106     1.0000 0.88590  0.82650  0.22460  Biso   1.000  C
  C107     1.0000 0.61410  0.32650  0.27540  Biso   1.000  C
  C108     1.0000 0.38590  0.32650  0.22460  Biso   1.000  C
  C109     1.0000 0.88590  0.17350  0.72460  Biso   1.000  C
  C110     1.0000 0.11410  0.17350  0.77540  Biso   1.000  C
  C111     1.0000 0.38590  0.67350  0.72460  Biso   1.000  C
  C112     1.0000 0.61410  0.67350  0.77540  Biso   1.000  C
  H233     1.0000 0.09050  0.77090  0.27110  Biso   1.000  H
  H234     1.0000 0.90950  0.77090  0.22890  Biso   1.000  H
  H235     1.0000 0.59050  0.27090  0.27110  Biso   1.000  H
  H236     1.0000 0.40950  0.27090  0.22890  Biso   1.000  H
  H237     1.0000 0.90950  0.22910  0.72890  Biso   1.000  H
  H238     1.0000 0.09050  0.22910  0.77110  Biso   1.000  H
  H239     1.0000 0.40950  0.72910  0.72890  Biso   1.000  H
  H240     1.0000 0.59050  0.72910  0.77110  Biso   1.000  H
  H241     1.0000 0.10040  0.90080  0.26210  Biso   1.000  H
  H242     1.0000 0.89960  0.90080  0.23790  Biso   1.000  H
  H243     1.0000 0.60040  0.40080  0.26210  Biso   1.000  H
  H244     1.0000 0.39960  0.40080  0.23790  Biso   1.000  H
  H245     1.0000 0.89960  0.09920  0.73790  Biso   1.000  H
  H246     1.0000 0.10040  0.09920  0.76210  Biso   1.000  H
  H247     1.0000 0.39960  0.59920  0.73790  Biso   1.000  H
  H248     1.0000 0.60040  0.59920  0.76210  Biso   1.000  H
  H249     1.0000 0.13470  0.83050  0.31820  Biso   1.000  H
  H250     1.0000 0.86530  0.83050  0.18180  Biso   1.000  H
  H251     1.0000 0.63470  0.33050  0.31820  Biso   1.000  H
  H252     1.0000 0.36530  0.33050  0.18180  Biso   1.000  H
  H253     1.0000 0.86530  0.16950  0.68180  Biso   1.000  H
  H254     1.0000 0.13470  0.16950  0.81820  Biso   1.000  H
  H255     1.0000 0.36530  0.66950  0.68180  Biso   1.000  H
  H256     1.0000 0.63470  0.66950  0.81820  Biso   1.000  H
  C113     1.0000 0.08623  0.65610  0.16350  Biso   1.000  C
  C114     1.0000 0.91377  0.65610  0.33650  Biso   1.000  C
  C115     1.0000 0.58623  0.15610  0.16350  Biso   1.000  C
  C116     1.0000 0.41377  0.15610  0.33650  Biso   1.000  C
  C117     1.0000 0.91377  0.34390  0.83650  Biso   1.000  C
  C118     1.0000 0.08623  0.34390  0.66350  Biso   1.000  C
  C119     1.0000 0.41377  0.84390  0.83650  Biso   1.000  C
  C120     1.0000 0.58623  0.84390  0.66350  Biso   1.000  C
  H257     1.0000 0.10880  0.59520  0.17970  Biso   1.000  H
  H258     1.0000 0.89120  0.59520  0.32030  Biso   1.000  H
  H259     1.0000 0.60880  0.09520  0.17970  Biso   1.000  H
  H260     1.0000 0.39120  0.09520  0.32030  Biso   1.000  H
  H261     1.0000 0.89120  0.40480  0.82030  Biso   1.000  H
  H262     1.0000 0.10880  0.40480  0.67970  Biso   1.000  H
  H263     1.0000 0.39120  0.90480  0.82030  Biso   1.000  H
  H264     1.0000 0.60880  0.90480  0.67970  Biso   1.000  H
  H265     1.0000 0.06660  0.65670  0.18740  Biso   1.000  H
  H266     1.0000 0.93340  0.65670  0.31260  Biso   1.000  H
  H267     1.0000 0.56660  0.15670  0.18740  Biso   1.000  H
  H268     1.0000 0.43340  0.15670  0.31260  Biso   1.000  H
  H269     1.0000 0.93340  0.34330  0.81260  Biso   1.000  H
  H270     1.0000 0.06660  0.34330  0.68740  Biso   1.000  H
  H271     1.0000 0.43340  0.84330  0.81260  Biso   1.000  H
  H272     1.0000 0.56660  0.84330  0.68740  Biso   1.000  H
  C121     1.0000 0.05887  0.63460  0.09830  Biso   1.000  C
  C122     1.0000 0.94113  0.63460  0.40170  Biso   1.000  C
  C123     1.0000 0.55887  0.13460  0.09830  Biso   1.000  C
  C124     1.0000 0.44113  0.13460  0.40170  Biso   1.000  C
  C125     1.0000 0.94113  0.36540  0.90170  Biso   1.000  C
  C126     1.0000 0.05887  0.36540  0.59830  Biso   1.000  C
  C127     1.0000 0.44113  0.86540  0.90170  Biso   1.000  C
  C128     1.0000 0.55887  0.86540  0.59830  Biso   1.000  C
  H273     1.0000 0.03270  0.68650  0.08480  Biso   1.000  H
  H274     1.0000 0.96730  0.68650  0.41520  Biso   1.000  H
  H275     1.0000 0.53270  0.18650  0.08480  Biso   1.000  H
  H276     1.0000 0.46730  0.18650  0.41520  Biso   1.000  H
  H277     1.0000 0.96730  0.31350  0.91520  Biso   1.000  H
  H278     1.0000 0.03270  0.31350  0.58480  Biso   1.000  H
  H279     1.0000 0.46730  0.81350  0.91520  Biso   1.000  H
  H280     1.0000 0.53270  0.81350  0.58480  Biso   1.000  H
  H281     1.0000 0.04720  0.55630  0.09360  Biso   1.000  H
  H282     1.0000 0.95280  0.55630  0.40640  Biso   1.000  H
  H283     1.0000 0.54720  0.05630  0.09360  Biso   1.000  H
  H284     1.0000 0.45280  0.05630  0.40640  Biso   1.000  H
  H285     1.0000 0.95280  0.44370  0.90640  Biso   1.000  H
  H286     1.0000 0.04720  0.44370  0.59360  Biso   1.000  H
  H287     1.0000 0.45280  0.94370  0.90640  Biso   1.000  H
  H288     1.0000 0.54720  0.94370  0.59360  Biso   1.000  H
  N33      1.0000 0.08782  0.93570  0.05900  Biso   1.000  N
  N34      1.0000 0.91218  0.93570  0.44100  Biso   1.000  N
  N35      1.0000 0.58782  0.43570  0.05900  Biso   1.000  N
  N36      1.0000 0.41218  0.43570  0.44100  Biso   1.000  N
  N37      1.0000 0.91218  0.06430  0.94100  Biso   1.000  N
  N38      1.0000 0.08782  0.06430  0.55900  Biso   1.000  N
  N39      1.0000 0.41218  0.56430  0.94100  Biso   1.000  N
  N40      1.0000 0.58782  0.56430  0.55900  Biso   1.000  N
  C129     1.0000 0.06829  0.01840  0.04136  Biso   1.000  C
  C130     1.0000 0.93171  0.01840  0.45864  Biso   1.000  C
  C131     1.0000 0.56829  0.51840  0.04136  Biso   1.000  C
  C132     1.0000 0.43171  0.51840  0.45864  Biso   1.000  C
  C133     1.0000 0.93171  0.98160  0.95864  Biso   1.000  C
  C134     1.0000 0.06829  0.98160  0.54136  Biso   1.000  C
  C135     1.0000 0.43171  0.48160  0.95864  Biso   1.000  C
  C136     1.0000 0.56829  0.48160  0.54136  Biso   1.000  C
  N41      1.0000 0.04870  0.11480  0.01692  Biso   1.000  N
  N42      1.0000 0.95130  0.11480  0.48308  Biso   1.000  N
  N43      1.0000 0.54870  0.61480  0.01692  Biso   1.000  N
  N44      1.0000 0.45130  0.61480  0.48308  Biso   1.000  N
  N45      1.0000 0.95130  0.88520  0.98308  Biso   1.000  N
  N46      1.0000 0.04870  0.88520  0.51692  Biso   1.000  N
  N47      1.0000 0.45130  0.38520  0.98308  Biso   1.000  N
  N48      1.0000 0.54870  0.38520  0.51692  Biso   1.000  N
  C137     1.0000 0.02143  0.17190  0.03520  Biso   1.000  C
  C138     1.0000 0.97857  0.17190  0.46480  Biso   1.000  C
  C139     1.0000 0.52143  0.67190  0.03520  Biso   1.000  C
  C140     1.0000 0.47857  0.67190  0.46480  Biso   1.000  C
  C141     1.0000 0.97857  0.82810  0.96480  Biso   1.000  C
  C142     1.0000 0.02143  0.82810  0.53520  Biso   1.000  C
  C143     1.0000 0.47857  0.32810  0.96480  Biso   1.000  C
  C144     1.0000 0.52143  0.32810  0.53520  Biso   1.000  C
  N49      1.0000 0.99687  0.23210  0.04810  Biso   1.000  N
  N50      1.0000 0.00313  0.23210  0.45190  Biso   1.000  N
  N51      1.0000 0.49687  0.73210  0.04810  Biso   1.000  N
  N52      1.0000 0.50313  0.73210  0.45190  Biso   1.000  N
  N53      1.0000 0.00313  0.76790  0.95190  Biso   1.000  N
  N54      1.0000 0.99687  0.76790  0.54810  Biso   1.000  N
  N55      1.0000 0.50313  0.26790  0.95190  Biso   1.000  N
  N56      1.0000 0.49687  0.26790  0.54810  Biso   1.000  N
  Mn1      1.0000 0.25000  0.75000  0.50000  Biso   1.000  Mn
  Mn2      1.0000 0.75000  0.75000  0.00000  Biso   1.000  Mn
  Mn3      1.0000 0.75000  0.25000  0.50000  Biso   1.000  Mn
  Mn4      1.0000 0.25000  0.25000  0.00000  Biso   1.000  Mn
  Mn5      1.0000 0.08913  0.24850  0.23461  Biso   1.000  Mn
  Mn6      1.0000 0.91087  0.24850  0.26539  Biso   1.000  Mn
  Mn7      1.0000 0.58913  0.74850  0.23461  Biso   1.000  Mn
  Mn8      1.0000 0.41087  0.74850  0.26539  Biso   1.000  Mn
  Mn9      1.0000 0.91087  0.75150  0.76539  Biso   1.000  Mn
  Mn10     1.0000 0.08913  0.75150  0.73461  Biso   1.000  Mn
  Mn11     1.0000 0.41087  0.25150  0.76539  Biso   1.000  Mn
  Mn12     1.0000 0.58913  0.25150  0.73461  Biso   1.000  Mn
  N57      1.0000 0.23288  0.91120  0.44582  Biso   1.000  N
  N58      1.0000 0.76712  0.91120  0.05418  Biso   1.000  N
  N59      1.0000 0.73288  0.41120  0.44582  Biso   1.000  N
  N60      1.0000 0.26712  0.41120  0.05418  Biso   1.000  N
  N61      1.0000 0.76712  0.08880  0.55418  Biso   1.000  N
  N62      1.0000 0.23288  0.08880  0.94582  Biso   1.000  N
  N63      1.0000 0.26712  0.58880  0.55418  Biso   1.000  N
  N64      1.0000 0.73288  0.58880  0.94582  Biso   1.000  N
  C145     1.0000 0.22256  0.99180  0.41513  Biso   1.000  C
  C146     1.0000 0.77744  0.99180  0.08487  Biso   1.000  C
  C147     1.0000 0.72256  0.49180  0.41513  Biso   1.000  C
  C148     1.0000 0.27744  0.49180  0.08487  Biso   1.000  C
  C149     1.0000 0.77744  0.00820  0.58487  Biso   1.000  C
  C150     1.0000 0.22256  0.00820  0.91513  Biso   1.000  C
  C151     1.0000 0.27744  0.50820  0.58487  Biso   1.000  C
  C152     1.0000 0.72256  0.50820  0.91513  Biso   1.000  C
  N65      1.0000 0.21599  0.08720  0.38459  Biso   1.000  N
  N66      1.0000 0.78401  0.08720  0.11541  Biso   1.000  N
  N67      1.0000 0.71599  0.58720  0.38459  Biso   1.000  N
  N68      1.0000 0.28401  0.58720  0.11541  Biso   1.000  N
  N69      1.0000 0.78401  0.91280  0.61541  Biso   1.000  N
  N70      1.0000 0.21599  0.91280  0.88459  Biso   1.000  N
  N71      1.0000 0.28401  0.41280  0.61541  Biso   1.000  N
  N72      1.0000 0.71599  0.41280  0.88459  Biso   1.000  N
  C153     1.0000 0.17601  0.11740  0.34462  Biso   1.000  C
  C154     1.0000 0.82399  0.11740  0.15538  Biso   1.000  C
  C155     1.0000 0.67601  0.61740  0.34462  Biso   1.000  C
  C156     1.0000 0.32399  0.61740  0.15538  Biso   1.000  C
  C157     1.0000 0.82399  0.88260  0.65538  Biso   1.000  C
  C158     1.0000 0.17601  0.88260  0.84462  Biso   1.000  C
  C159     1.0000 0.32399  0.38260  0.65538  Biso   1.000  C
  C160     1.0000 0.67601  0.38260  0.84462  Biso   1.000  C
  N73      1.0000 0.14321  0.15440  0.30870  Biso   1.000  N
  N74      1.0000 0.85679  0.15440  0.19130  Biso   1.000  N
  N75      1.0000 0.64321  0.65440  0.30870  Biso   1.000  N
  N76      1.0000 0.35679  0.65440  0.19130  Biso   1.000  N
  N77      1.0000 0.85679  0.84560  0.69130  Biso   1.000  N
  N78      1.0000 0.14321  0.84560  0.80870  Biso   1.000  N
  N79      1.0000 0.35679  0.34560  0.69130  Biso   1.000  N
  N80      1.0000 0.64321  0.34560  0.80870  Biso   1.000  N
  N81      1.0000 0.20050  0.20530  0.04490  Biso   1.000  N
  N82      1.0000 0.79950  0.20530  0.45510  Biso   1.000  N
  N83      1.0000 0.70050  0.70530  0.04490  Biso   1.000  N
  N84      1.0000 0.29950  0.70530  0.45510  Biso   1.000  N
  N85      1.0000 0.79950  0.79470  0.95510  Biso   1.000  N
  N86      1.0000 0.20050  0.79470  0.54490  Biso   1.000  N
  N87      1.0000 0.29950  0.29470  0.95510  Biso   1.000  N
  N88      1.0000 0.70050  0.29470  0.54490  Biso   1.000  N
  C161     1.0000 0.18756  0.17900  0.08240  Biso   1.000  C
  C162     1.0000 0.81244  0.17900  0.41760  Biso   1.000  C
  C163     1.0000 0.68756  0.67900  0.08240  Biso   1.000  C
  C164     1.0000 0.31244  0.67900  0.41760  Biso   1.000  C
  C165     1.0000 0.81244  0.82100  0.91760  Biso   1.000  C
  C166     1.0000 0.18756  0.82100  0.58240  Biso   1.000  C
  C167     1.0000 0.31244  0.32100  0.91760  Biso   1.000  C
  C168     1.0000 0.68756  0.32100  0.58240  Biso   1.000  C
  N89      1.0000 0.17634  0.13620  0.12677  Biso   1.000  N
  N90      1.0000 0.82366  0.13620  0.37323  Biso   1.000  N
  N91      1.0000 0.67634  0.63620  0.12677  Biso   1.000  N
  N92      1.0000 0.32366  0.63620  0.37323  Biso   1.000  N
  N93      1.0000 0.82366  0.86380  0.87323  Biso   1.000  N
  N94      1.0000 0.17634  0.86380  0.62677  Biso   1.000  N
  N95      1.0000 0.32366  0.36380  0.87323  Biso   1.000  N
  N96      1.0000 0.67634  0.36380  0.62677  Biso   1.000  N
  C169     1.0000 0.14947  0.18650  0.14870  Biso   1.000  C
  C170     1.0000 0.85053  0.18650  0.35130  Biso   1.000  C
  C171     1.0000 0.64947  0.68650  0.14870  Biso   1.000  C
  C172     1.0000 0.35053  0.68650  0.35130  Biso   1.000  C
  C173     1.0000 0.85053  0.81350  0.85130  Biso   1.000  C
  C174     1.0000 0.14947  0.81350  0.64870  Biso   1.000  C
  C175     1.0000 0.35053  0.31350  0.85130  Biso   1.000  C
  C176     1.0000 0.64947  0.31350  0.64870  Biso   1.000  C
  N97      1.0000 0.12652  0.22140  0.17285  Biso   1.000  N
  N98      1.0000 0.87348  0.22140  0.32715  Biso   1.000  N
  N99      1.0000 0.62652  0.72140  0.17285  Biso   1.000  N
  N100     1.0000 0.37348  0.72140  0.32715  Biso   1.000  N
  N101     1.0000 0.87348  0.77860  0.82715  Biso   1.000  N
  N102     1.0000 0.12652  0.77860  0.67285  Biso   1.000  N
  N103     1.0000 0.37348  0.27860  0.82715  Biso   1.000  N
  N104     1.0000 0.62652  0.27860  0.67285  Biso   1.000  N
  N105     1.0000 0.19571  0.34090  0.92335  Biso   1.000  N
  N106     1.0000 0.80429  0.34090  0.57665  Biso   1.000  N
  N107     1.0000 0.69571  0.84090  0.92335  Biso   1.000  N
  N108     1.0000 0.30429  0.84090  0.57665  Biso   1.000  N
  N109     1.0000 0.80429  0.65910  0.07665  Biso   1.000  N
  N110     1.0000 0.19571  0.65910  0.42335  Biso   1.000  N
  N111     1.0000 0.30429  0.15910  0.07665  Biso   1.000  N
  N112     1.0000 0.69571  0.15910  0.42335  Biso   1.000  N
  C177     1.0000 0.18560  0.39130  0.87950  Biso   1.000  C
  C178     1.0000 0.81440  0.39130  0.62050  Biso   1.000  C
  C179     1.0000 0.68560  0.89130  0.87950  Biso   1.000  C
  C180     1.0000 0.31440  0.89130  0.62050  Biso   1.000  C
  C181     1.0000 0.81440  0.60870  0.12050  Biso   1.000  C
  C182     1.0000 0.18560  0.60870  0.37950  Biso   1.000  C
  C183     1.0000 0.31440  0.10870  0.12050  Biso   1.000  C
  C184     1.0000 0.68560  0.10870  0.37950  Biso   1.000  C
  N113     1.0000 0.12840  0.43320  0.84410  Biso   1.000  N
  N114     1.0000 0.87160  0.43320  0.65590  Biso   1.000  N
  N115     1.0000 0.62840  0.93320  0.84410  Biso   1.000  N
  N116     1.0000 0.37160  0.93320  0.65590  Biso   1.000  N
  N117     1.0000 0.87160  0.56680  0.15590  Biso   1.000  N
  N118     1.0000 0.12840  0.56680  0.34410  Biso   1.000  N
  N119     1.0000 0.37160  0.06680  0.15590  Biso   1.000  N
  N120     1.0000 0.62840  0.06680  0.34410  Biso   1.000  N
  C185     1.0000 0.14690  0.51590  0.80210  Biso   1.000  C
  C186     1.0000 0.85310  0.51590  0.69790  Biso   1.000  C
  C187     1.0000 0.64690  0.01590  0.80210  Biso   1.000  C
  C188     1.0000 0.35310  0.01590  0.69790  Biso   1.000  C
  C189     1.0000 0.85310  0.48410  0.19790  Biso   1.000  C
  C190     1.0000 0.14690  0.48410  0.30210  Biso   1.000  C
  C191     1.0000 0.35310  0.98410  0.19790  Biso   1.000  C
  C192     1.0000 0.64690  0.98410  0.30210  Biso   1.000  C
  N121     1.0000 0.12318  0.41350  0.27450  Biso   1.000  N
  N122     1.0000 0.87682  0.41350  0.22550  Biso   1.000  N
  N123     1.0000 0.62318  0.91350  0.27450  Biso   1.000  N
  N124     1.0000 0.37682  0.91350  0.22550  Biso   1.000  N
  N125     1.0000 0.87682  0.58650  0.72550  Biso   1.000  N
  N126     1.0000 0.12318  0.58650  0.77450  Biso   1.000  N
  N127     1.0000 0.37682  0.08650  0.72550  Biso   1.000  N
  N128     1.0000 0.62318  0.08650  0.77450  Biso   1.000  N
  N129     1.0000 0.04594  0.09660  0.19830  Biso   1.000  N
  N130     1.0000 0.95406  0.09660  0.30170  Biso   1.000  N
  N131     1.0000 0.54594  0.59660  0.19830  Biso   1.000  N
  N132     1.0000 0.45406  0.59660  0.30170  Biso   1.000  N
  N133     1.0000 0.95406  0.90340  0.80170  Biso   1.000  N
  N134     1.0000 0.04594  0.90340  0.69830  Biso   1.000  N
  N135     1.0000 0.45406  0.40340  0.80170  Biso   1.000  N
  N136     1.0000 0.54594  0.40340  0.69830  Biso   1.000  N
  C193     1.0000 0.02540  0.02070  0.17730  Biso   1.000  C
  C194     1.0000 0.97460  0.02070  0.32270  Biso   1.000  C
  C195     1.0000 0.52540  0.52070  0.17730  Biso   1.000  C
  C196     1.0000 0.47460  0.52070  0.32270  Biso   1.000  C
  C197     1.0000 0.97460  0.97930  0.82270  Biso   1.000  C
  C198     1.0000 0.02540  0.97930  0.67730  Biso   1.000  C
  C199     1.0000 0.47460  0.47930  0.82270  Biso   1.000  C
  C200     1.0000 0.52540  0.47930  0.67730  Biso   1.000  C
  N137     1.0000 0.01700  0.92130  0.14260  Biso   1.000  N
  N138     1.0000 0.98300  0.92130  0.35740  Biso   1.000  N
  N139     1.0000 0.51700  0.42130  0.14260  Biso   1.000  N
  N140     1.0000 0.48300  0.42130  0.35740  Biso   1.000  N
  N141     1.0000 0.98300  0.07870  0.85740  Biso   1.000  N
  N142     1.0000 0.01700  0.07870  0.64260  Biso   1.000  N
  N143     1.0000 0.48300  0.57870  0.85740  Biso   1.000  N
  N144     1.0000 0.51700  0.57870  0.64260  Biso   1.000  N
  C201     1.0000 0.98820  0.84470  0.15410  Biso   1.000  C
  C202     1.0000 0.01180  0.84470  0.34590  Biso   1.000  C
  C203     1.0000 0.48820  0.34470  0.15410  Biso   1.000  C
  C204     1.0000 0.51180  0.34470  0.34590  Biso   1.000  C
  C205     1.0000 0.01180  0.15530  0.84590  Biso   1.000  C
  C206     1.0000 0.98820  0.15530  0.65410  Biso   1.000  C
  C207     1.0000 0.51180  0.65530  0.84590  Biso   1.000  C
  C208     1.0000 0.48820  0.65530  0.65410  Biso   1.000  C
  N145     1.0000 0.97260  0.75900  0.15230  Biso   1.000  N
  N146     1.0000 0.02740  0.75900  0.34770  Biso   1.000  N
  N147     1.0000 0.47260  0.25900  0.15230  Biso   1.000  N
  N148     1.0000 0.52740  0.25900  0.34770  Biso   1.000  N
  N149     1.0000 0.02740  0.24100  0.84770  Biso   1.000  N
  N150     1.0000 0.97260  0.24100  0.65230  Biso   1.000  N
  N151     1.0000 0.52740  0.74100  0.84770  Biso   1.000  N
  N152     1.0000 0.47260  0.74100  0.65230  Biso   1.000  N
  O1       1.0000 0.03811  0.35690  0.16213  Biso   1.000  O
  O2       1.0000 0.96189  0.35690  0.33787  Biso   1.000  O
  O3       1.0000 0.53811  0.85690  0.16213  Biso   1.000  O
  O4       1.0000 0.46189  0.85690  0.33787  Biso   1.000  O
  O5       1.0000 0.96189  0.64310  0.83787  Biso   1.000  O
  O6       1.0000 0.03811  0.64310  0.66213  Biso   1.000  O
  O7       1.0000 0.46189  0.14310  0.83787  Biso   1.000  O
  O8       1.0000 0.53811  0.14310  0.66213  Biso   1.000  O
  H289     1.0000 0.02330  0.41860  0.16920  Biso   1.000  H
  H290     1.0000 0.97670  0.41860  0.33080  Biso   1.000  H
  H291     1.0000 0.52330  0.91860  0.16920  Biso   1.000  H
  H292     1.0000 0.47670  0.91860  0.33080  Biso   1.000  H
  H293     1.0000 0.97670  0.58140  0.83080  Biso   1.000  H
  H294     1.0000 0.02330  0.58140  0.66920  Biso   1.000  H
  H295     1.0000 0.47670  0.08140  0.83080  Biso   1.000  H
  H296     1.0000 0.52330  0.08140  0.66920  Biso   1.000  H
  H297     1.0000 0.02490  0.31670  0.12660  Biso   1.000  H
  H298     1.0000 0.97510  0.31670  0.37340  Biso   1.000  H
  H299     1.0000 0.52490  0.81670  0.12660  Biso   1.000  H
  H300     1.0000 0.47510  0.81670  0.37340  Biso   1.000  H
  H301     1.0000 0.97510  0.68330  0.87340  Biso   1.000  H
  H302     1.0000 0.02490  0.68330  0.62660  Biso   1.000  H
  H303     1.0000 0.47510  0.18330  0.87340  Biso   1.000  H
  H304     1.0000 0.52490  0.18330  0.62660  Biso   1.000  H
  O9       1.0000 0.04897  0.27600  0.29555  Biso   1.000  O
  O10      1.0000 0.95103  0.27600  0.20445  Biso   1.000  O
  O11      1.0000 0.54897  0.77600  0.29555  Biso   1.000  O
  O12      1.0000 0.45103  0.77600  0.20445  Biso   1.000  O
  O13      1.0000 0.95103  0.72400  0.70445  Biso   1.000  O
  O14      1.0000 0.04897  0.72400  0.79555  Biso   1.000  O
  O15      1.0000 0.45103  0.22400  0.70445  Biso   1.000  O
  O16      1.0000 0.54897  0.22400  0.79555  Biso   1.000  O
  H305     1.0000 0.05810  0.22490  0.32730  Biso   1.000  H
  H306     1.0000 0.94190  0.22490  0.17270  Biso   1.000  H
  H307     1.0000 0.55810  0.72490  0.32730  Biso   1.000  H
  H308     1.0000 0.44190  0.72490  0.17270  Biso   1.000  H
  H309     1.0000 0.94190  0.77510  0.67270  Biso   1.000  H
  H310     1.0000 0.05810  0.77510  0.82730  Biso   1.000  H
  H311     1.0000 0.44190  0.27510  0.67270  Biso   1.000  H
  H312     1.0000 0.55810  0.27510  0.82730  Biso   1.000  H
  H313     1.0000 0.02070  0.27160  0.26560  Biso   1.000  H
  H314     1.0000 0.97930  0.27160  0.23440  Biso   1.000  H
  H315     1.0000 0.52070  0.77160  0.26560  Biso   1.000  H
  H316     1.0000 0.47930  0.77160  0.23440  Biso   1.000  H
  H317     1.0000 0.97930  0.72840  0.73440  Biso   1.000  H
  H318     1.0000 0.02070  0.72840  0.76560  Biso   1.000  H
  H319     1.0000 0.47930  0.22840  0.73440  Biso   1.000  H
  H320     1.0000 0.52070  0.22840  0.76560  Biso   1.000  H
  O17      1.0000 0.07486  0.14960  0.40558  Biso   1.000  O
  O18      1.0000 0.92514  0.14960  0.09442  Biso   1.000  O
  O19      1.0000 0.57486  0.64960  0.40558  Biso   1.000  O
  O20      1.0000 0.42514  0.64960  0.09442  Biso   1.000  O
  O21      1.0000 0.92514  0.85040  0.59442  Biso   1.000  O
  O22      1.0000 0.07486  0.85040  0.90558  Biso   1.000  O
  O23      1.0000 0.42514  0.35040  0.59442  Biso   1.000  O
  O24      1.0000 0.57486  0.35040  0.90558  Biso   1.000  O
  H321     1.0000 0.05880  0.14850  0.43060  Biso   1.000  H
  H322     1.0000 0.94120  0.14850  0.06940  Biso   1.000  H
  H323     1.0000 0.55880  0.64850  0.43060  Biso   1.000  H
  H324     1.0000 0.44120  0.64850  0.06940  Biso   1.000  H
  H325     1.0000 0.94120  0.85150  0.56940  Biso   1.000  H
  H326     1.0000 0.05880  0.85150  0.93060  Biso   1.000  H
  H327     1.0000 0.44120  0.35150  0.56940  Biso   1.000  H
  H328     1.0000 0.55880  0.35150  0.93060  Biso   1.000  H
  H329     1.0000 0.10000  0.10460  0.41690  Biso   1.000  H
  H330     1.0000 0.90000  0.10460  0.08310  Biso   1.000  H
  H331     1.0000 0.60000  0.60460  0.41690  Biso   1.000  H
  H332     1.0000 0.40000  0.60460  0.08310  Biso   1.000  H
  H333     1.0000 0.90000  0.89540  0.58310  Biso   1.000  H
  H334     1.0000 0.10000  0.89540  0.91690  Biso   1.000  H
  H335     1.0000 0.40000  0.39540  0.58310  Biso   1.000  H
  H336     1.0000 0.60000  0.39540  0.91690  Biso   1.000  H
  O25      1.0000 0.97983  0.51890  0.18451  Biso   1.000  O
  O26      1.0000 0.02017  0.51890  0.31549  Biso   1.000  O
  O27      1.0000 0.47983  0.01890  0.18451  Biso   1.000  O
  O28      1.0000 0.52017  0.01890  0.31549  Biso   1.000  O
  O29      1.0000 0.02017  0.48110  0.81549  Biso   1.000  O
  O30      1.0000 0.97983  0.48110  0.68451  Biso   1.000  O
  O31      1.0000 0.52017  0.98110  0.81549  Biso   1.000  O
  O32      1.0000 0.47983  0.98110  0.68451  Biso   1.000  O
  H337     1.0000 0.97560  0.59520  0.18670  Biso   1.000  H
  H338     1.0000 0.02440  0.59520  0.31330  Biso   1.000  H
  H339     1.0000 0.47560  0.09520  0.18670  Biso   1.000  H
  H340     1.0000 0.52440  0.09520  0.31330  Biso   1.000  H
  H341     1.0000 0.02440  0.40480  0.81330  Biso   1.000  H
  H342     1.0000 0.97560  0.40480  0.68670  Biso   1.000  H
  H343     1.0000 0.52440  0.90480  0.81330  Biso   1.000  H
  H344     1.0000 0.47560  0.90480  0.68670  Biso   1.000  H
  H345     1.0000 0.95770  0.47840  0.19140  Biso   1.000  H
  H346     1.0000 0.04230  0.47840  0.30860  Biso   1.000  H
  H347     1.0000 0.45770  0.97840  0.19140  Biso   1.000  H
  H348     1.0000 0.54230  0.97840  0.30860  Biso   1.000  H
  H349     1.0000 0.04230  0.52160  0.80860  Biso   1.000  H
  H350     1.0000 0.95770  0.52160  0.69140  Biso   1.000  H
  H351     1.0000 0.54230  0.02160  0.80860  Biso   1.000  H
  H352     1.0000 0.45770  0.02160  0.69140  Biso   1.000  H
  O33      1.0000 0.88298  0.92010  0.07380  Biso   1.000  O
  O34      1.0000 0.11702  0.92010  0.42620  Biso   1.000  O
  O35      1.0000 0.38298  0.42010  0.07380  Biso   1.000  O
  O36      1.0000 0.61702  0.42010  0.42620  Biso   1.000  O
  O37      1.0000 0.11702  0.07990  0.92620  Biso   1.000  O
  O38      1.0000 0.88298  0.07990  0.57380  Biso   1.000  O
  O39      1.0000 0.61702  0.57990  0.92620  Biso   1.000  O
  O40      1.0000 0.38298  0.57990  0.57380  Biso   1.000  O
  H353     1.0000 0.89360  0.88820  0.04640  Biso   1.000  H
  H354     1.0000 0.10640  0.88820  0.45360  Biso   1.000  H
  H355     1.0000 0.39360  0.38820  0.04640  Biso   1.000  H
  H356     1.0000 0.60640  0.38820  0.45360  Biso   1.000  H
  H357     1.0000 0.10640  0.11180  0.95360  Biso   1.000  H
  H358     1.0000 0.89360  0.11180  0.54640  Biso   1.000  H
  H359     1.0000 0.60640  0.61180  0.95360  Biso   1.000  H
  H360     1.0000 0.39360  0.61180  0.54640  Biso   1.000  H
  H361     1.0000 0.89650  0.88630  0.11130  Biso   1.000  H
  H362     1.0000 0.10350  0.88630  0.38870  Biso   1.000  H
  H363     1.0000 0.39650  0.38630  0.11130  Biso   1.000  H
  H364     1.0000 0.60350  0.38630  0.38870  Biso   1.000  H
  H365     1.0000 0.10350  0.11370  0.88870  Biso   1.000  H
  H366     1.0000 0.89650  0.11370  0.61130  Biso   1.000  H
  H367     1.0000 0.60350  0.61370  0.88870  Biso   1.000  H
  H368     1.0000 0.39650  0.61370  0.61130  Biso   1.000  H
  C209     1.0000 0.16460  0.61460  0.38510  Biso   1.000  C
  C210     1.0000 0.83540  0.61460  0.11490  Biso   1.000  C
  C211     1.0000 0.66460  0.11460  0.38510  Biso   1.000  C
  C212     1.0000 0.33540  0.11460  0.11490  Biso   1.000  C
  C213     1.0000 0.83540  0.38540  0.61490  Biso   1.000  C
  C214     1.0000 0.16460  0.38540  0.88510  Biso   1.000  C
  C215     1.0000 0.33540  0.88540  0.61490  Biso   1.000  C
  C216     1.0000 0.66460  0.88540  0.88510  Biso   1.000  C
  C217     1.0000 0.12860  0.48370  0.30890  Biso   1.000  C
  C218     1.0000 0.87140  0.48370  0.19110  Biso   1.000  C
  C219     1.0000 0.62860  0.98370  0.30890  Biso   1.000  C
  C220     1.0000 0.37140  0.98370  0.19110  Biso   1.000  C
  C221     1.0000 0.87140  0.51630  0.69110  Biso   1.000  C
  C222     1.0000 0.12860  0.51630  0.80890  Biso   1.000  C
  C223     1.0000 0.37140  0.01630  0.69110  Biso   1.000  C
  C224     1.0000 0.62860  0.01630  0.80890  Biso   1.000  C
  N153     1.0000 0.17920  0.55740  0.32870  Biso   1.000  N
  N154     1.0000 0.82080  0.55740  0.17130  Biso   1.000  N
  N155     1.0000 0.67920  0.05740  0.32870  Biso   1.000  N
  N156     1.0000 0.32080  0.05740  0.17130  Biso   1.000  N
  N157     1.0000 0.82080  0.44260  0.67130  Biso   1.000  N
  N158     1.0000 0.17920  0.44260  0.82870  Biso   1.000  N
  N159     1.0000 0.32080  0.94260  0.67130  Biso   1.000  N
  N160     1.0000 0.67920  0.94260  0.82870  Biso   1.000  N
  N161     1.0000 0.98240  0.96230  0.15960  Biso   1.000  N
  N162     1.0000 0.01760  0.96230  0.34040  Biso   1.000  N
  N163     1.0000 0.48240  0.46230  0.15960  Biso   1.000  N
  N164     1.0000 0.51760  0.46230  0.34040  Biso   1.000  N
  N165     1.0000 0.01760  0.03770  0.84040  Biso   1.000  N
  N166     1.0000 0.98240  0.03770  0.65960  Biso   1.000  N
  N167     1.0000 0.51760  0.53770  0.84040  Biso   1.000  N
  N168     1.0000 0.48240  0.53770  0.65960  Biso   1.000  N
