data_image0
_cell_length_a       29.846
_cell_length_b       21.31
_cell_length_c       12.09
_cell_angle_alpha    90
_cell_angle_beta     90
_cell_angle_gamma    90

_symmetry_space_group_name_H-M    "P 1"
_symmetry_int_tables_number       1

loop_
  _symmetry_equiv_pos_as_xyz
  'x, y, z'

loop_
  _atom_site_label
  _atom_site_occupancy
  _atom_site_fract_x
  _atom_site_fract_y
  _atom_site_fract_z
  _atom_site_thermal_displace_type
  _atom_site_B_iso_or_equiv
  _atom_site_type_symbol
  Cu1      1.0000 0.38684  0.62095  0.17080  Biso   1.000  Cu
  Cu2      1.0000 0.61316  0.37905  0.67080  Biso   1.000  Cu
  Cu3      1.0000 0.88684  0.37905  0.17080  Biso   1.000  Cu
  Cu4      1.0000 0.11316  0.62095  0.67080  Biso   1.000  Cu
  Cu5      1.0000 0.63749  0.93092  0.14635  Biso   1.000  Cu
  Cu6      1.0000 0.36251  0.06908  0.64635  Biso   1.000  Cu
  Cu7      1.0000 0.13749  0.06908  0.14635  Biso   1.000  Cu
  Cu8      1.0000 0.86251  0.93092  0.64635  Biso   1.000  Cu
  Fe1      1.0000 0.47485  0.24062  0.15566  Biso   1.000  Fe
  Fe2      1.0000 0.52515  0.75938  0.65566  Biso   1.000  Fe
  Fe3      1.0000 0.97485  0.75938  0.15566  Biso   1.000  Fe
  Fe4      1.0000 0.02515  0.24062  0.65566  Biso   1.000  Fe
  Fe5      1.0000 0.64892  0.11245  0.66380  Biso   1.000  Fe
  Fe6      1.0000 0.35108  0.88755  0.16380  Biso   1.000  Fe
  Fe7      1.0000 0.14892  0.88755  0.66380  Biso   1.000  Fe
  Fe8      1.0000 0.85108  0.11245  0.16380  Biso   1.000  Fe
  Fe9      1.0000 0.65784  0.54653  0.16011  Biso   1.000  Fe
  Fe10     1.0000 0.34216  0.45347  0.66011  Biso   1.000  Fe
  Fe11     1.0000 0.15784  0.45347  0.16011  Biso   1.000  Fe
  Fe12     1.0000 0.84216  0.54653  0.66011  Biso   1.000  Fe
  O1       1.0000 0.66851  0.21410  0.65010  Biso   1.000  O
  O2       1.0000 0.33149  0.78590  0.15010  Biso   1.000  O
  O3       1.0000 0.16851  0.78590  0.65010  Biso   1.000  O
  O4       1.0000 0.83149  0.21410  0.15010  Biso   1.000  O
  O5       1.0000 0.70110  0.62940  0.19580  Biso   1.000  O
  O6       1.0000 0.29890  0.37060  0.69580  Biso   1.000  O
  O7       1.0000 0.20110  0.37060  0.19580  Biso   1.000  O
  O8       1.0000 0.79890  0.62940  0.69580  Biso   1.000  O
  O9       1.0000 0.80010  0.74600  0.60360  Biso   1.000  O
  O10      1.0000 0.19990  0.25400  0.10360  Biso   1.000  O
  O11      1.0000 0.30010  0.25400  0.60360  Biso   1.000  O
  O12      1.0000 0.69990  0.74600  0.10360  Biso   1.000  O
  O13      1.0000 0.72320  0.66640  0.42600  Biso   1.000  O
  O14      1.0000 0.27680  0.33360  0.92600  Biso   1.000  O
  O15      1.0000 0.22320  0.33360  0.42600  Biso   1.000  O
  O16      1.0000 0.77680  0.66640  0.92600  Biso   1.000  O
  O17      1.0000 0.32650  0.27270  0.10380  Biso   1.000  O
  O18      1.0000 0.67350  0.72730  0.60380  Biso   1.000  O
  O19      1.0000 0.82650  0.72730  0.10380  Biso   1.000  O
  O20      1.0000 0.17350  0.27270  0.60380  Biso   1.000  O
  N1       1.0000 0.51750  0.17970  0.25600  Biso   1.000  N
  N2       1.0000 0.48250  0.82030  0.75600  Biso   1.000  N
  N3       1.0000 0.01750  0.82030  0.25600  Biso   1.000  N
  N4       1.0000 0.98250  0.17970  0.75600  Biso   1.000  N
  C1       1.0000 0.53720  0.14660  0.30980  Biso   1.000  C
  C2       1.0000 0.46280  0.85340  0.80980  Biso   1.000  C
  C3       1.0000 0.03720  0.85340  0.30980  Biso   1.000  C
  C4       1.0000 0.96280  0.14660  0.80980  Biso   1.000  C
  N5       1.0000 0.55650  0.10490  0.37020  Biso   1.000  N
  N6       1.0000 0.44350  0.89510  0.87020  Biso   1.000  N
  N7       1.0000 0.05650  0.89510  0.37020  Biso   1.000  N
  N8       1.0000 0.94350  0.10490  0.87020  Biso   1.000  N
  C5       1.0000 0.58440  0.11390  0.44530  Biso   1.000  C
  C6       1.0000 0.41560  0.88610  0.94530  Biso   1.000  C
  C7       1.0000 0.08440  0.88610  0.44530  Biso   1.000  C
  C8       1.0000 0.91560  0.11390  0.94530  Biso   1.000  C
  N9       1.0000 0.60870  0.11400  0.51280  Biso   1.000  N
  N10      1.0000 0.39130  0.88600  0.01280  Biso   1.000  N
  N11      1.0000 0.10870  0.88600  0.51280  Biso   1.000  N
  N12      1.0000 0.89130  0.11400  0.01280  Biso   1.000  N
  N13      1.0000 0.53040  0.30250  0.12070  Biso   1.000  N
  N14      1.0000 0.46960  0.69750  0.62070  Biso   1.000  N
  N15      1.0000 0.03040  0.69750  0.12070  Biso   1.000  N
  N16      1.0000 0.96960  0.30250  0.62070  Biso   1.000  N
  C9       1.0000 0.55220  0.34160  0.08260  Biso   1.000  C
  C10      1.0000 0.44780  0.65840  0.58260  Biso   1.000  C
  C11      1.0000 0.05220  0.65840  0.08260  Biso   1.000  C
  C12      1.0000 0.94780  0.34160  0.58260  Biso   1.000  C
  N17      1.0000 0.57580  0.38020  0.02880  Biso   1.000  N
  N18      1.0000 0.42420  0.61980  0.52880  Biso   1.000  N
  N19      1.0000 0.07580  0.61980  0.02880  Biso   1.000  N
  N20      1.0000 0.92420  0.38020  0.52880  Biso   1.000  N
  C13      1.0000 0.59860  0.42490  0.08930  Biso   1.000  C
  C14      1.0000 0.40140  0.57510  0.58930  Biso   1.000  C
  C15      1.0000 0.09860  0.57510  0.08930  Biso   1.000  C
  C16      1.0000 0.90140  0.42490  0.58930  Biso   1.000  C
  N21      1.0000 0.61790  0.46540  0.12110  Biso   1.000  N
  N22      1.0000 0.38210  0.53460  0.62110  Biso   1.000  N
  N23      1.0000 0.11790  0.53460  0.12110  Biso   1.000  N
  N24      1.0000 0.88210  0.46540  0.62110  Biso   1.000  N
  N25      1.0000 0.43210  0.30070  0.06340  Biso   1.000  N
  N26      1.0000 0.56790  0.69930  0.56340  Biso   1.000  N
  N27      1.0000 0.93210  0.69930  0.06340  Biso   1.000  N
  N28      1.0000 0.06790  0.30070  0.56340  Biso   1.000  N
  C17      1.0000 0.42640  0.34540  0.00780  Biso   1.000  C
  C18      1.0000 0.57360  0.65460  0.50780  Biso   1.000  C
  C19      1.0000 0.92640  0.65460  0.00780  Biso   1.000  C
  C20      1.0000 0.07360  0.34540  0.50780  Biso   1.000  C
  N29      1.0000 0.42780  0.40160  0.96260  Biso   1.000  N
  N30      1.0000 0.57220  0.59840  0.46260  Biso   1.000  N
  N31      1.0000 0.92780  0.59840  0.96260  Biso   1.000  N
  N32      1.0000 0.07220  0.40160  0.46260  Biso   1.000  N
  C21      1.0000 0.39990  0.41030  0.88290  Biso   1.000  C
  C22      1.0000 0.60010  0.58970  0.38290  Biso   1.000  C
  C23      1.0000 0.89990  0.58970  0.88290  Biso   1.000  C
  C24      1.0000 0.10010  0.41030  0.38290  Biso   1.000  C
  N33      1.0000 0.38110  0.42940  0.80960  Biso   1.000  N
  N34      1.0000 0.61890  0.57060  0.30960  Biso   1.000  N
  N35      1.0000 0.88110  0.57060  0.80960  Biso   1.000  N
  N36      1.0000 0.11890  0.42940  0.30960  Biso   1.000  N
  N37      1.0000 0.49060  0.19170  0.01030  Biso   1.000  N
  N38      1.0000 0.50940  0.80830  0.51030  Biso   1.000  N
  N39      1.0000 0.99060  0.80830  0.01030  Biso   1.000  N
  N40      1.0000 0.00940  0.19170  0.51030  Biso   1.000  N
  C25      1.0000 0.50340  0.17340  0.92770  Biso   1.000  C
  C26      1.0000 0.49660  0.82660  0.42770  Biso   1.000  C
  C27      1.0000 0.00340  0.82660  0.92770  Biso   1.000  C
  C28      1.0000 0.99660  0.17340  0.42770  Biso   1.000  C
  N41      1.0000 0.51260  0.15160  0.82330  Biso   1.000  N
  N42      1.0000 0.48740  0.84840  0.32330  Biso   1.000  N
  N43      1.0000 0.01260  0.84840  0.82330  Biso   1.000  N
  N44      1.0000 0.98740  0.15160  0.32330  Biso   1.000  N
  C29      1.0000 0.55540  0.14730  0.79030  Biso   1.000  C
  C30      1.0000 0.44460  0.85270  0.29030  Biso   1.000  C
  C31      1.0000 0.05540  0.85270  0.79030  Biso   1.000  C
  C32      1.0000 0.94460  0.14730  0.29030  Biso   1.000  C
  N45      1.0000 0.58970  0.14310  0.75080  Biso   1.000  N
  N46      1.0000 0.41030  0.85690  0.25080  Biso   1.000  N
  N47      1.0000 0.08970  0.85690  0.75080  Biso   1.000  N
  N48      1.0000 0.91030  0.14310  0.25080  Biso   1.000  N
  N49      1.0000 0.42140  0.17560  0.19270  Biso   1.000  N
  N50      1.0000 0.57860  0.82440  0.69270  Biso   1.000  N
  N51      1.0000 0.92140  0.82440  0.19270  Biso   1.000  N
  N52      1.0000 0.07860  0.17560  0.69270  Biso   1.000  N
  C33      1.0000 0.40610  0.13010  0.23060  Biso   1.000  C
  C34      1.0000 0.59390  0.86990  0.73060  Biso   1.000  C
  C35      1.0000 0.90610  0.86990  0.23060  Biso   1.000  C
  C36      1.0000 0.09390  0.13010  0.73060  Biso   1.000  C
  N53      1.0000 0.38780  0.08160  0.28270  Biso   1.000  N
  N54      1.0000 0.61220  0.91840  0.78270  Biso   1.000  N
  N55      1.0000 0.88780  0.91840  0.28270  Biso   1.000  N
  N56      1.0000 0.11220  0.08160  0.78270  Biso   1.000  N
  C37      1.0000 0.37690  0.03020  0.23400  Biso   1.000  C
  C38      1.0000 0.62310  0.96980  0.73400  Biso   1.000  C
  C39      1.0000 0.87690  0.96980  0.23400  Biso   1.000  C
  C40      1.0000 0.12310  0.03020  0.73400  Biso   1.000  C
  N57      1.0000 0.36660  0.98360  0.19160  Biso   1.000  N
  N58      1.0000 0.63340  0.01640  0.69160  Biso   1.000  N
  N59      1.0000 0.86660  0.01640  0.19160  Biso   1.000  N
  N60      1.0000 0.13340  0.98360  0.69160  Biso   1.000  N
  N61      1.0000 0.45770  0.29540  0.30460  Biso   1.000  N
  N62      1.0000 0.54230  0.70460  0.80460  Biso   1.000  N
  N63      1.0000 0.95770  0.70460  0.30460  Biso   1.000  N
  N64      1.0000 0.04230  0.29540  0.80460  Biso   1.000  N
  C41      1.0000 0.45080  0.31460  0.38950  Biso   1.000  C
  C42      1.0000 0.54920  0.68540  0.88950  Biso   1.000  C
  C43      1.0000 0.95080  0.68540  0.38950  Biso   1.000  C
  C44      1.0000 0.04920  0.31460  0.88950  Biso   1.000  C
  N65      1.0000 0.44970  0.34140  0.48470  Biso   1.000  N
  N66      1.0000 0.55030  0.65860  0.98470  Biso   1.000  N
  N67      1.0000 0.94970  0.65860  0.48470  Biso   1.000  N
  N68      1.0000 0.05030  0.34140  0.98470  Biso   1.000  N
  C45      1.0000 0.41290  0.36920  0.51830  Biso   1.000  C
  C46      1.0000 0.58710  0.63080  0.01830  Biso   1.000  C
  C47      1.0000 0.91290  0.63080  0.51830  Biso   1.000  C
  C48      1.0000 0.08710  0.36920  0.01830  Biso   1.000  C
  N69      1.0000 0.38350  0.39720  0.56700  Biso   1.000  N
  N70      1.0000 0.61650  0.60280  0.06700  Biso   1.000  N
  N71      1.0000 0.88350  0.60280  0.56700  Biso   1.000  N
  N72      1.0000 0.11650  0.39720  0.06700  Biso   1.000  N
  N73      1.0000 0.68990  0.11160  0.81180  Biso   1.000  N
  N74      1.0000 0.31010  0.88840  0.31180  Biso   1.000  N
  N75      1.0000 0.18990  0.88840  0.81180  Biso   1.000  N
  N76      1.0000 0.81010  0.11160  0.31180  Biso   1.000  N
  C49      1.0000 0.70630  0.09280  0.88980  Biso   1.000  C
  C50      1.0000 0.29370  0.90720  0.38980  Biso   1.000  C
  C51      1.0000 0.20630  0.90720  0.88980  Biso   1.000  C
  C52      1.0000 0.79370  0.09280  0.38980  Biso   1.000  C
  N77      1.0000 0.72500  0.06500  0.97140  Biso   1.000  N
  N78      1.0000 0.27500  0.93500  0.47140  Biso   1.000  N
  N79      1.0000 0.22500  0.93500  0.97140  Biso   1.000  N
  N80      1.0000 0.77500  0.06500  0.47140  Biso   1.000  N
  C53      1.0000 0.76120  0.08280  0.02060  Biso   1.000  C
  C54      1.0000 0.23880  0.91720  0.52060  Biso   1.000  C
  C55      1.0000 0.26120  0.91720  0.02060  Biso   1.000  C
  C56      1.0000 0.73880  0.08280  0.52060  Biso   1.000  C
  N81      1.0000 0.79360  0.09160  0.07100  Biso   1.000  N
  N82      1.0000 0.20640  0.90840  0.57100  Biso   1.000  N
  N83      1.0000 0.29360  0.90840  0.07100  Biso   1.000  N
  N84      1.0000 0.70640  0.09160  0.57100  Biso   1.000  N
  N85      1.0000 0.70220  0.49470  0.26150  Biso   1.000  N
  N86      1.0000 0.29780  0.50530  0.76150  Biso   1.000  N
  N87      1.0000 0.20220  0.50530  0.26150  Biso   1.000  N
  N88      1.0000 0.79780  0.49470  0.76150  Biso   1.000  N
  C57      1.0000 0.73490  0.48710  0.30830  Biso   1.000  C
  C58      1.0000 0.26510  0.51290  0.80830  Biso   1.000  C
  C59      1.0000 0.23490  0.51290  0.30830  Biso   1.000  C
  C60      1.0000 0.76510  0.48710  0.80830  Biso   1.000  C
  N89      1.0000 0.77260  0.46600  0.35910  Biso   1.000  N
  N90      1.0000 0.22740  0.53400  0.85910  Biso   1.000  N
  N91      1.0000 0.27260  0.53400  0.35910  Biso   1.000  N
  N92      1.0000 0.72740  0.46600  0.85910  Biso   1.000  N
  C61      1.0000 0.78770  0.49630  0.45220  Biso   1.000  C
  C62      1.0000 0.21230  0.50370  0.95220  Biso   1.000  C
  C63      1.0000 0.28770  0.50370  0.45220  Biso   1.000  C
  C64      1.0000 0.71230  0.49630  0.95220  Biso   1.000  C
  N93      1.0000 0.80010  0.52450  0.52080  Biso   1.000  N
  N94      1.0000 0.19990  0.47550  0.02080  Biso   1.000  N
  N95      1.0000 0.30010  0.47550  0.52080  Biso   1.000  N
  N96      1.0000 0.69990  0.52450  0.02080  Biso   1.000  N
  N97      1.0000 0.34610  0.66800  0.30580  Biso   1.000  N
  N98      1.0000 0.65390  0.33200  0.80580  Biso   1.000  N
  N99      1.0000 0.84610  0.33200  0.30580  Biso   1.000  N
  N100     1.0000 0.15390  0.66800  0.80580  Biso   1.000  N
  C65      1.0000 0.32470  0.68800  0.37570  Biso   1.000  C
  C66      1.0000 0.67530  0.31200  0.87570  Biso   1.000  C
  C67      1.0000 0.82470  0.31200  0.37570  Biso   1.000  C
  C68      1.0000 0.17530  0.68800  0.87570  Biso   1.000  C
  N101     1.0000 0.30830  0.69120  0.47910  Biso   1.000  N
  N102     1.0000 0.69170  0.30880  0.97910  Biso   1.000  N
  N103     1.0000 0.80830  0.30880  0.47910  Biso   1.000  N
  N104     1.0000 0.19170  0.69120  0.97910  Biso   1.000  N
  C69      1.0000 0.27050  0.72510  0.49360  Biso   1.000  C
  C70      1.0000 0.72950  0.27490  0.99360  Biso   1.000  C
  C71      1.0000 0.77050  0.27490  0.49360  Biso   1.000  C
  C72      1.0000 0.22950  0.72510  0.99360  Biso   1.000  C
  N105     1.0000 0.23430  0.73470  0.52300  Biso   1.000  N
  N106     1.0000 0.76570  0.26530  0.02300  Biso   1.000  N
  N107     1.0000 0.73430  0.26530  0.52300  Biso   1.000  N
  N108     1.0000 0.26570  0.73470  0.02300  Biso   1.000  N
  N109     1.0000 0.69110  0.90940  0.02520  Biso   1.000  N
  N110     1.0000 0.30890  0.09060  0.52520  Biso   1.000  N
  N111     1.0000 0.19110  0.09060  0.02520  Biso   1.000  N
  N112     1.0000 0.80890  0.90940  0.52520  Biso   1.000  N
  C73      1.0000 0.70560  0.90340  0.93900  Biso   1.000  C
  C74      1.0000 0.29440  0.09660  0.43900  Biso   1.000  C
  C75      1.0000 0.20560  0.09660  0.93900  Biso   1.000  C
  C76      1.0000 0.79440  0.90340  0.43900  Biso   1.000  C
  N113     1.0000 0.72610  0.90580  0.83940  Biso   1.000  N
  N114     1.0000 0.27390  0.09420  0.33940  Biso   1.000  N
  N115     1.0000 0.22610  0.09420  0.83940  Biso   1.000  N
  N116     1.0000 0.77390  0.90580  0.33940  Biso   1.000  N
  C77      1.0000 0.72400  0.85140  0.77900  Biso   1.000  C
  C78      1.0000 0.27600  0.14860  0.27900  Biso   1.000  C
  C79      1.0000 0.22400  0.14860  0.77900  Biso   1.000  C
  C80      1.0000 0.77600  0.85140  0.27900  Biso   1.000  C
  N117     1.0000 0.73350  0.81470  0.70950  Biso   1.000  N
  N118     1.0000 0.26650  0.18530  0.20950  Biso   1.000  N
  N119     1.0000 0.23350  0.18530  0.70950  Biso   1.000  N
  N120     1.0000 0.76650  0.81470  0.20950  Biso   1.000  N
  N121     1.0000 0.42510  0.69810  0.16450  Biso   1.000  N
  N122     1.0000 0.57490  0.30190  0.66450  Biso   1.000  N
  N123     1.0000 0.92510  0.30190  0.16450  Biso   1.000  N
  N124     1.0000 0.07490  0.69810  0.66450  Biso   1.000  N
  H1       1.0000 0.40630  0.73140  0.17220  Biso   1.000  H
  H2       1.0000 0.59370  0.26860  0.67220  Biso   1.000  H
  H3       1.0000 0.90630  0.26860  0.17220  Biso   1.000  H
  H4       1.0000 0.09370  0.73140  0.67220  Biso   1.000  H
  C81      1.0000 0.45280  0.69600  0.26660  Biso   1.000  C
  C82      1.0000 0.54720  0.30400  0.76660  Biso   1.000  C
  C83      1.0000 0.95280  0.30400  0.26660  Biso   1.000  C
  C84      1.0000 0.04720  0.69600  0.76660  Biso   1.000  C
  H5       1.0000 0.43450  0.70280  0.33170  Biso   1.000  H
  H6       1.0000 0.56550  0.29720  0.83170  Biso   1.000  H
  H7       1.0000 0.93450  0.29720  0.33170  Biso   1.000  H
  H8       1.0000 0.06550  0.70280  0.83170  Biso   1.000  H
  H9       1.0000 0.47620  0.72760  0.26430  Biso   1.000  H
  H10      1.0000 0.52380  0.27240  0.76430  Biso   1.000  H
  H11      1.0000 0.97620  0.27240  0.26430  Biso   1.000  H
  H12      1.0000 0.02380  0.72760  0.76430  Biso   1.000  H
  C85      1.0000 0.47330  0.62880  0.26710  Biso   1.000  C
  C86      1.0000 0.52670  0.37120  0.76710  Biso   1.000  C
  C87      1.0000 0.97330  0.37120  0.26710  Biso   1.000  C
  C88      1.0000 0.02670  0.62880  0.76710  Biso   1.000  C
  H13      1.0000 0.48970  0.62100  0.19920  Biso   1.000  H
  H14      1.0000 0.51030  0.37900  0.69920  Biso   1.000  H
  H15      1.0000 0.98970  0.37900  0.19920  Biso   1.000  H
  H16      1.0000 0.01030  0.62100  0.69920  Biso   1.000  H
  H17      1.0000 0.49350  0.62350  0.32930  Biso   1.000  H
  H18      1.0000 0.50650  0.37650  0.82930  Biso   1.000  H
  H19      1.0000 0.99350  0.37650  0.32930  Biso   1.000  H
  H20      1.0000 0.00650  0.62350  0.82930  Biso   1.000  H
  N125     1.0000 0.43360  0.58440  0.27660  Biso   1.000  N
  N126     1.0000 0.56640  0.41560  0.77660  Biso   1.000  N
  N127     1.0000 0.93360  0.41560  0.27660  Biso   1.000  N
  N128     1.0000 0.06640  0.58440  0.77660  Biso   1.000  N
  H21      1.0000 0.42250  0.58910  0.34620  Biso   1.000  H
  H22      1.0000 0.57750  0.41090  0.84620  Biso   1.000  H
  H23      1.0000 0.92250  0.41090  0.34620  Biso   1.000  H
  H24      1.0000 0.07750  0.58910  0.84620  Biso   1.000  H
  C89      1.0000 0.44770  0.51640  0.26600  Biso   1.000  C
  C90      1.0000 0.55230  0.48360  0.76600  Biso   1.000  C
  C91      1.0000 0.94770  0.48360  0.26600  Biso   1.000  C
  C92      1.0000 0.05230  0.51640  0.76600  Biso   1.000  C
  C93      1.0000 0.40430  0.47760  0.26820  Biso   1.000  C
  C94      1.0000 0.59570  0.52240  0.76820  Biso   1.000  C
  C95      1.0000 0.90430  0.52240  0.26820  Biso   1.000  C
  C96      1.0000 0.09570  0.47760  0.76820  Biso   1.000  C
  H25      1.0000 0.41290  0.43380  0.27440  Biso   1.000  H
  H26      1.0000 0.58710  0.56620  0.77440  Biso   1.000  H
  H27      1.0000 0.91290  0.56620  0.27440  Biso   1.000  H
  H28      1.0000 0.08710  0.43380  0.77440  Biso   1.000  H
  H29      1.0000 0.38850  0.48840  0.33560  Biso   1.000  H
  H30      1.0000 0.61150  0.51160  0.83560  Biso   1.000  H
  H31      1.0000 0.88850  0.51160  0.33560  Biso   1.000  H
  H32      1.0000 0.11150  0.48840  0.83560  Biso   1.000  H
  C97      1.0000 0.37230  0.48260  0.17630  Biso   1.000  C
  C98      1.0000 0.62770  0.51740  0.67630  Biso   1.000  C
  C99      1.0000 0.87230  0.51740  0.17630  Biso   1.000  C
  C100     1.0000 0.12770  0.48260  0.67630  Biso   1.000  C
  H33      1.0000 0.38800  0.47870  0.10540  Biso   1.000  H
  H34      1.0000 0.61200  0.52130  0.60540  Biso   1.000  H
  H35      1.0000 0.88800  0.52130  0.10540  Biso   1.000  H
  H36      1.0000 0.11200  0.47870  0.60540  Biso   1.000  H
  N129     1.0000 0.34780  0.54480  0.18170  Biso   1.000  N
  N130     1.0000 0.65220  0.45520  0.68170  Biso   1.000  N
  N131     1.0000 0.84780  0.45520  0.18170  Biso   1.000  N
  N132     1.0000 0.15220  0.54480  0.68170  Biso   1.000  N
  H37      1.0000 0.33480  0.54640  0.24980  Biso   1.000  H
  H38      1.0000 0.66520  0.45360  0.74980  Biso   1.000  H
  H39      1.0000 0.83480  0.45360  0.24980  Biso   1.000  H
  H40      1.0000 0.16520  0.54640  0.74980  Biso   1.000  H
  C101     1.0000 0.31120  0.55850  0.10040  Biso   1.000  C
  C102     1.0000 0.68880  0.44150  0.60040  Biso   1.000  C
  C103     1.0000 0.81120  0.44150  0.10040  Biso   1.000  C
  C104     1.0000 0.18880  0.55850  0.60040  Biso   1.000  C
  H41      1.0000 0.29620  0.51940  0.08290  Biso   1.000  H
  H42      1.0000 0.70380  0.48060  0.58290  Biso   1.000  H
  H43      1.0000 0.79620  0.48060  0.08290  Biso   1.000  H
  H44      1.0000 0.20380  0.51940  0.58290  Biso   1.000  H
  H45      1.0000 0.28940  0.58550  0.13620  Biso   1.000  H
  H46      1.0000 0.71060  0.41450  0.63620  Biso   1.000  H
  H47      1.0000 0.78940  0.41450  0.13620  Biso   1.000  H
  H48      1.0000 0.21060  0.58550  0.63620  Biso   1.000  H
  C105     1.0000 0.32510  0.58890  0.99420  Biso   1.000  C
  C106     1.0000 0.67490  0.41110  0.49420  Biso   1.000  C
  C107     1.0000 0.82510  0.41110  0.99420  Biso   1.000  C
  C108     1.0000 0.17490  0.58890  0.49420  Biso   1.000  C
  H49      1.0000 0.29930  0.60490  0.95430  Biso   1.000  H
  H50      1.0000 0.70070  0.39510  0.45430  Biso   1.000  H
  H51      1.0000 0.79930  0.39510  0.95430  Biso   1.000  H
  H52      1.0000 0.20070  0.60490  0.45430  Biso   1.000  H
  H53      1.0000 0.34100  0.55950  0.94720  Biso   1.000  H
  H54      1.0000 0.65900  0.44050  0.44720  Biso   1.000  H
  H55      1.0000 0.84100  0.44050  0.94720  Biso   1.000  H
  H56      1.0000 0.15900  0.55950  0.44720  Biso   1.000  H
  N133     1.0000 0.35530  0.64130  0.03060  Biso   1.000  N
  N134     1.0000 0.64470  0.35870  0.53060  Biso   1.000  N
  N135     1.0000 0.85530  0.35870  0.03060  Biso   1.000  N
  N136     1.0000 0.14470  0.64130  0.53060  Biso   1.000  N
  H57      1.0000 0.33750  0.67510  0.04450  Biso   1.000  H
  H58      1.0000 0.66250  0.32490  0.54450  Biso   1.000  H
  H59      1.0000 0.83750  0.32490  0.04450  Biso   1.000  H
  H60      1.0000 0.16250  0.67510  0.54450  Biso   1.000  H
  C109     1.0000 0.38440  0.65810  0.93580  Biso   1.000  C
  C110     1.0000 0.61560  0.34190  0.43580  Biso   1.000  C
  C111     1.0000 0.88440  0.34190  0.93580  Biso   1.000  C
  C112     1.0000 0.11560  0.65810  0.43580  Biso   1.000  C
  C113     1.0000 0.41260  0.71320  0.96550  Biso   1.000  C
  C114     1.0000 0.58740  0.28680  0.46550  Biso   1.000  C
  C115     1.0000 0.91260  0.28680  0.96550  Biso   1.000  C
  C116     1.0000 0.08740  0.71320  0.46550  Biso   1.000  C
  H61      1.0000 0.39260  0.74730  0.98530  Biso   1.000  H
  H62      1.0000 0.60740  0.25270  0.48530  Biso   1.000  H
  H63      1.0000 0.89260  0.25270  0.98530  Biso   1.000  H
  H64      1.0000 0.10740  0.74730  0.48530  Biso   1.000  H
  H65      1.0000 0.42840  0.72620  0.89920  Biso   1.000  H
  H66      1.0000 0.57160  0.27380  0.39920  Biso   1.000  H
  H67      1.0000 0.92840  0.27380  0.89920  Biso   1.000  H
  H68      1.0000 0.07160  0.72620  0.39920  Biso   1.000  H
  C117     1.0000 0.44790  0.70660  0.06020  Biso   1.000  C
  C118     1.0000 0.55210  0.29340  0.56020  Biso   1.000  C
  C119     1.0000 0.94790  0.29340  0.06020  Biso   1.000  C
  C120     1.0000 0.05210  0.70660  0.56020  Biso   1.000  C
  H69      1.0000 0.46630  0.66950  0.04560  Biso   1.000  H
  H70      1.0000 0.53370  0.33050  0.54560  Biso   1.000  H
  H71      1.0000 0.96630  0.33050  0.04560  Biso   1.000  H
  H72      1.0000 0.03370  0.66950  0.54560  Biso   1.000  H
  C121     1.0000 0.47890  0.49790  0.36780  Biso   1.000  C
  C122     1.0000 0.52110  0.50210  0.86780  Biso   1.000  C
  C123     1.0000 0.97890  0.50210  0.36780  Biso   1.000  C
  C124     1.0000 0.02110  0.49790  0.86780  Biso   1.000  C
  H73      1.0000 0.48650  0.45420  0.36310  Biso   1.000  H
  H74      1.0000 0.51350  0.54580  0.86310  Biso   1.000  H
  H75      1.0000 0.98650  0.54580  0.36310  Biso   1.000  H
  H76      1.0000 0.01350  0.45420  0.86310  Biso   1.000  H
  H77      1.0000 0.46330  0.50570  0.43580  Biso   1.000  H
  H78      1.0000 0.53670  0.49430  0.93580  Biso   1.000  H
  H79      1.0000 0.96330  0.49430  0.43580  Biso   1.000  H
  H80      1.0000 0.03670  0.50570  0.93580  Biso   1.000  H
  H81      1.0000 0.50580  0.52260  0.36580  Biso   1.000  H
  H82      1.0000 0.49420  0.47740  0.86580  Biso   1.000  H
  H83      1.0000 0.00580  0.47740  0.36580  Biso   1.000  H
  H84      1.0000 0.99420  0.52260  0.86580  Biso   1.000  H
  C125     1.0000 0.47230  0.50280  0.16280  Biso   1.000  C
  C126     1.0000 0.52770  0.49720  0.66280  Biso   1.000  C
  C127     1.0000 0.97230  0.49720  0.16280  Biso   1.000  C
  C128     1.0000 0.02770  0.50280  0.66280  Biso   1.000  C
  H85      1.0000 0.45670  0.52120  0.10140  Biso   1.000  H
  H86      1.0000 0.54330  0.47880  0.60140  Biso   1.000  H
  H87      1.0000 0.95670  0.47880  0.10140  Biso   1.000  H
  H88      1.0000 0.04330  0.52120  0.60140  Biso   1.000  H
  H89      1.0000 0.47420  0.45820  0.15260  Biso   1.000  H
  H90      1.0000 0.52580  0.54180  0.65260  Biso   1.000  H
  H91      1.0000 0.97420  0.54180  0.15260  Biso   1.000  H
  H92      1.0000 0.02580  0.45820  0.65260  Biso   1.000  H
  H93      1.0000 0.50190  0.52010  0.16740  Biso   1.000  H
  H94      1.0000 0.49810  0.47990  0.66740  Biso   1.000  H
  H95      1.0000 0.00190  0.47990  0.16740  Biso   1.000  H
  H96      1.0000 0.99810  0.52010  0.66740  Biso   1.000  H
  C129     1.0000 0.33900  0.42710  0.19160  Biso   1.000  C
  C130     1.0000 0.66100  0.57290  0.69160  Biso   1.000  C
  C131     1.0000 0.83900  0.57290  0.19160  Biso   1.000  C
  C132     1.0000 0.16100  0.42710  0.69160  Biso   1.000  C
  H97      1.0000 0.35560  0.38880  0.20000  Biso   1.000  H
  H98      1.0000 0.64440  0.61120  0.70000  Biso   1.000  H
  H99      1.0000 0.85560  0.61120  0.20000  Biso   1.000  H
  H100     1.0000 0.14440  0.38880  0.70000  Biso   1.000  H
  H101     1.0000 0.31990  0.42420  0.12790  Biso   1.000  H
  H102     1.0000 0.68010  0.57580  0.62790  Biso   1.000  H
  H103     1.0000 0.81990  0.57580  0.12790  Biso   1.000  H
  H104     1.0000 0.18010  0.42420  0.62790  Biso   1.000  H
  H105     1.0000 0.32110  0.43420  0.25640  Biso   1.000  H
  H106     1.0000 0.67890  0.56580  0.75640  Biso   1.000  H
  H107     1.0000 0.82110  0.56580  0.25640  Biso   1.000  H
  H108     1.0000 0.17890  0.43420  0.75640  Biso   1.000  H
  C133     1.0000 0.41510  0.60420  0.89920  Biso   1.000  C
  C134     1.0000 0.58490  0.39580  0.39920  Biso   1.000  C
  C135     1.0000 0.91510  0.39580  0.89920  Biso   1.000  C
  C136     1.0000 0.08490  0.60420  0.39920  Biso   1.000  C
  H109     1.0000 0.44220  0.60500  0.94190  Biso   1.000  H
  H110     1.0000 0.55780  0.39500  0.44190  Biso   1.000  H
  H111     1.0000 0.94220  0.39500  0.94190  Biso   1.000  H
  H112     1.0000 0.05780  0.60500  0.44190  Biso   1.000  H
  H113     1.0000 0.42220  0.60890  0.82220  Biso   1.000  H
  H114     1.0000 0.57780  0.39110  0.32220  Biso   1.000  H
  H115     1.0000 0.92220  0.39110  0.82220  Biso   1.000  H
  H116     1.0000 0.07780  0.60890  0.32220  Biso   1.000  H
  H117     1.0000 0.40010  0.56480  0.91050  Biso   1.000  H
  H118     1.0000 0.59990  0.43520  0.41050  Biso   1.000  H
  H119     1.0000 0.90010  0.43520  0.91050  Biso   1.000  H
  H120     1.0000 0.09990  0.56480  0.41050  Biso   1.000  H
  C137     1.0000 0.35570  0.68290  0.84040  Biso   1.000  C
  C138     1.0000 0.64430  0.31710  0.34040  Biso   1.000  C
  C139     1.0000 0.85570  0.31710  0.84040  Biso   1.000  C
  C140     1.0000 0.14430  0.68290  0.34040  Biso   1.000  C
  H121     1.0000 0.34370  0.64820  0.79930  Biso   1.000  H
  H122     1.0000 0.65630  0.35180  0.29930  Biso   1.000  H
  H123     1.0000 0.84370  0.35180  0.79930  Biso   1.000  H
  H124     1.0000 0.15630  0.64820  0.29930  Biso   1.000  H
  H125     1.0000 0.37380  0.70830  0.79250  Biso   1.000  H
  H126     1.0000 0.62620  0.29170  0.29250  Biso   1.000  H
  H127     1.0000 0.87380  0.29170  0.79250  Biso   1.000  H
  H128     1.0000 0.12620  0.70830  0.29250  Biso   1.000  H
  H129     1.0000 0.33160  0.70770  0.86950  Biso   1.000  H
  H130     1.0000 0.66840  0.29230  0.36950  Biso   1.000  H
  H131     1.0000 0.83160  0.29230  0.86950  Biso   1.000  H
  H132     1.0000 0.16840  0.70770  0.36950  Biso   1.000  H
  C141     1.0000 0.47930  0.76660  0.05930  Biso   1.000  C
  C142     1.0000 0.52070  0.23340  0.55930  Biso   1.000  C
  C143     1.0000 0.97930  0.23340  0.05930  Biso   1.000  C
  C144     1.0000 0.02070  0.76660  0.55930  Biso   1.000  C
  H133     1.0000 0.46160  0.80350  0.07200  Biso   1.000  H
  H134     1.0000 0.53840  0.19650  0.57200  Biso   1.000  H
  H135     1.0000 0.96160  0.19650  0.07200  Biso   1.000  H
  H136     1.0000 0.03840  0.80350  0.57200  Biso   1.000  H
  H137     1.0000 0.49390  0.76980  0.98890  Biso   1.000  H
  H138     1.0000 0.50610  0.23020  0.48890  Biso   1.000  H
  H139     1.0000 0.99390  0.23020  0.98890  Biso   1.000  H
  H140     1.0000 0.00610  0.76980  0.48890  Biso   1.000  H
  H141     1.0000 0.50140  0.76270  0.11660  Biso   1.000  H
  H142     1.0000 0.49860  0.23730  0.61660  Biso   1.000  H
  H143     1.0000 0.00140  0.23730  0.11660  Biso   1.000  H
  H144     1.0000 0.99860  0.76270  0.61660  Biso   1.000  H
  N137     1.0000 0.65490  0.02140  0.14020  Biso   1.000  N
  N138     1.0000 0.34510  0.97860  0.64020  Biso   1.000  N
  N139     1.0000 0.15490  0.97860  0.14020  Biso   1.000  N
  N140     1.0000 0.84510  0.02140  0.64020  Biso   1.000  N
  H145     1.0000 0.67000  0.02640  0.07550  Biso   1.000  H
  H146     1.0000 0.33000  0.97360  0.57550  Biso   1.000  H
  H147     1.0000 0.17000  0.97360  0.07550  Biso   1.000  H
  H148     1.0000 0.83000  0.02640  0.57550  Biso   1.000  H
  C145     1.0000 0.68860  0.03020  0.22960  Biso   1.000  C
  C146     1.0000 0.31140  0.96980  0.72960  Biso   1.000  C
  C147     1.0000 0.18860  0.96980  0.22960  Biso   1.000  C
  C148     1.0000 0.81140  0.03020  0.72960  Biso   1.000  C
  H149     1.0000 0.71790  0.01930  0.20060  Biso   1.000  H
  H150     1.0000 0.28210  0.98070  0.70060  Biso   1.000  H
  H151     1.0000 0.21790  0.98070  0.20060  Biso   1.000  H
  H152     1.0000 0.78210  0.01930  0.70060  Biso   1.000  H
  H153     1.0000 0.68940  0.07420  0.24960  Biso   1.000  H
  H154     1.0000 0.31060  0.92580  0.74960  Biso   1.000  H
  H155     1.0000 0.18940  0.92580  0.24960  Biso   1.000  H
  H156     1.0000 0.81060  0.07420  0.74960  Biso   1.000  H
  C149     1.0000 0.68090  0.99380  0.32850  Biso   1.000  C
  C150     1.0000 0.31910  0.00620  0.82850  Biso   1.000  C
  C151     1.0000 0.18090  0.00620  0.32850  Biso   1.000  C
  C152     1.0000 0.81910  0.99380  0.82850  Biso   1.000  C
  H157     1.0000 0.65740  0.01340  0.37190  Biso   1.000  H
  H158     1.0000 0.34260  0.98660  0.87190  Biso   1.000  H
  H159     1.0000 0.15740  0.98660  0.37190  Biso   1.000  H
  H160     1.0000 0.84260  0.01340  0.87190  Biso   1.000  H
  H161     1.0000 0.70800  0.99310  0.37290  Biso   1.000  H
  H162     1.0000 0.29200  0.00690  0.87290  Biso   1.000  H
  H163     1.0000 0.20800  0.00690  0.37290  Biso   1.000  H
  H164     1.0000 0.79200  0.99310  0.87290  Biso   1.000  H
  N141     1.0000 0.66770  0.92880  0.30030  Biso   1.000  N
  N142     1.0000 0.33230  0.07120  0.80030  Biso   1.000  N
  N143     1.0000 0.16770  0.07120  0.30030  Biso   1.000  N
  N144     1.0000 0.83230  0.92880  0.80030  Biso   1.000  N
  H165     1.0000 0.69390  0.90750  0.29070  Biso   1.000  H
  H166     1.0000 0.30610  0.09250  0.79070  Biso   1.000  H
  H167     1.0000 0.19390  0.09250  0.29070  Biso   1.000  H
  H168     1.0000 0.80610  0.90750  0.79070  Biso   1.000  H
  C153     1.0000 0.64270  0.89390  0.39110  Biso   1.000  C
  C154     1.0000 0.35730  0.10610  0.89110  Biso   1.000  C
  C155     1.0000 0.14270  0.10610  0.39110  Biso   1.000  C
  C156     1.0000 0.85730  0.89390  0.89110  Biso   1.000  C
  C157     1.0000 0.63580  0.82550  0.35550  Biso   1.000  C
  C158     1.0000 0.36420  0.17450  0.85550  Biso   1.000  C
  C159     1.0000 0.13580  0.17450  0.35550  Biso   1.000  C
  C160     1.0000 0.86420  0.82550  0.85550  Biso   1.000  C
  H169     1.0000 0.62330  0.80250  0.41750  Biso   1.000  H
  H170     1.0000 0.37670  0.19750  0.91750  Biso   1.000  H
  H171     1.0000 0.12330  0.19750  0.41750  Biso   1.000  H
  H172     1.0000 0.87670  0.80250  0.91750  Biso   1.000  H
  H173     1.0000 0.66480  0.80740  0.33870  Biso   1.000  H
  H174     1.0000 0.33520  0.19260  0.83870  Biso   1.000  H
  H175     1.0000 0.16480  0.19260  0.33870  Biso   1.000  H
  H176     1.0000 0.83520  0.80740  0.83870  Biso   1.000  H
  C161     1.0000 0.60470  0.81600  0.25400  Biso   1.000  C
  C162     1.0000 0.39530  0.18400  0.75400  Biso   1.000  C
  C163     1.0000 0.10470  0.18400  0.25400  Biso   1.000  C
  C164     1.0000 0.89530  0.81600  0.75400  Biso   1.000  C
  H177     1.0000 0.57730  0.84020  0.26690  Biso   1.000  H
  H178     1.0000 0.42270  0.15980  0.76690  Biso   1.000  H
  H179     1.0000 0.07730  0.15980  0.26690  Biso   1.000  H
  H180     1.0000 0.92270  0.84020  0.76690  Biso   1.000  H
  N145     1.0000 0.62440  0.83800  0.15140  Biso   1.000  N
  N146     1.0000 0.37560  0.16200  0.65140  Biso   1.000  N
  N147     1.0000 0.12440  0.16200  0.15140  Biso   1.000  N
  N148     1.0000 0.87560  0.83800  0.65140  Biso   1.000  N
  H181     1.0000 0.65060  0.81700  0.14070  Biso   1.000  H
  H182     1.0000 0.34940  0.18300  0.64070  Biso   1.000  H
  H183     1.0000 0.15060  0.18300  0.14070  Biso   1.000  H
  H184     1.0000 0.84940  0.81700  0.64070  Biso   1.000  H
  C165     1.0000 0.59610  0.82920  0.05180  Biso   1.000  C
  C166     1.0000 0.40390  0.17080  0.55180  Biso   1.000  C
  C167     1.0000 0.09610  0.17080  0.05180  Biso   1.000  C
  C168     1.0000 0.90390  0.82920  0.55180  Biso   1.000  C
  H185     1.0000 0.58140  0.78870  0.05610  Biso   1.000  H
  H186     1.0000 0.41860  0.21130  0.55610  Biso   1.000  H
  H187     1.0000 0.08140  0.21130  0.05610  Biso   1.000  H
  H188     1.0000 0.91860  0.78870  0.55610  Biso   1.000  H
  H189     1.0000 0.61510  0.82900  0.98670  Biso   1.000  H
  H190     1.0000 0.38490  0.17100  0.48670  Biso   1.000  H
  H191     1.0000 0.11510  0.17100  0.98670  Biso   1.000  H
  H192     1.0000 0.88490  0.82900  0.48670  Biso   1.000  H
  C169     1.0000 0.56090  0.87990  0.03930  Biso   1.000  C
  C170     1.0000 0.43910  0.12010  0.53930  Biso   1.000  C
  C171     1.0000 0.06090  0.12010  0.03930  Biso   1.000  C
  C172     1.0000 0.93910  0.87990  0.53930  Biso   1.000  C
  H193     1.0000 0.54490  0.87510  0.97010  Biso   1.000  H
  H194     1.0000 0.45510  0.12490  0.47010  Biso   1.000  H
  H195     1.0000 0.04490  0.12490  0.97010  Biso   1.000  H
  H196     1.0000 0.95510  0.87510  0.47010  Biso   1.000  H
  H197     1.0000 0.53960  0.87820  0.09970  Biso   1.000  H
  H198     1.0000 0.46040  0.12180  0.59970  Biso   1.000  H
  H199     1.0000 0.03960  0.12180  0.09970  Biso   1.000  H
  H200     1.0000 0.96040  0.87820  0.59970  Biso   1.000  H
  N149     1.0000 0.58580  0.93950  0.04100  Biso   1.000  N
  N150     1.0000 0.41420  0.06050  0.54100  Biso   1.000  N
  N151     1.0000 0.08580  0.06050  0.04100  Biso   1.000  N
  N152     1.0000 0.91420  0.93950  0.54100  Biso   1.000  N
  H201     1.0000 0.59900  0.94140  0.97320  Biso   1.000  H
  H202     1.0000 0.40100  0.05860  0.47320  Biso   1.000  H
  H203     1.0000 0.09900  0.05860  0.97320  Biso   1.000  H
  H204     1.0000 0.90100  0.94140  0.47320  Biso   1.000  H
  C173     1.0000 0.55670  0.99850  0.04580  Biso   1.000  C
  C174     1.0000 0.44330  0.00150  0.54580  Biso   1.000  C
  C175     1.0000 0.05670  0.00150  0.04580  Biso   1.000  C
  C176     1.0000 0.94330  0.99850  0.54580  Biso   1.000  C
  C177     1.0000 0.58800  0.05600  0.04550  Biso   1.000  C
  C178     1.0000 0.41200  0.94400  0.54550  Biso   1.000  C
  C179     1.0000 0.08800  0.94400  0.04550  Biso   1.000  C
  C180     1.0000 0.91200  0.05600  0.54550  Biso   1.000  C
  H205     1.0000 0.60580  0.05350  0.97860  Biso   1.000  H
  H206     1.0000 0.39420  0.94650  0.47860  Biso   1.000  H
  H207     1.0000 0.10580  0.94650  0.97860  Biso   1.000  H
  H208     1.0000 0.89420  0.05350  0.47860  Biso   1.000  H
  H209     1.0000 0.56910  0.09280  0.03820  Biso   1.000  H
  H210     1.0000 0.43090  0.90720  0.53820  Biso   1.000  H
  H211     1.0000 0.06910  0.90720  0.03820  Biso   1.000  H
  H212     1.0000 0.93090  0.09280  0.53820  Biso   1.000  H
  C181     1.0000 0.62030  0.06890  0.14040  Biso   1.000  C
  C182     1.0000 0.37970  0.93110  0.64040  Biso   1.000  C
  C183     1.0000 0.12030  0.93110  0.14040  Biso   1.000  C
  C184     1.0000 0.87970  0.06890  0.64040  Biso   1.000  C
  H213     1.0000 0.60330  0.06410  0.20940  Biso   1.000  H
  H214     1.0000 0.39670  0.93590  0.70940  Biso   1.000  H
  H215     1.0000 0.10330  0.93590  0.20940  Biso   1.000  H
  H216     1.0000 0.89670  0.06410  0.70940  Biso   1.000  H
  C185     1.0000 0.59860  0.92720  0.41900  Biso   1.000  C
  C186     1.0000 0.40140  0.07280  0.91900  Biso   1.000  C
  C187     1.0000 0.09860  0.07280  0.41900  Biso   1.000  C
  C188     1.0000 0.90140  0.92720  0.91900  Biso   1.000  C
  H217     1.0000 0.58790  0.91260  0.48930  Biso   1.000  H
  H218     1.0000 0.41210  0.08740  0.98930  Biso   1.000  H
  H219     1.0000 0.08790  0.08740  0.48930  Biso   1.000  H
  H220     1.0000 0.91210  0.91260  0.98930  Biso   1.000  H
  H221     1.0000 0.57680  0.91800  0.36290  Biso   1.000  H
  H222     1.0000 0.42320  0.08200  0.86290  Biso   1.000  H
  H223     1.0000 0.07680  0.08200  0.36290  Biso   1.000  H
  H224     1.0000 0.92320  0.91800  0.86290  Biso   1.000  H
  H225     1.0000 0.60360  0.97160  0.42230  Biso   1.000  H
  H226     1.0000 0.39640  0.02840  0.92230  Biso   1.000  H
  H227     1.0000 0.10360  0.02840  0.42230  Biso   1.000  H
  H228     1.0000 0.89640  0.97160  0.92230  Biso   1.000  H
  C189     1.0000 0.67360  0.89090  0.48890  Biso   1.000  C
  C190     1.0000 0.32640  0.10910  0.98890  Biso   1.000  C
  C191     1.0000 0.17360  0.10910  0.48890  Biso   1.000  C
  C192     1.0000 0.82640  0.89090  0.98890  Biso   1.000  C
  H229     1.0000 0.68040  0.93270  0.51330  Biso   1.000  H
  H230     1.0000 0.31960  0.06730  0.01330  Biso   1.000  H
  H231     1.0000 0.18040  0.06730  0.51330  Biso   1.000  H
  H232     1.0000 0.81960  0.93270  0.01330  Biso   1.000  H
  H233     1.0000 0.70080  0.86980  0.46820  Biso   1.000  H
  H234     1.0000 0.29920  0.13020  0.96820  Biso   1.000  H
  H235     1.0000 0.20080  0.13020  0.46820  Biso   1.000  H
  H236     1.0000 0.79920  0.86980  0.96820  Biso   1.000  H
  H237     1.0000 0.65930  0.86820  0.54770  Biso   1.000  H
  H238     1.0000 0.34070  0.13180  0.04770  Biso   1.000  H
  H239     1.0000 0.15930  0.13180  0.54770  Biso   1.000  H
  H240     1.0000 0.84070  0.86820  0.04770  Biso   1.000  H
  C193     1.0000 0.59150  0.74330  0.25180  Biso   1.000  C
  C194     1.0000 0.40850  0.25670  0.75180  Biso   1.000  C
  C195     1.0000 0.09150  0.25670  0.25180  Biso   1.000  C
  C196     1.0000 0.90850  0.74330  0.75180  Biso   1.000  C
  H241     1.0000 0.61400  0.72020  0.21210  Biso   1.000  H
  H242     1.0000 0.38600  0.27980  0.71210  Biso   1.000  H
  H243     1.0000 0.11400  0.27980  0.21210  Biso   1.000  H
  H244     1.0000 0.88600  0.72020  0.71210  Biso   1.000  H
  H245     1.0000 0.56310  0.73830  0.21570  Biso   1.000  H
  H246     1.0000 0.43690  0.26170  0.71570  Biso   1.000  H
  H247     1.0000 0.06310  0.26170  0.21570  Biso   1.000  H
  H248     1.0000 0.93690  0.73830  0.71570  Biso   1.000  H
  H249     1.0000 0.58960  0.72780  0.32620  Biso   1.000  H
  H250     1.0000 0.41040  0.27220  0.82620  Biso   1.000  H
  H251     1.0000 0.08960  0.27220  0.32620  Biso   1.000  H
  H252     1.0000 0.91040  0.72780  0.82620  Biso   1.000  H
  C197     1.0000 0.52550  0.00130  0.94430  Biso   1.000  C
  C198     1.0000 0.47450  0.99870  0.44430  Biso   1.000  C
  C199     1.0000 0.02550  0.99870  0.94430  Biso   1.000  C
  C200     1.0000 0.97450  0.00130  0.44430  Biso   1.000  C
  H253     1.0000 0.51640  0.95960  0.92460  Biso   1.000  H
  H254     1.0000 0.48360  0.04040  0.42460  Biso   1.000  H
  H255     1.0000 0.01640  0.04040  0.92460  Biso   1.000  H
  H256     1.0000 0.98360  0.95960  0.42460  Biso   1.000  H
  H257     1.0000 0.54120  0.02000  0.88330  Biso   1.000  H
  H258     1.0000 0.45880  0.98000  0.38330  Biso   1.000  H
  H259     1.0000 0.04120  0.98000  0.88330  Biso   1.000  H
  H260     1.0000 0.95880  0.02000  0.38330  Biso   1.000  H
  H261     1.0000 0.49960  0.02600  0.96170  Biso   1.000  H
  H262     1.0000 0.50040  0.97400  0.46170  Biso   1.000  H
  H263     1.0000 0.99960  0.97400  0.96170  Biso   1.000  H
  H264     1.0000 0.00040  0.02600  0.46170  Biso   1.000  H
  C201     1.0000 0.52800  0.99820  0.14490  Biso   1.000  C
  C202     1.0000 0.47200  0.00180  0.64490  Biso   1.000  C
  C203     1.0000 0.02800  0.00180  0.14490  Biso   1.000  C
  C204     1.0000 0.97200  0.99820  0.64490  Biso   1.000  C
  H265     1.0000 0.50450  0.02860  0.13640  Biso   1.000  H
  H266     1.0000 0.49550  0.97140  0.63640  Biso   1.000  H
  H267     1.0000 0.00450  0.97140  0.13640  Biso   1.000  H
  H268     1.0000 0.99550  0.02860  0.63640  Biso   1.000  H
  H269     1.0000 0.54570  0.00850  0.20870  Biso   1.000  H
  H270     1.0000 0.45430  0.99150  0.70870  Biso   1.000  H
  H271     1.0000 0.04570  0.99150  0.20870  Biso   1.000  H
  H272     1.0000 0.95430  0.00850  0.70870  Biso   1.000  H
  H273     1.0000 0.51510  0.95730  0.15430  Biso   1.000  H
  H274     1.0000 0.48490  0.04270  0.65430  Biso   1.000  H
  H275     1.0000 0.01510  0.04270  0.15430  Biso   1.000  H
  H276     1.0000 0.98490  0.95730  0.65430  Biso   1.000  H
  C205     1.0000 0.63510  0.13650  0.13360  Biso   1.000  C
  C206     1.0000 0.36490  0.86350  0.63360  Biso   1.000  C
  C207     1.0000 0.13510  0.86350  0.13360  Biso   1.000  C
  C208     1.0000 0.86490  0.13650  0.63360  Biso   1.000  C
  H277     1.0000 0.66110  0.13960  0.08710  Biso   1.000  H
  H278     1.0000 0.33890  0.86040  0.58710  Biso   1.000  H
  H279     1.0000 0.16110  0.86040  0.08710  Biso   1.000  H
  H280     1.0000 0.83890  0.13960  0.58710  Biso   1.000  H
  H281     1.0000 0.64230  0.15150  0.20640  Biso   1.000  H
  H282     1.0000 0.35770  0.84850  0.70640  Biso   1.000  H
  H283     1.0000 0.14230  0.84850  0.20640  Biso   1.000  H
  H284     1.0000 0.85770  0.15150  0.70640  Biso   1.000  H
  H285     1.0000 0.61140  0.16150  0.10310  Biso   1.000  H
  H286     1.0000 0.38860  0.83850  0.60310  Biso   1.000  H
  H287     1.0000 0.11140  0.83850  0.10310  Biso   1.000  H
  H288     1.0000 0.88860  0.16150  0.60310  Biso   1.000  H
