data_image0
_cell_length_a       20.276
_cell_length_b       20.276
_cell_length_c       20.276
_cell_angle_alpha    90
_cell_angle_beta     90
_cell_angle_gamma    90

_symmetry_space_group_name_H-M    "P 1"
_symmetry_int_tables_number       1

loop_
  _symmetry_equiv_pos_as_xyz
  'x, y, z'

loop_
  _atom_site_label
  _atom_site_occupancy
  _atom_site_fract_x
  _atom_site_fract_y
  _atom_site_fract_z
  _atom_site_thermal_displace_type
  _atom_site_B_iso_or_equiv
  _atom_site_type_symbol
  Cu1      1.0000 0.84507  0.60641  0.86090  Biso   1.000  Cu
  Cu2      1.0000 0.65493  0.39359  0.36090  Biso   1.000  Cu
  Cu3      1.0000 0.15493  0.10641  0.63910  Biso   1.000  Cu
  Cu4      1.0000 0.34507  0.89359  0.13910  Biso   1.000  Cu
  Cu5      1.0000 0.86090  0.84507  0.60641  Biso   1.000  Cu
  Cu6      1.0000 0.36090  0.65493  0.39359  Biso   1.000  Cu
  Cu7      1.0000 0.63910  0.15493  0.10641  Biso   1.000  Cu
  Cu8      1.0000 0.13910  0.34507  0.89359  Biso   1.000  Cu
  Cu9      1.0000 0.60641  0.86090  0.84507  Biso   1.000  Cu
  Cu10     1.0000 0.39359  0.36090  0.65493  Biso   1.000  Cu
  Cu11     1.0000 0.10641  0.63910  0.15493  Biso   1.000  Cu
  Cu12     1.0000 0.89359  0.13910  0.34507  Biso   1.000  Cu
  Cu13     1.0000 0.15493  0.39359  0.13910  Biso   1.000  Cu
  Cu14     1.0000 0.34507  0.60641  0.63910  Biso   1.000  Cu
  Cu15     1.0000 0.84507  0.89359  0.36090  Biso   1.000  Cu
  Cu16     1.0000 0.65493  0.10641  0.86090  Biso   1.000  Cu
  Cu17     1.0000 0.13910  0.15493  0.39359  Biso   1.000  Cu
  Cu18     1.0000 0.63910  0.34507  0.60641  Biso   1.000  Cu
  Cu19     1.0000 0.36090  0.84507  0.89359  Biso   1.000  Cu
  Cu20     1.0000 0.86090  0.65493  0.10641  Biso   1.000  Cu
  Cu21     1.0000 0.39359  0.13910  0.15493  Biso   1.000  Cu
  Cu22     1.0000 0.60641  0.63910  0.34507  Biso   1.000  Cu
  Cu23     1.0000 0.89359  0.36090  0.84507  Biso   1.000  Cu
  Cu24     1.0000 0.10641  0.86090  0.65493  Biso   1.000  Cu
  Cu25     1.0000 0.72956  0.50424  0.94778  Biso   1.000  Cu
  Cu26     1.0000 0.77044  0.49576  0.44778  Biso   1.000  Cu
  Cu27     1.0000 0.27044  0.00424  0.55222  Biso   1.000  Cu
  Cu28     1.0000 0.22956  0.99576  0.05222  Biso   1.000  Cu
  Cu29     1.0000 0.94778  0.72956  0.50424  Biso   1.000  Cu
  Cu30     1.0000 0.44778  0.77044  0.49576  Biso   1.000  Cu
  Cu31     1.0000 0.55222  0.27044  0.00424  Biso   1.000  Cu
  Cu32     1.0000 0.05222  0.22956  0.99576  Biso   1.000  Cu
  Cu33     1.0000 0.50424  0.94778  0.72956  Biso   1.000  Cu
  Cu34     1.0000 0.49576  0.44778  0.77044  Biso   1.000  Cu
  Cu35     1.0000 0.00424  0.55222  0.27044  Biso   1.000  Cu
  Cu36     1.0000 0.99576  0.05222  0.22956  Biso   1.000  Cu
  Cu37     1.0000 0.27044  0.49576  0.05222  Biso   1.000  Cu
  Cu38     1.0000 0.22956  0.50424  0.55222  Biso   1.000  Cu
  Cu39     1.0000 0.72956  0.99576  0.44778  Biso   1.000  Cu
  Cu40     1.0000 0.77044  0.00424  0.94778  Biso   1.000  Cu
  Cu41     1.0000 0.05222  0.27044  0.49576  Biso   1.000  Cu
  Cu42     1.0000 0.55222  0.22956  0.50424  Biso   1.000  Cu
  Cu43     1.0000 0.44778  0.72956  0.99576  Biso   1.000  Cu
  Cu44     1.0000 0.94778  0.77044  0.00424  Biso   1.000  Cu
  Cu45     1.0000 0.49576  0.05222  0.27044  Biso   1.000  Cu
  Cu46     1.0000 0.50424  0.55222  0.22956  Biso   1.000  Cu
  Cu47     1.0000 0.99576  0.44778  0.72956  Biso   1.000  Cu
  Cu48     1.0000 0.00424  0.94778  0.77044  Biso   1.000  Cu
  C1       1.0000 0.69050  0.70620  0.96870  Biso   1.000  C
  C2       1.0000 0.80950  0.29380  0.46870  Biso   1.000  C
  C3       1.0000 0.30950  0.20620  0.53130  Biso   1.000  C
  C4       1.0000 0.19050  0.79380  0.03130  Biso   1.000  C
  C5       1.0000 0.96870  0.69050  0.70620  Biso   1.000  C
  C6       1.0000 0.46870  0.80950  0.29380  Biso   1.000  C
  C7       1.0000 0.53130  0.30950  0.20620  Biso   1.000  C
  C8       1.0000 0.03130  0.19050  0.79380  Biso   1.000  C
  C9       1.0000 0.70620  0.96870  0.69050  Biso   1.000  C
  C10      1.0000 0.29380  0.46870  0.80950  Biso   1.000  C
  C11      1.0000 0.20620  0.53130  0.30950  Biso   1.000  C
  C12      1.0000 0.79380  0.03130  0.19050  Biso   1.000  C
  C13      1.0000 0.30950  0.29380  0.03130  Biso   1.000  C
  C14      1.0000 0.19050  0.70620  0.53130  Biso   1.000  C
  C15      1.0000 0.69050  0.79380  0.46870  Biso   1.000  C
  C16      1.0000 0.80950  0.20620  0.96870  Biso   1.000  C
  C17      1.0000 0.03130  0.30950  0.29380  Biso   1.000  C
  C18      1.0000 0.53130  0.19050  0.70620  Biso   1.000  C
  C19      1.0000 0.46870  0.69050  0.79380  Biso   1.000  C
  C20      1.0000 0.96870  0.80950  0.20620  Biso   1.000  C
  C21      1.0000 0.29380  0.03130  0.30950  Biso   1.000  C
  C22      1.0000 0.70620  0.53130  0.19050  Biso   1.000  C
  C23      1.0000 0.79380  0.46870  0.69050  Biso   1.000  C
  C24      1.0000 0.20620  0.96870  0.80950  Biso   1.000  C
  H1       1.0000 0.66700  0.69170  0.00840  Biso   1.000  H
  H2       1.0000 0.83300  0.30830  0.50840  Biso   1.000  H
  H3       1.0000 0.33300  0.19170  0.49160  Biso   1.000  H
  H4       1.0000 0.16700  0.80830  0.99160  Biso   1.000  H
  H5       1.0000 0.00840  0.66700  0.69170  Biso   1.000  H
  H6       1.0000 0.50840  0.83300  0.30830  Biso   1.000  H
  H7       1.0000 0.49160  0.33300  0.19170  Biso   1.000  H
  H8       1.0000 0.99160  0.16700  0.80830  Biso   1.000  H
  H9       1.0000 0.69170  0.00840  0.66700  Biso   1.000  H
  H10      1.0000 0.30830  0.50840  0.83300  Biso   1.000  H
  H11      1.0000 0.19170  0.49160  0.33300  Biso   1.000  H
  H12      1.0000 0.80830  0.99160  0.16700  Biso   1.000  H
  H13      1.0000 0.33300  0.30830  0.99160  Biso   1.000  H
  H14      1.0000 0.16700  0.69170  0.49160  Biso   1.000  H
  H15      1.0000 0.66700  0.80830  0.50840  Biso   1.000  H
  H16      1.0000 0.83300  0.19170  0.00840  Biso   1.000  H
  H17      1.0000 0.99160  0.33300  0.30830  Biso   1.000  H
  H18      1.0000 0.49160  0.16700  0.69170  Biso   1.000  H
  H19      1.0000 0.50840  0.66700  0.80830  Biso   1.000  H
  H20      1.0000 0.00840  0.83300  0.19170  Biso   1.000  H
  H21      1.0000 0.30830  0.99160  0.33300  Biso   1.000  H
  H22      1.0000 0.69170  0.49160  0.16700  Biso   1.000  H
  H23      1.0000 0.80830  0.50840  0.66700  Biso   1.000  H
  H24      1.0000 0.19170  0.00840  0.83300  Biso   1.000  H
  C25      1.0000 0.64210  0.73190  0.91670  Biso   1.000  C
  C26      1.0000 0.85790  0.26810  0.41670  Biso   1.000  C
  C27      1.0000 0.35790  0.23190  0.58330  Biso   1.000  C
  C28      1.0000 0.14210  0.76810  0.08330  Biso   1.000  C
  C29      1.0000 0.91670  0.64210  0.73190  Biso   1.000  C
  C30      1.0000 0.41670  0.85790  0.26810  Biso   1.000  C
  C31      1.0000 0.58330  0.35790  0.23190  Biso   1.000  C
  C32      1.0000 0.08330  0.14210  0.76810  Biso   1.000  C
  C33      1.0000 0.73190  0.91670  0.64210  Biso   1.000  C
  C34      1.0000 0.26810  0.41670  0.85790  Biso   1.000  C
  C35      1.0000 0.23190  0.58330  0.35790  Biso   1.000  C
  C36      1.0000 0.76810  0.08330  0.14210  Biso   1.000  C
  C37      1.0000 0.35790  0.26810  0.08330  Biso   1.000  C
  C38      1.0000 0.14210  0.73190  0.58330  Biso   1.000  C
  C39      1.0000 0.64210  0.76810  0.41670  Biso   1.000  C
  C40      1.0000 0.85790  0.23190  0.91670  Biso   1.000  C
  C41      1.0000 0.08330  0.35790  0.26810  Biso   1.000  C
  C42      1.0000 0.58330  0.14210  0.73190  Biso   1.000  C
  C43      1.0000 0.41670  0.64210  0.76810  Biso   1.000  C
  C44      1.0000 0.91670  0.85790  0.23190  Biso   1.000  C
  C45      1.0000 0.26810  0.08330  0.35790  Biso   1.000  C
  C46      1.0000 0.73190  0.58330  0.14210  Biso   1.000  C
  C47      1.0000 0.76810  0.41670  0.64210  Biso   1.000  C
  C48      1.0000 0.23190  0.91670  0.85790  Biso   1.000  C
  H25      1.0000 0.62950  0.69500  0.88810  Biso   1.000  H
  H26      1.0000 0.87050  0.30500  0.38810  Biso   1.000  H
  H27      1.0000 0.37050  0.19500  0.61190  Biso   1.000  H
  H28      1.0000 0.12950  0.80500  0.11190  Biso   1.000  H
  H29      1.0000 0.88810  0.62950  0.69500  Biso   1.000  H
  H30      1.0000 0.38810  0.87050  0.30500  Biso   1.000  H
  H31      1.0000 0.61190  0.37050  0.19500  Biso   1.000  H
  H32      1.0000 0.11190  0.12950  0.80500  Biso   1.000  H
  H33      1.0000 0.69500  0.88810  0.62950  Biso   1.000  H
  H34      1.0000 0.30500  0.38810  0.87050  Biso   1.000  H
  H35      1.0000 0.19500  0.61190  0.37050  Biso   1.000  H
  H36      1.0000 0.80500  0.11190  0.12950  Biso   1.000  H
  H37      1.0000 0.37050  0.30500  0.11190  Biso   1.000  H
  H38      1.0000 0.12950  0.69500  0.61190  Biso   1.000  H
  H39      1.0000 0.62950  0.80500  0.38810  Biso   1.000  H
  H40      1.0000 0.87050  0.19500  0.88810  Biso   1.000  H
  H41      1.0000 0.11190  0.37050  0.30500  Biso   1.000  H
  H42      1.0000 0.61190  0.12950  0.69500  Biso   1.000  H
  H43      1.0000 0.38810  0.62950  0.80500  Biso   1.000  H
  H44      1.0000 0.88810  0.87050  0.19500  Biso   1.000  H
  H45      1.0000 0.30500  0.11190  0.37050  Biso   1.000  H
  H46      1.0000 0.69500  0.61190  0.12950  Biso   1.000  H
  H47      1.0000 0.80500  0.38810  0.62950  Biso   1.000  H
  H48      1.0000 0.19500  0.88810  0.87050  Biso   1.000  H
  C49      1.0000 0.73170  0.80660  0.91820  Biso   1.000  C
  C50      1.0000 0.76830  0.19340  0.41820  Biso   1.000  C
  C51      1.0000 0.26830  0.30660  0.58180  Biso   1.000  C
  C52      1.0000 0.23170  0.69340  0.08180  Biso   1.000  C
  C53      1.0000 0.91820  0.73170  0.80660  Biso   1.000  C
  C54      1.0000 0.41820  0.76830  0.19340  Biso   1.000  C
  C55      1.0000 0.58180  0.26830  0.30660  Biso   1.000  C
  C56      1.0000 0.08180  0.23170  0.69340  Biso   1.000  C
  C57      1.0000 0.80660  0.91820  0.73170  Biso   1.000  C
  C58      1.0000 0.19340  0.41820  0.76830  Biso   1.000  C
  C59      1.0000 0.30660  0.58180  0.26830  Biso   1.000  C
  C60      1.0000 0.69340  0.08180  0.23170  Biso   1.000  C
  C61      1.0000 0.26830  0.19340  0.08180  Biso   1.000  C
  C62      1.0000 0.23170  0.80660  0.58180  Biso   1.000  C
  C63      1.0000 0.73170  0.69340  0.41820  Biso   1.000  C
  C64      1.0000 0.76830  0.30660  0.91820  Biso   1.000  C
  C65      1.0000 0.08180  0.26830  0.19340  Biso   1.000  C
  C66      1.0000 0.58180  0.23170  0.80660  Biso   1.000  C
  C67      1.0000 0.41820  0.73170  0.69340  Biso   1.000  C
  C68      1.0000 0.91820  0.76830  0.30660  Biso   1.000  C
  C69      1.0000 0.19340  0.08180  0.26830  Biso   1.000  C
  C70      1.0000 0.80660  0.58180  0.23170  Biso   1.000  C
  C71      1.0000 0.69340  0.41820  0.73170  Biso   1.000  C
  C72      1.0000 0.30660  0.91820  0.76830  Biso   1.000  C
  H49      1.0000 0.77410  0.80160  0.89540  Biso   1.000  H
  H50      1.0000 0.72590  0.19840  0.39540  Biso   1.000  H
  H51      1.0000 0.22590  0.30160  0.60460  Biso   1.000  H
  H52      1.0000 0.27410  0.69840  0.10460  Biso   1.000  H
  H53      1.0000 0.89540  0.77410  0.80160  Biso   1.000  H
  H54      1.0000 0.39540  0.72590  0.19840  Biso   1.000  H
  H55      1.0000 0.60460  0.22590  0.30160  Biso   1.000  H
  H56      1.0000 0.10460  0.27410  0.69840  Biso   1.000  H
  H57      1.0000 0.80160  0.89540  0.77410  Biso   1.000  H
  H58      1.0000 0.19840  0.39540  0.72590  Biso   1.000  H
  H59      1.0000 0.30160  0.60460  0.22590  Biso   1.000  H
  H60      1.0000 0.69840  0.10460  0.27410  Biso   1.000  H
  H61      1.0000 0.22590  0.19840  0.10460  Biso   1.000  H
  H62      1.0000 0.27410  0.80160  0.60460  Biso   1.000  H
  H63      1.0000 0.77410  0.69840  0.39540  Biso   1.000  H
  H64      1.0000 0.72590  0.30160  0.89540  Biso   1.000  H
  H65      1.0000 0.10460  0.22590  0.19840  Biso   1.000  H
  H66      1.0000 0.60460  0.27410  0.80160  Biso   1.000  H
  H67      1.0000 0.39540  0.77410  0.69840  Biso   1.000  H
  H68      1.0000 0.89540  0.72590  0.30160  Biso   1.000  H
  H69      1.0000 0.19840  0.10460  0.22590  Biso   1.000  H
  H70      1.0000 0.80160  0.60460  0.27410  Biso   1.000  H
  H71      1.0000 0.69840  0.39540  0.77410  Biso   1.000  H
  H72      1.0000 0.30160  0.89540  0.72590  Biso   1.000  H
  C73      1.0000 0.73360  0.76760  0.98340  Biso   1.000  C
  C74      1.0000 0.76640  0.23240  0.48340  Biso   1.000  C
  C75      1.0000 0.26640  0.26760  0.51660  Biso   1.000  C
  C76      1.0000 0.23360  0.73240  0.01660  Biso   1.000  C
  C77      1.0000 0.98340  0.73360  0.76760  Biso   1.000  C
  C78      1.0000 0.48340  0.76640  0.23240  Biso   1.000  C
  C79      1.0000 0.51660  0.26640  0.26760  Biso   1.000  C
  C80      1.0000 0.01660  0.23360  0.73240  Biso   1.000  C
  C81      1.0000 0.76760  0.98340  0.73360  Biso   1.000  C
  C82      1.0000 0.23240  0.48340  0.76640  Biso   1.000  C
  C83      1.0000 0.26760  0.51660  0.26640  Biso   1.000  C
  C84      1.0000 0.73240  0.01660  0.23360  Biso   1.000  C
  C85      1.0000 0.26640  0.23240  0.01660  Biso   1.000  C
  C86      1.0000 0.23360  0.76760  0.51660  Biso   1.000  C
  C87      1.0000 0.73360  0.73240  0.48340  Biso   1.000  C
  C88      1.0000 0.76640  0.26760  0.98340  Biso   1.000  C
  C89      1.0000 0.01660  0.26640  0.23240  Biso   1.000  C
  C90      1.0000 0.51660  0.23360  0.76760  Biso   1.000  C
  C91      1.0000 0.48340  0.73360  0.73240  Biso   1.000  C
  C92      1.0000 0.98340  0.76640  0.26760  Biso   1.000  C
  C93      1.0000 0.23240  0.01660  0.26640  Biso   1.000  C
  C94      1.0000 0.76760  0.51660  0.23360  Biso   1.000  C
  C95      1.0000 0.73240  0.48340  0.73360  Biso   1.000  C
  C96      1.0000 0.26760  0.98340  0.76640  Biso   1.000  C
  H73      1.0000 0.71060  0.79400  0.01680  Biso   1.000  H
  H74      1.0000 0.78940  0.20600  0.51680  Biso   1.000  H
  H75      1.0000 0.28940  0.29400  0.48320  Biso   1.000  H
  H76      1.0000 0.21060  0.70600  0.98320  Biso   1.000  H
  H77      1.0000 0.01680  0.71060  0.79400  Biso   1.000  H
  H78      1.0000 0.51680  0.78940  0.20600  Biso   1.000  H
  H79      1.0000 0.48320  0.28940  0.29400  Biso   1.000  H
  H80      1.0000 0.98320  0.21060  0.70600  Biso   1.000  H
  H81      1.0000 0.79400  0.01680  0.71060  Biso   1.000  H
  H82      1.0000 0.20600  0.51680  0.78940  Biso   1.000  H
  H83      1.0000 0.29400  0.48320  0.28940  Biso   1.000  H
  H84      1.0000 0.70600  0.98320  0.21060  Biso   1.000  H
  H85      1.0000 0.28940  0.20600  0.98320  Biso   1.000  H
  H86      1.0000 0.21060  0.79400  0.48320  Biso   1.000  H
  H87      1.0000 0.71060  0.70600  0.51680  Biso   1.000  H
  H88      1.0000 0.78940  0.29400  0.01680  Biso   1.000  H
  H89      1.0000 0.98320  0.28940  0.20600  Biso   1.000  H
  H90      1.0000 0.48320  0.21060  0.79400  Biso   1.000  H
  H91      1.0000 0.51680  0.71060  0.70600  Biso   1.000  H
  H92      1.0000 0.01680  0.78940  0.29400  Biso   1.000  H
  H93      1.0000 0.20600  0.98320  0.28940  Biso   1.000  H
  H94      1.0000 0.79400  0.48320  0.21060  Biso   1.000  H
  H95      1.0000 0.70600  0.51680  0.71060  Biso   1.000  H
  H96      1.0000 0.29400  0.01680  0.78940  Biso   1.000  H
  C97      1.0000 0.72830  0.64870  0.93730  Biso   1.000  C
  C98      1.0000 0.77170  0.35130  0.43730  Biso   1.000  C
  C99      1.0000 0.27170  0.14870  0.56270  Biso   1.000  C
  C100     1.0000 0.22830  0.85130  0.06270  Biso   1.000  C
  C101     1.0000 0.93730  0.72830  0.64870  Biso   1.000  C
  C102     1.0000 0.43730  0.77170  0.35130  Biso   1.000  C
  C103     1.0000 0.56270  0.27170  0.14870  Biso   1.000  C
  C104     1.0000 0.06270  0.22830  0.85130  Biso   1.000  C
  C105     1.0000 0.64870  0.93730  0.72830  Biso   1.000  C
  C106     1.0000 0.35130  0.43730  0.77170  Biso   1.000  C
  C107     1.0000 0.14870  0.56270  0.27170  Biso   1.000  C
  C108     1.0000 0.85130  0.06270  0.22830  Biso   1.000  C
  C109     1.0000 0.27170  0.35130  0.06270  Biso   1.000  C
  C110     1.0000 0.22830  0.64870  0.56270  Biso   1.000  C
  C111     1.0000 0.72830  0.85130  0.43730  Biso   1.000  C
  C112     1.0000 0.77170  0.14870  0.93730  Biso   1.000  C
  C113     1.0000 0.06270  0.27170  0.35130  Biso   1.000  C
  C114     1.0000 0.56270  0.22830  0.64870  Biso   1.000  C
  C115     1.0000 0.43730  0.72830  0.85130  Biso   1.000  C
  C116     1.0000 0.93730  0.77170  0.14870  Biso   1.000  C
  C117     1.0000 0.35130  0.06270  0.27170  Biso   1.000  C
  C118     1.0000 0.64870  0.56270  0.22830  Biso   1.000  C
  C119     1.0000 0.85130  0.43730  0.72830  Biso   1.000  C
  C120     1.0000 0.14870  0.93730  0.77170  Biso   1.000  C
  C121     1.0000 0.57920  0.76310  0.94410  Biso   1.000  C
  C122     1.0000 0.92080  0.23690  0.44410  Biso   1.000  C
  C123     1.0000 0.42080  0.26310  0.55590  Biso   1.000  C
  C124     1.0000 0.07920  0.73690  0.05590  Biso   1.000  C
  C125     1.0000 0.94410  0.57920  0.76310  Biso   1.000  C
  C126     1.0000 0.44410  0.92080  0.23690  Biso   1.000  C
  C127     1.0000 0.55590  0.42080  0.26310  Biso   1.000  C
  C128     1.0000 0.05590  0.07920  0.73690  Biso   1.000  C
  C129     1.0000 0.76310  0.94410  0.57920  Biso   1.000  C
  C130     1.0000 0.23690  0.44410  0.92080  Biso   1.000  C
  C131     1.0000 0.26310  0.55590  0.42080  Biso   1.000  C
  C132     1.0000 0.73690  0.05590  0.07920  Biso   1.000  C
  C133     1.0000 0.42080  0.23690  0.05590  Biso   1.000  C
  C134     1.0000 0.07920  0.76310  0.55590  Biso   1.000  C
  C135     1.0000 0.57920  0.73690  0.44410  Biso   1.000  C
  C136     1.0000 0.92080  0.26310  0.94410  Biso   1.000  C
  C137     1.0000 0.05590  0.42080  0.23690  Biso   1.000  C
  C138     1.0000 0.55590  0.07920  0.76310  Biso   1.000  C
  C139     1.0000 0.44410  0.57920  0.73690  Biso   1.000  C
  C140     1.0000 0.94410  0.92080  0.26310  Biso   1.000  C
  C141     1.0000 0.23690  0.05590  0.42080  Biso   1.000  C
  C142     1.0000 0.76310  0.55590  0.07920  Biso   1.000  C
  C143     1.0000 0.73690  0.44410  0.57920  Biso   1.000  C
  C144     1.0000 0.26310  0.94410  0.92080  Biso   1.000  C
  C145     1.0000 0.71820  0.87920  0.92950  Biso   1.000  C
  C146     1.0000 0.78180  0.12080  0.42950  Biso   1.000  C
  C147     1.0000 0.28180  0.37920  0.57050  Biso   1.000  C
  C148     1.0000 0.21820  0.62080  0.07050  Biso   1.000  C
  C149     1.0000 0.92950  0.71820  0.87920  Biso   1.000  C
  C150     1.0000 0.42950  0.78180  0.12080  Biso   1.000  C
  C151     1.0000 0.57050  0.28180  0.37920  Biso   1.000  C
  C152     1.0000 0.07050  0.21820  0.62080  Biso   1.000  C
  C153     1.0000 0.87920  0.92950  0.71820  Biso   1.000  C
  C154     1.0000 0.12080  0.42950  0.78180  Biso   1.000  C
  C155     1.0000 0.37920  0.57050  0.28180  Biso   1.000  C
  C156     1.0000 0.62080  0.07050  0.21820  Biso   1.000  C
  C157     1.0000 0.28180  0.12080  0.07050  Biso   1.000  C
  C158     1.0000 0.21820  0.87920  0.57050  Biso   1.000  C
  C159     1.0000 0.71820  0.62080  0.42950  Biso   1.000  C
  C160     1.0000 0.78180  0.37920  0.92950  Biso   1.000  C
  C161     1.0000 0.07050  0.28180  0.12080  Biso   1.000  C
  C162     1.0000 0.57050  0.21820  0.87920  Biso   1.000  C
  C163     1.0000 0.42950  0.71820  0.62080  Biso   1.000  C
  C164     1.0000 0.92950  0.78180  0.37920  Biso   1.000  C
  C165     1.0000 0.12080  0.07050  0.28180  Biso   1.000  C
  C166     1.0000 0.87920  0.57050  0.21820  Biso   1.000  C
  C167     1.0000 0.62080  0.42950  0.71820  Biso   1.000  C
  C168     1.0000 0.37920  0.92950  0.78180  Biso   1.000  C
  C169     1.0000 0.80230  0.75120  0.01060  Biso   1.000  C
  C170     1.0000 0.69770  0.24880  0.51060  Biso   1.000  C
  C171     1.0000 0.19770  0.25120  0.48940  Biso   1.000  C
  C172     1.0000 0.30230  0.74880  0.98940  Biso   1.000  C
  C173     1.0000 0.01060  0.80230  0.75120  Biso   1.000  C
  C174     1.0000 0.51060  0.69770  0.24880  Biso   1.000  C
  C175     1.0000 0.48940  0.19770  0.25120  Biso   1.000  C
  C176     1.0000 0.98940  0.30230  0.74880  Biso   1.000  C
  C177     1.0000 0.75120  0.01060  0.80230  Biso   1.000  C
  C178     1.0000 0.24880  0.51060  0.69770  Biso   1.000  C
  C179     1.0000 0.25120  0.48940  0.19770  Biso   1.000  C
  C180     1.0000 0.74880  0.98940  0.30230  Biso   1.000  C
  C181     1.0000 0.19770  0.24880  0.98940  Biso   1.000  C
  C182     1.0000 0.30230  0.75120  0.48940  Biso   1.000  C
  C183     1.0000 0.80230  0.74880  0.51060  Biso   1.000  C
  C184     1.0000 0.69770  0.25120  0.01060  Biso   1.000  C
  C185     1.0000 0.98940  0.19770  0.24880  Biso   1.000  C
  C186     1.0000 0.48940  0.30230  0.75120  Biso   1.000  C
  C187     1.0000 0.51060  0.80230  0.74880  Biso   1.000  C
  C188     1.0000 0.01060  0.69770  0.25120  Biso   1.000  C
  C189     1.0000 0.24880  0.98940  0.19770  Biso   1.000  C
  C190     1.0000 0.75120  0.48940  0.30230  Biso   1.000  C
  C191     1.0000 0.74880  0.51060  0.80230  Biso   1.000  C
  C192     1.0000 0.25120  0.01060  0.69770  Biso   1.000  C
  O1       1.0000 0.77926  0.66140  0.90547  Biso   1.000  O
  O2       1.0000 0.72074  0.33860  0.40547  Biso   1.000  O
  O3       1.0000 0.22074  0.16140  0.59453  Biso   1.000  O
  O4       1.0000 0.27926  0.83860  0.09453  Biso   1.000  O
  O5       1.0000 0.90547  0.77926  0.66140  Biso   1.000  O
  O6       1.0000 0.40547  0.72074  0.33860  Biso   1.000  O
  O7       1.0000 0.59453  0.22074  0.16140  Biso   1.000  O
  O8       1.0000 0.09453  0.27926  0.83860  Biso   1.000  O
  O9       1.0000 0.66140  0.90547  0.77926  Biso   1.000  O
  O10      1.0000 0.33860  0.40547  0.72074  Biso   1.000  O
  O11      1.0000 0.16140  0.59453  0.22074  Biso   1.000  O
  O12      1.0000 0.83860  0.09453  0.27926  Biso   1.000  O
  O13      1.0000 0.22074  0.33860  0.09453  Biso   1.000  O
  O14      1.0000 0.27926  0.66140  0.59453  Biso   1.000  O
  O15      1.0000 0.77926  0.83860  0.40547  Biso   1.000  O
  O16      1.0000 0.72074  0.16140  0.90547  Biso   1.000  O
  O17      1.0000 0.09453  0.22074  0.33860  Biso   1.000  O
  O18      1.0000 0.59453  0.27926  0.66140  Biso   1.000  O
  O19      1.0000 0.40547  0.77926  0.83860  Biso   1.000  O
  O20      1.0000 0.90547  0.72074  0.16140  Biso   1.000  O
  O21      1.0000 0.33860  0.09453  0.22074  Biso   1.000  O
  O22      1.0000 0.66140  0.59453  0.27926  Biso   1.000  O
  O23      1.0000 0.83860  0.40547  0.77926  Biso   1.000  O
  O24      1.0000 0.16140  0.90547  0.72074  Biso   1.000  O
  O25      1.0000 0.61510  0.48630  0.95950  Biso   1.000  O
  O26      1.0000 0.88490  0.51370  0.45950  Biso   1.000  O
  O27      1.0000 0.38490  0.98630  0.54050  Biso   1.000  O
  O28      1.0000 0.11510  0.01370  0.04050  Biso   1.000  O
  O29      1.0000 0.95950  0.61510  0.48630  Biso   1.000  O
  O30      1.0000 0.45950  0.88490  0.51370  Biso   1.000  O
  O31      1.0000 0.54050  0.38490  0.98630  Biso   1.000  O
  O32      1.0000 0.04050  0.11510  0.01370  Biso   1.000  O
  O33      1.0000 0.48630  0.95950  0.61510  Biso   1.000  O
  O34      1.0000 0.51370  0.45950  0.88490  Biso   1.000  O
  O35      1.0000 0.98630  0.54050  0.38490  Biso   1.000  O
  O36      1.0000 0.01370  0.04050  0.11510  Biso   1.000  O
  O37      1.0000 0.38490  0.51370  0.04050  Biso   1.000  O
  O38      1.0000 0.11510  0.48630  0.54050  Biso   1.000  O
  O39      1.0000 0.61510  0.01370  0.45950  Biso   1.000  O
  O40      1.0000 0.88490  0.98630  0.95950  Biso   1.000  O
  O41      1.0000 0.04050  0.38490  0.51370  Biso   1.000  O
  O42      1.0000 0.54050  0.11510  0.48630  Biso   1.000  O
  O43      1.0000 0.45950  0.61510  0.01370  Biso   1.000  O
  O44      1.0000 0.95950  0.88490  0.98630  Biso   1.000  O
  O45      1.0000 0.51370  0.04050  0.38490  Biso   1.000  O
  O46      1.0000 0.48630  0.54050  0.11510  Biso   1.000  O
  O47      1.0000 0.01370  0.45950  0.61510  Biso   1.000  O
  O48      1.0000 0.98630  0.95950  0.88490  Biso   1.000  O
  H97      1.0000 0.58870  0.51890  0.95980  Biso   1.000  H
  H98      1.0000 0.91130  0.48110  0.45980  Biso   1.000  H
  H99      1.0000 0.41130  0.01890  0.54020  Biso   1.000  H
  H100     1.0000 0.08870  0.98110  0.04020  Biso   1.000  H
  H101     1.0000 0.95980  0.58870  0.51890  Biso   1.000  H
  H102     1.0000 0.45980  0.91130  0.48110  Biso   1.000  H
  H103     1.0000 0.54020  0.41130  0.01890  Biso   1.000  H
  H104     1.0000 0.04020  0.08870  0.98110  Biso   1.000  H
  H105     1.0000 0.51890  0.95980  0.58870  Biso   1.000  H
  H106     1.0000 0.48110  0.45980  0.91130  Biso   1.000  H
  H107     1.0000 0.01890  0.54020  0.41130  Biso   1.000  H
  H108     1.0000 0.98110  0.04020  0.08870  Biso   1.000  H
  H109     1.0000 0.41130  0.48110  0.04020  Biso   1.000  H
  H110     1.0000 0.08870  0.51890  0.54020  Biso   1.000  H
  H111     1.0000 0.58870  0.98110  0.45980  Biso   1.000  H
  H112     1.0000 0.91130  0.01890  0.95980  Biso   1.000  H
  H113     1.0000 0.04020  0.41130  0.48110  Biso   1.000  H
  H114     1.0000 0.54020  0.08870  0.51890  Biso   1.000  H
  H115     1.0000 0.45980  0.58870  0.98110  Biso   1.000  H
  H116     1.0000 0.95980  0.91130  0.01890  Biso   1.000  H
  H117     1.0000 0.48110  0.04020  0.41130  Biso   1.000  H
  H118     1.0000 0.51890  0.54020  0.08870  Biso   1.000  H
  H119     1.0000 0.98110  0.45980  0.58870  Biso   1.000  H
  H120     1.0000 0.01890  0.95980  0.91130  Biso   1.000  H
  H121     1.0000 0.60020  0.44720  0.96240  Biso   1.000  H
  H122     1.0000 0.89980  0.55280  0.46240  Biso   1.000  H
  H123     1.0000 0.39980  0.94720  0.53760  Biso   1.000  H
  H124     1.0000 0.10020  0.05280  0.03760  Biso   1.000  H
  H125     1.0000 0.96240  0.60020  0.44720  Biso   1.000  H
  H126     1.0000 0.46240  0.89980  0.55280  Biso   1.000  H
  H127     1.0000 0.53760  0.39980  0.94720  Biso   1.000  H
  H128     1.0000 0.03760  0.10020  0.05280  Biso   1.000  H
  H129     1.0000 0.44720  0.96240  0.60020  Biso   1.000  H
  H130     1.0000 0.55280  0.46240  0.89980  Biso   1.000  H
  H131     1.0000 0.94720  0.53760  0.39980  Biso   1.000  H
  H132     1.0000 0.05280  0.03760  0.10020  Biso   1.000  H
  H133     1.0000 0.39980  0.55280  0.03760  Biso   1.000  H
  H134     1.0000 0.10020  0.44720  0.53760  Biso   1.000  H
  H135     1.0000 0.60020  0.05280  0.46240  Biso   1.000  H
  H136     1.0000 0.89980  0.94720  0.96240  Biso   1.000  H
  H137     1.0000 0.03760  0.39980  0.55280  Biso   1.000  H
  H138     1.0000 0.53760  0.10020  0.44720  Biso   1.000  H
  H139     1.0000 0.46240  0.60020  0.05280  Biso   1.000  H
  H140     1.0000 0.96240  0.89980  0.94720  Biso   1.000  H
  H141     1.0000 0.55280  0.03760  0.39980  Biso   1.000  H
  H142     1.0000 0.44720  0.53760  0.10020  Biso   1.000  H
  H143     1.0000 0.05280  0.46240  0.60020  Biso   1.000  H
  H144     1.0000 0.94720  0.96240  0.89980  Biso   1.000  H
  O49      1.0000 0.70156  0.59384  0.94550  Biso   1.000  O
  O50      1.0000 0.79844  0.40616  0.44550  Biso   1.000  O
  O51      1.0000 0.29844  0.09384  0.55450  Biso   1.000  O
  O52      1.0000 0.20156  0.90616  0.05450  Biso   1.000  O
  O53      1.0000 0.94550  0.70156  0.59384  Biso   1.000  O
  O54      1.0000 0.44550  0.79844  0.40616  Biso   1.000  O
  O55      1.0000 0.55450  0.29844  0.09384  Biso   1.000  O
  O56      1.0000 0.05450  0.20156  0.90616  Biso   1.000  O
  O57      1.0000 0.59384  0.94550  0.70156  Biso   1.000  O
  O58      1.0000 0.40616  0.44550  0.79844  Biso   1.000  O
  O59      1.0000 0.09384  0.55450  0.29844  Biso   1.000  O
  O60      1.0000 0.90616  0.05450  0.20156  Biso   1.000  O
  O61      1.0000 0.29844  0.40616  0.05450  Biso   1.000  O
  O62      1.0000 0.20156  0.59384  0.55450  Biso   1.000  O
  O63      1.0000 0.70156  0.90616  0.44550  Biso   1.000  O
  O64      1.0000 0.79844  0.09384  0.94550  Biso   1.000  O
  O65      1.0000 0.05450  0.29844  0.40616  Biso   1.000  O
  O66      1.0000 0.55450  0.20156  0.59384  Biso   1.000  O
  O67      1.0000 0.44550  0.70156  0.90616  Biso   1.000  O
  O68      1.0000 0.94550  0.79844  0.09384  Biso   1.000  O
  O69      1.0000 0.40616  0.05450  0.29844  Biso   1.000  O
  O70      1.0000 0.59384  0.55450  0.20156  Biso   1.000  O
  O71      1.0000 0.90616  0.44550  0.70156  Biso   1.000  O
  O72      1.0000 0.09384  0.94550  0.79844  Biso   1.000  O
  O73      1.0000 0.85070  0.53270  0.94200  Biso   1.000  O
  O74      1.0000 0.64930  0.46730  0.44200  Biso   1.000  O
  O75      1.0000 0.14930  0.03270  0.55800  Biso   1.000  O
  O76      1.0000 0.35070  0.96730  0.05800  Biso   1.000  O
  O77      1.0000 0.94200  0.85070  0.53270  Biso   1.000  O
  O78      1.0000 0.44200  0.64930  0.46730  Biso   1.000  O
  O79      1.0000 0.55800  0.14930  0.03270  Biso   1.000  O
  O80      1.0000 0.05800  0.35070  0.96730  Biso   1.000  O
  O81      1.0000 0.53270  0.94200  0.85070  Biso   1.000  O
  O82      1.0000 0.46730  0.44200  0.64930  Biso   1.000  O
  O83      1.0000 0.03270  0.55800  0.14930  Biso   1.000  O
  O84      1.0000 0.96730  0.05800  0.35070  Biso   1.000  O
  O85      1.0000 0.14930  0.46730  0.05800  Biso   1.000  O
  O86      1.0000 0.35070  0.53270  0.55800  Biso   1.000  O
  O87      1.0000 0.85070  0.96730  0.44200  Biso   1.000  O
  O88      1.0000 0.64930  0.03270  0.94200  Biso   1.000  O
  O89      1.0000 0.05800  0.14930  0.46730  Biso   1.000  O
  O90      1.0000 0.55800  0.35070  0.53270  Biso   1.000  O
  O91      1.0000 0.44200  0.85070  0.96730  Biso   1.000  O
  O92      1.0000 0.94200  0.64930  0.03270  Biso   1.000  O
  O93      1.0000 0.46730  0.05800  0.14930  Biso   1.000  O
  O94      1.0000 0.53270  0.55800  0.35070  Biso   1.000  O
  O95      1.0000 0.96730  0.44200  0.85070  Biso   1.000  O
  O96      1.0000 0.03270  0.94200  0.64930  Biso   1.000  O
  H145     1.0000 0.85820  0.49160  0.93850  Biso   1.000  H
  H146     1.0000 0.64180  0.50840  0.43850  Biso   1.000  H
  H147     1.0000 0.14180  0.99160  0.56150  Biso   1.000  H
  H148     1.0000 0.35820  0.00840  0.06150  Biso   1.000  H
  H149     1.0000 0.93850  0.85820  0.49160  Biso   1.000  H
  H150     1.0000 0.43850  0.64180  0.50840  Biso   1.000  H
  H151     1.0000 0.56150  0.14180  0.99160  Biso   1.000  H
  H152     1.0000 0.06150  0.35820  0.00840  Biso   1.000  H
  H153     1.0000 0.49160  0.93850  0.85820  Biso   1.000  H
  H154     1.0000 0.50840  0.43850  0.64180  Biso   1.000  H
  H155     1.0000 0.99160  0.56150  0.14180  Biso   1.000  H
  H156     1.0000 0.00840  0.06150  0.35820  Biso   1.000  H
  H157     1.0000 0.14180  0.50840  0.06150  Biso   1.000  H
  H158     1.0000 0.35820  0.49160  0.56150  Biso   1.000  H
  H159     1.0000 0.85820  0.00840  0.43850  Biso   1.000  H
  H160     1.0000 0.64180  0.99160  0.93850  Biso   1.000  H
  H161     1.0000 0.06150  0.14180  0.50840  Biso   1.000  H
  H162     1.0000 0.56150  0.35820  0.49160  Biso   1.000  H
  H163     1.0000 0.43850  0.85820  0.00840  Biso   1.000  H
  H164     1.0000 0.93850  0.64180  0.99160  Biso   1.000  H
  H165     1.0000 0.50840  0.06150  0.14180  Biso   1.000  H
  H166     1.0000 0.49160  0.56150  0.35820  Biso   1.000  H
  H167     1.0000 0.00840  0.43850  0.85820  Biso   1.000  H
  H168     1.0000 0.99160  0.93850  0.64180  Biso   1.000  H
  H169     1.0000 0.84470  0.54260  0.98220  Biso   1.000  H
  H170     1.0000 0.65530  0.45740  0.48220  Biso   1.000  H
  H171     1.0000 0.15530  0.04260  0.51780  Biso   1.000  H
  H172     1.0000 0.34470  0.95740  0.01780  Biso   1.000  H
  H173     1.0000 0.98220  0.84470  0.54260  Biso   1.000  H
  H174     1.0000 0.48220  0.65530  0.45740  Biso   1.000  H
  H175     1.0000 0.51780  0.15530  0.04260  Biso   1.000  H
  H176     1.0000 0.01780  0.34470  0.95740  Biso   1.000  H
  H177     1.0000 0.54260  0.98220  0.84470  Biso   1.000  H
  H178     1.0000 0.45740  0.48220  0.65530  Biso   1.000  H
  H179     1.0000 0.04260  0.51780  0.15530  Biso   1.000  H
  H180     1.0000 0.95740  0.01780  0.34470  Biso   1.000  H
  H181     1.0000 0.15530  0.45740  0.01780  Biso   1.000  H
  H182     1.0000 0.34470  0.54260  0.51780  Biso   1.000  H
  H183     1.0000 0.84470  0.95740  0.48220  Biso   1.000  H
  H184     1.0000 0.65530  0.04260  0.98220  Biso   1.000  H
  H185     1.0000 0.01780  0.15530  0.45740  Biso   1.000  H
  H186     1.0000 0.51780  0.34470  0.54260  Biso   1.000  H
  H187     1.0000 0.48220  0.84470  0.95740  Biso   1.000  H
  H188     1.0000 0.98220  0.65530  0.04260  Biso   1.000  H
  H189     1.0000 0.45740  0.01780  0.15530  Biso   1.000  H
  H190     1.0000 0.54260  0.51780  0.34470  Biso   1.000  H
  H191     1.0000 0.95740  0.48220  0.84470  Biso   1.000  H
  H192     1.0000 0.04260  0.98220  0.65530  Biso   1.000  H
  O97      1.0000 0.76250  0.90990  0.95970  Biso   1.000  O
  O98      1.0000 0.73750  0.09010  0.45970  Biso   1.000  O
  O99      1.0000 0.23750  0.40990  0.54030  Biso   1.000  O
  O100     1.0000 0.26250  0.59010  0.04030  Biso   1.000  O
  O101     1.0000 0.95970  0.76250  0.90990  Biso   1.000  O
  O102     1.0000 0.45970  0.73750  0.09010  Biso   1.000  O
  O103     1.0000 0.54030  0.23750  0.40990  Biso   1.000  O
  O104     1.0000 0.04030  0.26250  0.59010  Biso   1.000  O
  O105     1.0000 0.90990  0.95970  0.76250  Biso   1.000  O
  O106     1.0000 0.09010  0.45970  0.73750  Biso   1.000  O
  O107     1.0000 0.40990  0.54030  0.23750  Biso   1.000  O
  O108     1.0000 0.59010  0.04030  0.26250  Biso   1.000  O
  O109     1.0000 0.23750  0.09010  0.04030  Biso   1.000  O
  O110     1.0000 0.26250  0.90990  0.54030  Biso   1.000  O
  O111     1.0000 0.76250  0.59010  0.45970  Biso   1.000  O
  O112     1.0000 0.73750  0.40990  0.95970  Biso   1.000  O
  O113     1.0000 0.04030  0.23750  0.09010  Biso   1.000  O
  O114     1.0000 0.54030  0.26250  0.90990  Biso   1.000  O
  O115     1.0000 0.45970  0.76250  0.59010  Biso   1.000  O
  O116     1.0000 0.95970  0.73750  0.40990  Biso   1.000  O
  O117     1.0000 0.09010  0.04030  0.23750  Biso   1.000  O
  O118     1.0000 0.90990  0.54030  0.26250  Biso   1.000  O
  O119     1.0000 0.59010  0.45970  0.76250  Biso   1.000  O
  O120     1.0000 0.40990  0.95970  0.73750  Biso   1.000  O
  O121     1.0000 0.38190  0.39520  0.19000  Biso   1.000  O
  O122     1.0000 0.11810  0.60480  0.69000  Biso   1.000  O
  O123     1.0000 0.61810  0.89520  0.31000  Biso   1.000  O
  O124     1.0000 0.88190  0.10480  0.81000  Biso   1.000  O
  O125     1.0000 0.19000  0.38190  0.39520  Biso   1.000  O
  O126     1.0000 0.69000  0.11810  0.60480  Biso   1.000  O
  O127     1.0000 0.31000  0.61810  0.89520  Biso   1.000  O
  O128     1.0000 0.81000  0.88190  0.10480  Biso   1.000  O
  O129     1.0000 0.39520  0.19000  0.38190  Biso   1.000  O
  O130     1.0000 0.60480  0.69000  0.11810  Biso   1.000  O
  O131     1.0000 0.89520  0.31000  0.61810  Biso   1.000  O
  O132     1.0000 0.10480  0.81000  0.88190  Biso   1.000  O
  O133     1.0000 0.61810  0.60480  0.81000  Biso   1.000  O
  O134     1.0000 0.88190  0.39520  0.31000  Biso   1.000  O
  O135     1.0000 0.38190  0.10480  0.69000  Biso   1.000  O
  O136     1.0000 0.11810  0.89520  0.19000  Biso   1.000  O
  O137     1.0000 0.81000  0.61810  0.60480  Biso   1.000  O
  O138     1.0000 0.31000  0.88190  0.39520  Biso   1.000  O
  O139     1.0000 0.69000  0.38190  0.10480  Biso   1.000  O
  O140     1.0000 0.19000  0.11810  0.89520  Biso   1.000  O
  O141     1.0000 0.60480  0.81000  0.61810  Biso   1.000  O
  O142     1.0000 0.39520  0.31000  0.88190  Biso   1.000  O
  O143     1.0000 0.10480  0.69000  0.38190  Biso   1.000  O
  O144     1.0000 0.89520  0.19000  0.11810  Biso   1.000  O
  H193     1.0000 0.35500  0.42540  0.17920  Biso   1.000  H
  H194     1.0000 0.14500  0.57460  0.67920  Biso   1.000  H
  H195     1.0000 0.64500  0.92540  0.32080  Biso   1.000  H
  H196     1.0000 0.85500  0.07460  0.82080  Biso   1.000  H
  H197     1.0000 0.17920  0.35500  0.42540  Biso   1.000  H
  H198     1.0000 0.67920  0.14500  0.57460  Biso   1.000  H
  H199     1.0000 0.32080  0.64500  0.92540  Biso   1.000  H
  H200     1.0000 0.82080  0.85500  0.07460  Biso   1.000  H
  H201     1.0000 0.42540  0.17920  0.35500  Biso   1.000  H
  H202     1.0000 0.57460  0.67920  0.14500  Biso   1.000  H
  H203     1.0000 0.92540  0.32080  0.64500  Biso   1.000  H
  H204     1.0000 0.07460  0.82080  0.85500  Biso   1.000  H
  H205     1.0000 0.64500  0.57460  0.82080  Biso   1.000  H
  H206     1.0000 0.85500  0.42540  0.32080  Biso   1.000  H
  H207     1.0000 0.35500  0.07460  0.67920  Biso   1.000  H
  H208     1.0000 0.14500  0.92540  0.17920  Biso   1.000  H
  H209     1.0000 0.82080  0.64500  0.57460  Biso   1.000  H
  H210     1.0000 0.32080  0.85500  0.42540  Biso   1.000  H
  H211     1.0000 0.67920  0.35500  0.07460  Biso   1.000  H
  H212     1.0000 0.17920  0.14500  0.92540  Biso   1.000  H
  H213     1.0000 0.57460  0.82080  0.64500  Biso   1.000  H
  H214     1.0000 0.42540  0.32080  0.85500  Biso   1.000  H
  H215     1.0000 0.07460  0.67920  0.35500  Biso   1.000  H
  H216     1.0000 0.92540  0.17920  0.14500  Biso   1.000  H
  H217     1.0000 0.41890  0.41120  0.20140  Biso   1.000  H
  H218     1.0000 0.08110  0.58880  0.70140  Biso   1.000  H
  H219     1.0000 0.58110  0.91120  0.29860  Biso   1.000  H
  H220     1.0000 0.91890  0.08880  0.79860  Biso   1.000  H
  H221     1.0000 0.20140  0.41890  0.41120  Biso   1.000  H
  H222     1.0000 0.70140  0.08110  0.58880  Biso   1.000  H
  H223     1.0000 0.29860  0.58110  0.91120  Biso   1.000  H
  H224     1.0000 0.79860  0.91890  0.08880  Biso   1.000  H
  H225     1.0000 0.41120  0.20140  0.41890  Biso   1.000  H
  H226     1.0000 0.58880  0.70140  0.08110  Biso   1.000  H
  H227     1.0000 0.91120  0.29860  0.58110  Biso   1.000  H
  H228     1.0000 0.08880  0.79860  0.91890  Biso   1.000  H
  H229     1.0000 0.58110  0.58880  0.79860  Biso   1.000  H
  H230     1.0000 0.91890  0.41120  0.29860  Biso   1.000  H
  H231     1.0000 0.41890  0.08880  0.70140  Biso   1.000  H
  H232     1.0000 0.08110  0.91120  0.20140  Biso   1.000  H
  H233     1.0000 0.79860  0.58110  0.58880  Biso   1.000  H
  H234     1.0000 0.29860  0.91890  0.41120  Biso   1.000  H
  H235     1.0000 0.70140  0.41890  0.08880  Biso   1.000  H
  H236     1.0000 0.20140  0.08110  0.91120  Biso   1.000  H
  H237     1.0000 0.58880  0.79860  0.58110  Biso   1.000  H
  H238     1.0000 0.41120  0.29860  0.91890  Biso   1.000  H
  H239     1.0000 0.08880  0.70140  0.41890  Biso   1.000  H
  H240     1.0000 0.91120  0.20140  0.08110  Biso   1.000  H
  O145     1.0000 0.66534  0.90474  0.90972  Biso   1.000  O
  O146     1.0000 0.83466  0.09526  0.40972  Biso   1.000  O
  O147     1.0000 0.33466  0.40474  0.59028  Biso   1.000  O
  O148     1.0000 0.16534  0.59526  0.09028  Biso   1.000  O
  O149     1.0000 0.90972  0.66534  0.90474  Biso   1.000  O
  O150     1.0000 0.40972  0.83466  0.09526  Biso   1.000  O
  O151     1.0000 0.59028  0.33466  0.40474  Biso   1.000  O
  O152     1.0000 0.09028  0.16534  0.59526  Biso   1.000  O
  O153     1.0000 0.90474  0.90972  0.66534  Biso   1.000  O
  O154     1.0000 0.09526  0.40972  0.83466  Biso   1.000  O
  O155     1.0000 0.40474  0.59028  0.33466  Biso   1.000  O
  O156     1.0000 0.59526  0.09028  0.16534  Biso   1.000  O
  O157     1.0000 0.33466  0.09526  0.09028  Biso   1.000  O
  O158     1.0000 0.16534  0.90474  0.59028  Biso   1.000  O
  O159     1.0000 0.66534  0.59526  0.40972  Biso   1.000  O
  O160     1.0000 0.83466  0.40474  0.90972  Biso   1.000  O
  O161     1.0000 0.09028  0.33466  0.09526  Biso   1.000  O
  O162     1.0000 0.59028  0.16534  0.90474  Biso   1.000  O
  O163     1.0000 0.40972  0.66534  0.59526  Biso   1.000  O
  O164     1.0000 0.90972  0.83466  0.40474  Biso   1.000  O
  O165     1.0000 0.09526  0.09028  0.33466  Biso   1.000  O
  O166     1.0000 0.90474  0.59028  0.16534  Biso   1.000  O
  O167     1.0000 0.59526  0.40972  0.66534  Biso   1.000  O
  O168     1.0000 0.40474  0.90972  0.83466  Biso   1.000  O
  O169     1.0000 0.27980  0.27980  0.27980  Biso   1.000  O
  O170     1.0000 0.22020  0.72020  0.77980  Biso   1.000  O
  O171     1.0000 0.72020  0.77980  0.22020  Biso   1.000  O
  O172     1.0000 0.77980  0.22020  0.72020  Biso   1.000  O
  O173     1.0000 0.72020  0.72020  0.72020  Biso   1.000  O
  O174     1.0000 0.77980  0.27980  0.22020  Biso   1.000  O
  O175     1.0000 0.27980  0.22020  0.77980  Biso   1.000  O
  O176     1.0000 0.22020  0.77980  0.27980  Biso   1.000  O
  H241     1.0000 0.24950  0.27130  0.30750  Biso   1.000  H
  H242     1.0000 0.25050  0.72870  0.80750  Biso   1.000  H
  H243     1.0000 0.75050  0.77130  0.19250  Biso   1.000  H
  H244     1.0000 0.74950  0.22870  0.69250  Biso   1.000  H
  H245     1.0000 0.30750  0.24950  0.27130  Biso   1.000  H
  H246     1.0000 0.80750  0.25050  0.72870  Biso   1.000  H
  H247     1.0000 0.19250  0.75050  0.77130  Biso   1.000  H
  H248     1.0000 0.69250  0.74950  0.22870  Biso   1.000  H
  H249     1.0000 0.27130  0.30750  0.24950  Biso   1.000  H
  H250     1.0000 0.72870  0.80750  0.25050  Biso   1.000  H
  H251     1.0000 0.77130  0.19250  0.75050  Biso   1.000  H
  H252     1.0000 0.22870  0.69250  0.74950  Biso   1.000  H
  H253     1.0000 0.75050  0.72870  0.69250  Biso   1.000  H
  H254     1.0000 0.74950  0.27130  0.19250  Biso   1.000  H
  H255     1.0000 0.24950  0.22870  0.80750  Biso   1.000  H
  H256     1.0000 0.25050  0.77130  0.30750  Biso   1.000  H
  H257     1.0000 0.69250  0.75050  0.72870  Biso   1.000  H
  H258     1.0000 0.19250  0.74950  0.27130  Biso   1.000  H
  H259     1.0000 0.80750  0.24950  0.22870  Biso   1.000  H
  H260     1.0000 0.30750  0.25050  0.77130  Biso   1.000  H
  H261     1.0000 0.72870  0.69250  0.75050  Biso   1.000  H
  H262     1.0000 0.27130  0.19250  0.74950  Biso   1.000  H
  H263     1.0000 0.22870  0.80750  0.24950  Biso   1.000  H
  H264     1.0000 0.77130  0.30750  0.25050  Biso   1.000  H
  H265     1.0000 0.30400  0.30400  0.30400  Biso   1.000  H
  H266     1.0000 0.19600  0.69600  0.80400  Biso   1.000  H
  H267     1.0000 0.69600  0.80400  0.19600  Biso   1.000  H
  H268     1.0000 0.80400  0.19600  0.69600  Biso   1.000  H
  H269     1.0000 0.69600  0.69600  0.69600  Biso   1.000  H
  H270     1.0000 0.80400  0.30400  0.19600  Biso   1.000  H
  H271     1.0000 0.30400  0.19600  0.80400  Biso   1.000  H
  H272     1.0000 0.19600  0.80400  0.30400  Biso   1.000  H
  O177     1.0000 0.56065  0.81743  0.92112  Biso   1.000  O
  O178     1.0000 0.93935  0.18257  0.42112  Biso   1.000  O
  O179     1.0000 0.43935  0.31743  0.57888  Biso   1.000  O
  O180     1.0000 0.06065  0.68257  0.07888  Biso   1.000  O
  O181     1.0000 0.92112  0.56065  0.81743  Biso   1.000  O
  O182     1.0000 0.42112  0.93935  0.18257  Biso   1.000  O
  O183     1.0000 0.57888  0.43935  0.31743  Biso   1.000  O
  O184     1.0000 0.07888  0.06065  0.68257  Biso   1.000  O
  O185     1.0000 0.81743  0.92112  0.56065  Biso   1.000  O
  O186     1.0000 0.18257  0.42112  0.93935  Biso   1.000  O
  O187     1.0000 0.31743  0.57888  0.43935  Biso   1.000  O
  O188     1.0000 0.68257  0.07888  0.06065  Biso   1.000  O
  O189     1.0000 0.43935  0.18257  0.07888  Biso   1.000  O
  O190     1.0000 0.06065  0.81743  0.57888  Biso   1.000  O
  O191     1.0000 0.56065  0.68257  0.42112  Biso   1.000  O
  O192     1.0000 0.93935  0.31743  0.92112  Biso   1.000  O
  O193     1.0000 0.07888  0.43935  0.18257  Biso   1.000  O
  O194     1.0000 0.57888  0.06065  0.81743  Biso   1.000  O
  O195     1.0000 0.42112  0.56065  0.68257  Biso   1.000  O
  O196     1.0000 0.92112  0.93935  0.31743  Biso   1.000  O
  O197     1.0000 0.18257  0.07888  0.43935  Biso   1.000  O
  O198     1.0000 0.81743  0.57888  0.06065  Biso   1.000  O
  O199     1.0000 0.68257  0.42112  0.56065  Biso   1.000  O
  O200     1.0000 0.31743  0.92112  0.93935  Biso   1.000  O
  O201     1.0000 0.91330  0.41330  0.08670  Biso   1.000  O
  O202     1.0000 0.58670  0.58670  0.58670  Biso   1.000  O
  O203     1.0000 0.08670  0.91330  0.41330  Biso   1.000  O
  O204     1.0000 0.41330  0.08670  0.91330  Biso   1.000  O
  O205     1.0000 0.08670  0.58670  0.91330  Biso   1.000  O
  O206     1.0000 0.41330  0.41330  0.41330  Biso   1.000  O
  O207     1.0000 0.91330  0.08670  0.58670  Biso   1.000  O
  O208     1.0000 0.58670  0.91330  0.08670  Biso   1.000  O
  H273     1.0000 0.93750  0.43750  0.06250  Biso   1.000  H
  H274     1.0000 0.56250  0.56250  0.56250  Biso   1.000  H
  H275     1.0000 0.06250  0.93750  0.43750  Biso   1.000  H
  H276     1.0000 0.43750  0.06250  0.93750  Biso   1.000  H
  H277     1.0000 0.06250  0.56250  0.93750  Biso   1.000  H
  H278     1.0000 0.43750  0.43750  0.43750  Biso   1.000  H
  H279     1.0000 0.93750  0.06250  0.56250  Biso   1.000  H
  H280     1.0000 0.56250  0.93750  0.06250  Biso   1.000  H
  H281     1.0000 0.91910  0.37290  0.08070  Biso   1.000  H
  H282     1.0000 0.58090  0.62710  0.58070  Biso   1.000  H
  H283     1.0000 0.08090  0.87290  0.41930  Biso   1.000  H
  H284     1.0000 0.41910  0.12710  0.91930  Biso   1.000  H
  H285     1.0000 0.08070  0.91910  0.37290  Biso   1.000  H
  H286     1.0000 0.58070  0.58090  0.62710  Biso   1.000  H
  H287     1.0000 0.41930  0.08090  0.87290  Biso   1.000  H
  H288     1.0000 0.91930  0.41910  0.12710  Biso   1.000  H
  H289     1.0000 0.37290  0.08070  0.91910  Biso   1.000  H
  H290     1.0000 0.62710  0.58070  0.58090  Biso   1.000  H
  H291     1.0000 0.87290  0.41930  0.08090  Biso   1.000  H
  H292     1.0000 0.12710  0.91930  0.41910  Biso   1.000  H
  H293     1.0000 0.08090  0.62710  0.91930  Biso   1.000  H
  H294     1.0000 0.41910  0.37290  0.41930  Biso   1.000  H
  H295     1.0000 0.91910  0.12710  0.58070  Biso   1.000  H
  H296     1.0000 0.58090  0.87290  0.08070  Biso   1.000  H
  H297     1.0000 0.91930  0.08090  0.62710  Biso   1.000  H
  H298     1.0000 0.41930  0.41910  0.37290  Biso   1.000  H
  H299     1.0000 0.58070  0.91910  0.12710  Biso   1.000  H
  H300     1.0000 0.08070  0.58090  0.87290  Biso   1.000  H
  H301     1.0000 0.62710  0.91930  0.08090  Biso   1.000  H
  H302     1.0000 0.37290  0.41930  0.41910  Biso   1.000  H
  H303     1.0000 0.12710  0.58070  0.91910  Biso   1.000  H
  H304     1.0000 0.87290  0.08070  0.58090  Biso   1.000  H
  O209     1.0000 0.54763  0.73030  0.98590  Biso   1.000  O
  O210     1.0000 0.95237  0.26970  0.48590  Biso   1.000  O
  O211     1.0000 0.45237  0.23030  0.51410  Biso   1.000  O
  O212     1.0000 0.04763  0.76970  0.01410  Biso   1.000  O
  O213     1.0000 0.98590  0.54763  0.73030  Biso   1.000  O
  O214     1.0000 0.48590  0.95237  0.26970  Biso   1.000  O
  O215     1.0000 0.51410  0.45237  0.23030  Biso   1.000  O
  O216     1.0000 0.01410  0.04763  0.76970  Biso   1.000  O
  O217     1.0000 0.73030  0.98590  0.54763  Biso   1.000  O
  O218     1.0000 0.26970  0.48590  0.95237  Biso   1.000  O
  O219     1.0000 0.23030  0.51410  0.45237  Biso   1.000  O
  O220     1.0000 0.76970  0.01410  0.04763  Biso   1.000  O
  O221     1.0000 0.45237  0.26970  0.01410  Biso   1.000  O
  O222     1.0000 0.04763  0.73030  0.51410  Biso   1.000  O
  O223     1.0000 0.54763  0.76970  0.48590  Biso   1.000  O
  O224     1.0000 0.95237  0.23030  0.98590  Biso   1.000  O
  O225     1.0000 0.01410  0.45237  0.26970  Biso   1.000  O
  O226     1.0000 0.51410  0.04763  0.73030  Biso   1.000  O
  O227     1.0000 0.48590  0.54763  0.76970  Biso   1.000  O
  O228     1.0000 0.98590  0.95237  0.23030  Biso   1.000  O
  O229     1.0000 0.26970  0.01410  0.45237  Biso   1.000  O
  O230     1.0000 0.73030  0.51410  0.04763  Biso   1.000  O
  O231     1.0000 0.76970  0.48590  0.54763  Biso   1.000  O
  O232     1.0000 0.23030  0.98590  0.95237  Biso   1.000  O
  O233     1.0000 0.45130  0.41880  0.09550  Biso   1.000  O
  O234     1.0000 0.04870  0.58120  0.59550  Biso   1.000  O
  O235     1.0000 0.54870  0.91880  0.40450  Biso   1.000  O
  O236     1.0000 0.95130  0.08120  0.90450  Biso   1.000  O
  O237     1.0000 0.09550  0.45130  0.41880  Biso   1.000  O
  O238     1.0000 0.59550  0.04870  0.58120  Biso   1.000  O
  O239     1.0000 0.40450  0.54870  0.91880  Biso   1.000  O
  O240     1.0000 0.90450  0.95130  0.08120  Biso   1.000  O
  O241     1.0000 0.41880  0.09550  0.45130  Biso   1.000  O
  O242     1.0000 0.58120  0.59550  0.04870  Biso   1.000  O
  O243     1.0000 0.91880  0.40450  0.54870  Biso   1.000  O
  O244     1.0000 0.08120  0.90450  0.95130  Biso   1.000  O
  O245     1.0000 0.54870  0.58120  0.90450  Biso   1.000  O
  O246     1.0000 0.95130  0.41880  0.40450  Biso   1.000  O
  O247     1.0000 0.45130  0.08120  0.59550  Biso   1.000  O
  O248     1.0000 0.04870  0.91880  0.09550  Biso   1.000  O
  O249     1.0000 0.90450  0.54870  0.58120  Biso   1.000  O
  O250     1.0000 0.40450  0.95130  0.41880  Biso   1.000  O
  O251     1.0000 0.59550  0.45130  0.08120  Biso   1.000  O
  O252     1.0000 0.09550  0.04870  0.91880  Biso   1.000  O
  O253     1.0000 0.58120  0.90450  0.54870  Biso   1.000  O
  O254     1.0000 0.41880  0.40450  0.95130  Biso   1.000  O
  O255     1.0000 0.08120  0.59550  0.45130  Biso   1.000  O
  O256     1.0000 0.91880  0.09550  0.04870  Biso   1.000  O
  H305     1.0000 0.42640  0.39300  0.11720  Biso   1.000  H
  H306     1.0000 0.07360  0.60700  0.61720  Biso   1.000  H
  H307     1.0000 0.57360  0.89300  0.38280  Biso   1.000  H
  H308     1.0000 0.92640  0.10700  0.88280  Biso   1.000  H
  H309     1.0000 0.11720  0.42640  0.39300  Biso   1.000  H
  H310     1.0000 0.61720  0.07360  0.60700  Biso   1.000  H
  H311     1.0000 0.38280  0.57360  0.89300  Biso   1.000  H
  H312     1.0000 0.88280  0.92640  0.10700  Biso   1.000  H
  H313     1.0000 0.39300  0.11720  0.42640  Biso   1.000  H
  H314     1.0000 0.60700  0.61720  0.07360  Biso   1.000  H
  H315     1.0000 0.89300  0.38280  0.57360  Biso   1.000  H
  H316     1.0000 0.10700  0.88280  0.92640  Biso   1.000  H
  H317     1.0000 0.57360  0.60700  0.88280  Biso   1.000  H
  H318     1.0000 0.92640  0.39300  0.38280  Biso   1.000  H
  H319     1.0000 0.42640  0.10700  0.61720  Biso   1.000  H
  H320     1.0000 0.07360  0.89300  0.11720  Biso   1.000  H
  H321     1.0000 0.88280  0.57360  0.60700  Biso   1.000  H
  H322     1.0000 0.38280  0.92640  0.39300  Biso   1.000  H
  H323     1.0000 0.61720  0.42640  0.10700  Biso   1.000  H
  H324     1.0000 0.11720  0.07360  0.89300  Biso   1.000  H
  H325     1.0000 0.60700  0.88280  0.57360  Biso   1.000  H
  H326     1.0000 0.39300  0.38280  0.92640  Biso   1.000  H
  H327     1.0000 0.10700  0.61720  0.42640  Biso   1.000  H
  H328     1.0000 0.89300  0.11720  0.07360  Biso   1.000  H
  H329     1.0000 0.44050  0.42000  0.05500  Biso   1.000  H
  H330     1.0000 0.05950  0.58000  0.55500  Biso   1.000  H
  H331     1.0000 0.55950  0.92000  0.44500  Biso   1.000  H
  H332     1.0000 0.94050  0.08000  0.94500  Biso   1.000  H
  H333     1.0000 0.05500  0.44050  0.42000  Biso   1.000  H
  H334     1.0000 0.55500  0.05950  0.58000  Biso   1.000  H
  H335     1.0000 0.44500  0.55950  0.92000  Biso   1.000  H
  H336     1.0000 0.94500  0.94050  0.08000  Biso   1.000  H
  H337     1.0000 0.42000  0.05500  0.44050  Biso   1.000  H
  H338     1.0000 0.58000  0.55500  0.05950  Biso   1.000  H
  H339     1.0000 0.92000  0.44500  0.55950  Biso   1.000  H
  H340     1.0000 0.08000  0.94500  0.94050  Biso   1.000  H
  H341     1.0000 0.55950  0.58000  0.94500  Biso   1.000  H
  H342     1.0000 0.94050  0.42000  0.44500  Biso   1.000  H
  H343     1.0000 0.44050  0.08000  0.55500  Biso   1.000  H
  H344     1.0000 0.05950  0.92000  0.05500  Biso   1.000  H
  H345     1.0000 0.94500  0.55950  0.58000  Biso   1.000  H
  H346     1.0000 0.44500  0.94050  0.42000  Biso   1.000  H
  H347     1.0000 0.55500  0.44050  0.08000  Biso   1.000  H
  H348     1.0000 0.05500  0.05950  0.92000  Biso   1.000  H
  H349     1.0000 0.58000  0.94500  0.55950  Biso   1.000  H
  H350     1.0000 0.42000  0.44500  0.94050  Biso   1.000  H
  H351     1.0000 0.08000  0.55500  0.44050  Biso   1.000  H
  H352     1.0000 0.92000  0.05500  0.05950  Biso   1.000  H
  O257     1.0000 0.80064  0.71100  0.05842  Biso   1.000  O
  O258     1.0000 0.69936  0.28900  0.55842  Biso   1.000  O
  O259     1.0000 0.19936  0.21100  0.44158  Biso   1.000  O
  O260     1.0000 0.30064  0.78900  0.94158  Biso   1.000  O
  O261     1.0000 0.05842  0.80064  0.71100  Biso   1.000  O
  O262     1.0000 0.55842  0.69936  0.28900  Biso   1.000  O
  O263     1.0000 0.44158  0.19936  0.21100  Biso   1.000  O
  O264     1.0000 0.94158  0.30064  0.78900  Biso   1.000  O
  O265     1.0000 0.71100  0.05842  0.80064  Biso   1.000  O
  O266     1.0000 0.28900  0.55842  0.69936  Biso   1.000  O
  O267     1.0000 0.21100  0.44158  0.19936  Biso   1.000  O
  O268     1.0000 0.78900  0.94158  0.30064  Biso   1.000  O
  O269     1.0000 0.19936  0.28900  0.94158  Biso   1.000  O
  O270     1.0000 0.30064  0.71100  0.44158  Biso   1.000  O
  O271     1.0000 0.80064  0.78900  0.55842  Biso   1.000  O
  O272     1.0000 0.69936  0.21100  0.05842  Biso   1.000  O
  O273     1.0000 0.94158  0.19936  0.28900  Biso   1.000  O
  O274     1.0000 0.44158  0.30064  0.71100  Biso   1.000  O
  O275     1.0000 0.55842  0.80064  0.78900  Biso   1.000  O
  O276     1.0000 0.05842  0.69936  0.21100  Biso   1.000  O
  O277     1.0000 0.28900  0.94158  0.19936  Biso   1.000  O
  O278     1.0000 0.71100  0.44158  0.30064  Biso   1.000  O
  O279     1.0000 0.78900  0.55842  0.80064  Biso   1.000  O
  O280     1.0000 0.21100  0.05842  0.69936  Biso   1.000  O
  O281     1.0000 0.85143  0.77806  0.98717  Biso   1.000  O
  O282     1.0000 0.64857  0.22194  0.48717  Biso   1.000  O
  O283     1.0000 0.14857  0.27806  0.51283  Biso   1.000  O
  O284     1.0000 0.35143  0.72194  0.01283  Biso   1.000  O
  O285     1.0000 0.98717  0.85143  0.77806  Biso   1.000  O
  O286     1.0000 0.48717  0.64857  0.22194  Biso   1.000  O
  O287     1.0000 0.51283  0.14857  0.27806  Biso   1.000  O
  O288     1.0000 0.01283  0.35143  0.72194  Biso   1.000  O
  O289     1.0000 0.77806  0.98717  0.85143  Biso   1.000  O
  O290     1.0000 0.22194  0.48717  0.64857  Biso   1.000  O
  O291     1.0000 0.27806  0.51283  0.14857  Biso   1.000  O
  O292     1.0000 0.72194  0.01283  0.35143  Biso   1.000  O
  O293     1.0000 0.14857  0.22194  0.01283  Biso   1.000  O
  O294     1.0000 0.35143  0.77806  0.51283  Biso   1.000  O
  O295     1.0000 0.85143  0.72194  0.48717  Biso   1.000  O
  O296     1.0000 0.64857  0.27806  0.98717  Biso   1.000  O
  O297     1.0000 0.01283  0.14857  0.22194  Biso   1.000  O
  O298     1.0000 0.51283  0.35143  0.77806  Biso   1.000  O
  O299     1.0000 0.48717  0.85143  0.72194  Biso   1.000  O
  O300     1.0000 0.98717  0.64857  0.27806  Biso   1.000  O
  O301     1.0000 0.22194  0.01283  0.14857  Biso   1.000  O
  O302     1.0000 0.77806  0.51283  0.35143  Biso   1.000  O
  O303     1.0000 0.72194  0.48717  0.85143  Biso   1.000  O
  O304     1.0000 0.27806  0.98717  0.64857  Biso   1.000  O
  O305     1.0000 0.68027  0.77780  0.87839  Biso   1.000  O
  O306     1.0000 0.81973  0.22220  0.37839  Biso   1.000  O
  O307     1.0000 0.31973  0.27780  0.62161  Biso   1.000  O
  O308     1.0000 0.18027  0.72220  0.12161  Biso   1.000  O
  O309     1.0000 0.87839  0.68027  0.77780  Biso   1.000  O
  O310     1.0000 0.37839  0.81973  0.22220  Biso   1.000  O
  O311     1.0000 0.62161  0.31973  0.27780  Biso   1.000  O
  O312     1.0000 0.12161  0.18027  0.72220  Biso   1.000  O
  O313     1.0000 0.77780  0.87839  0.68027  Biso   1.000  O
  O314     1.0000 0.22220  0.37839  0.81973  Biso   1.000  O
  O315     1.0000 0.27780  0.62161  0.31973  Biso   1.000  O
  O316     1.0000 0.72220  0.12161  0.18027  Biso   1.000  O
  O317     1.0000 0.31973  0.22220  0.12161  Biso   1.000  O
  O318     1.0000 0.18027  0.77780  0.62161  Biso   1.000  O
  O319     1.0000 0.68027  0.72220  0.37839  Biso   1.000  O
  O320     1.0000 0.81973  0.27780  0.87839  Biso   1.000  O
  O321     1.0000 0.12161  0.31973  0.22220  Biso   1.000  O
  O322     1.0000 0.62161  0.18027  0.77780  Biso   1.000  O
  O323     1.0000 0.37839  0.68027  0.72220  Biso   1.000  O
  O324     1.0000 0.87839  0.81973  0.27780  Biso   1.000  O
  O325     1.0000 0.22220  0.12161  0.31973  Biso   1.000  O
  O326     1.0000 0.77780  0.62161  0.18027  Biso   1.000  O
  O327     1.0000 0.72220  0.37839  0.68027  Biso   1.000  O
  O328     1.0000 0.27780  0.87839  0.81973  Biso   1.000  O
