data_image0
_cell_length_a       18.98
_cell_length_b       21.854
_cell_length_c       21.968
_cell_angle_alpha    90
_cell_angle_beta     90
_cell_angle_gamma    90

_symmetry_space_group_name_H-M    "P 1"
_symmetry_int_tables_number       1

loop_
  _symmetry_equiv_pos_as_xyz
  'x, y, z'

loop_
  _atom_site_label
  _atom_site_occupancy
  _atom_site_fract_x
  _atom_site_fract_y
  _atom_site_fract_z
  _atom_site_thermal_displace_type
  _atom_site_B_iso_or_equiv
  _atom_site_type_symbol
  O1       1.0000 0.71800  0.54200  0.21100  Biso   1.000  O
  O2       1.0000 0.78200  0.95800  0.21100  Biso   1.000  O
  O3       1.0000 0.28200  0.04200  0.28900  Biso   1.000  O
  O4       1.0000 0.21800  0.45800  0.28900  Biso   1.000  O
  O5       1.0000 0.28200  0.45800  0.78900  Biso   1.000  O
  O6       1.0000 0.21800  0.04200  0.78900  Biso   1.000  O
  O7       1.0000 0.71800  0.95800  0.71100  Biso   1.000  O
  O8       1.0000 0.78200  0.54200  0.71100  Biso   1.000  O
  O9       1.0000 0.40800  0.77500  0.23900  Biso   1.000  O
  O10      1.0000 0.09200  0.72500  0.23900  Biso   1.000  O
  O11      1.0000 0.59200  0.27500  0.26100  Biso   1.000  O
  O12      1.0000 0.90800  0.22500  0.26100  Biso   1.000  O
  O13      1.0000 0.59200  0.22500  0.76100  Biso   1.000  O
  O14      1.0000 0.90800  0.27500  0.76100  Biso   1.000  O
  O15      1.0000 0.40800  0.72500  0.73900  Biso   1.000  O
  O16      1.0000 0.09200  0.77500  0.73900  Biso   1.000  O
  Sb1      1.0000 0.46590  0.01260  0.53797  Biso   1.000  Sb
  Sb2      1.0000 0.03410  0.48740  0.53797  Biso   1.000  Sb
  Sb3      1.0000 0.53410  0.51260  0.96203  Biso   1.000  Sb
  Sb4      1.0000 0.96590  0.98740  0.96203  Biso   1.000  Sb
  Sb5      1.0000 0.53410  0.98740  0.46203  Biso   1.000  Sb
  Sb6      1.0000 0.96590  0.51260  0.46203  Biso   1.000  Sb
  Sb7      1.0000 0.46590  0.48740  0.03797  Biso   1.000  Sb
  Sb8      1.0000 0.03410  0.01260  0.03797  Biso   1.000  Sb
  W1       1.0000 0.33964  0.10225  0.45621  Biso   1.000  W
  W2       1.0000 0.16036  0.39775  0.45621  Biso   1.000  W
  W3       1.0000 0.66036  0.60225  0.04379  Biso   1.000  W
  W4       1.0000 0.83964  0.89775  0.04379  Biso   1.000  W
  W5       1.0000 0.66036  0.89775  0.54379  Biso   1.000  W
  W6       1.0000 0.83964  0.60225  0.54379  Biso   1.000  W
  W7       1.0000 0.33964  0.39775  0.95621  Biso   1.000  W
  W8       1.0000 0.16036  0.10225  0.95621  Biso   1.000  W
  W9       1.0000 0.42028  0.13567  0.67116  Biso   1.000  W
  W10      1.0000 0.07972  0.36433  0.67116  Biso   1.000  W
  W11      1.0000 0.57972  0.63567  0.82884  Biso   1.000  W
  W12      1.0000 0.92028  0.86433  0.82884  Biso   1.000  W
  W13      1.0000 0.57972  0.86433  0.32884  Biso   1.000  W
  W14      1.0000 0.92028  0.63567  0.32884  Biso   1.000  W
  W15      1.0000 0.42028  0.36433  0.17116  Biso   1.000  W
  W16      1.0000 0.07972  0.13567  0.17116  Biso   1.000  W
  W17      1.0000 0.27009  0.06448  0.58944  Biso   1.000  W
  W18      1.0000 0.22991  0.43552  0.58944  Biso   1.000  W
  W19      1.0000 0.72991  0.56448  0.91056  Biso   1.000  W
  W20      1.0000 0.77009  0.93552  0.91056  Biso   1.000  W
  W21      1.0000 0.72991  0.93552  0.41056  Biso   1.000  W
  W22      1.0000 0.77009  0.56448  0.41056  Biso   1.000  W
  W23      1.0000 0.27009  0.43552  0.08944  Biso   1.000  W
  W24      1.0000 0.22991  0.06448  0.08944  Biso   1.000  W
  W25      1.0000 0.49002  0.17734  0.53799  Biso   1.000  W
  W26      1.0000 0.00998  0.32266  0.53799  Biso   1.000  W
  W27      1.0000 0.50998  0.67734  0.96201  Biso   1.000  W
  W28      1.0000 0.99002  0.82266  0.96201  Biso   1.000  W
  W29      1.0000 0.50998  0.82266  0.46201  Biso   1.000  W
  W30      1.0000 0.99002  0.67734  0.46201  Biso   1.000  W
  W31      1.0000 0.49002  0.32266  0.03799  Biso   1.000  W
  W32      1.0000 0.00998  0.17734  0.03799  Biso   1.000  W
  W33      1.0000 0.46350  0.06642  0.33530  Biso   1.000  W
  W34      1.0000 0.03650  0.43358  0.33530  Biso   1.000  W
  W35      1.0000 0.53650  0.56642  0.16470  Biso   1.000  W
  W36      1.0000 0.96350  0.93358  0.16470  Biso   1.000  W
  W37      1.0000 0.53650  0.93358  0.66470  Biso   1.000  W
  W38      1.0000 0.96350  0.56642  0.66470  Biso   1.000  W
  W39      1.0000 0.46350  0.43358  0.83530  Biso   1.000  W
  W40      1.0000 0.03650  0.06642  0.83530  Biso   1.000  W
  W41      1.0000 0.58463  0.09662  0.63560  Biso   1.000  W
  W42      1.0000 0.91537  0.40338  0.63560  Biso   1.000  W
  W43      1.0000 0.41537  0.59662  0.86440  Biso   1.000  W
  W44      1.0000 0.08463  0.90338  0.86440  Biso   1.000  W
  W45      1.0000 0.41537  0.90338  0.36440  Biso   1.000  W
  W46      1.0000 0.08463  0.59662  0.36440  Biso   1.000  W
  W47      1.0000 0.58463  0.40338  0.13560  Biso   1.000  W
  W48      1.0000 0.91537  0.09662  0.13560  Biso   1.000  W
  W49      1.0000 0.62566  0.02562  0.30026  Biso   1.000  W
  W50      1.0000 0.87434  0.47438  0.30026  Biso   1.000  W
  W51      1.0000 0.37434  0.52562  0.19974  Biso   1.000  W
  W52      1.0000 0.12566  0.97438  0.19974  Biso   1.000  W
  W53      1.0000 0.37434  0.97438  0.69974  Biso   1.000  W
  W54      1.0000 0.12566  0.52562  0.69974  Biso   1.000  W
  W55      1.0000 0.62566  0.47438  0.80026  Biso   1.000  W
  W56      1.0000 0.87434  0.02562  0.80026  Biso   1.000  W
  W57      1.0000 0.40369  0.86787  0.59419  Biso   1.000  W
  W58      1.0000 0.09631  0.63213  0.59419  Biso   1.000  W
  W59      1.0000 0.59631  0.36787  0.90581  Biso   1.000  W
  W60      1.0000 0.90369  0.13213  0.90581  Biso   1.000  W
  W61      1.0000 0.59631  0.13213  0.40581  Biso   1.000  W
  W62      1.0000 0.90369  0.36787  0.40581  Biso   1.000  W
  W63      1.0000 0.40369  0.63213  0.09419  Biso   1.000  W
  W64      1.0000 0.09631  0.86787  0.09419  Biso   1.000  W
  W65      1.0000 0.29604  0.95840  0.48293  Biso   1.000  W
  W66      1.0000 0.20396  0.54160  0.48293  Biso   1.000  W
  W67      1.0000 0.70396  0.45840  0.01707  Biso   1.000  W
  W68      1.0000 0.79604  0.04160  0.01707  Biso   1.000  W
  W69      1.0000 0.70396  0.04160  0.51707  Biso   1.000  W
  W70      1.0000 0.79604  0.45840  0.51707  Biso   1.000  W
  W71      1.0000 0.29604  0.54160  0.98293  Biso   1.000  W
  W72      1.0000 0.20396  0.95840  0.98293  Biso   1.000  W
  Cu1      1.0000 0.25000  0.25000  0.38950  Biso   1.000  Cu
  Cu2      1.0000 0.75000  0.75000  0.11050  Biso   1.000  Cu
  Cu3      1.0000 0.75000  0.75000  0.61050  Biso   1.000  Cu
  Cu4      1.0000 0.25000  0.25000  0.88950  Biso   1.000  Cu
  O17      1.0000 0.53700  0.04790  0.27990  Biso   1.000  O
  O18      1.0000 0.96300  0.45210  0.27990  Biso   1.000  O
  O19      1.0000 0.46300  0.54790  0.22010  Biso   1.000  O
  O20      1.0000 0.03700  0.95210  0.22010  Biso   1.000  O
  O21      1.0000 0.46300  0.95210  0.72010  Biso   1.000  O
  O22      1.0000 0.03700  0.54790  0.72010  Biso   1.000  O
  O23      1.0000 0.53700  0.45210  0.77990  Biso   1.000  O
  O24      1.0000 0.96300  0.04790  0.77990  Biso   1.000  O
  O25      1.0000 0.23650  0.00010  0.54210  Biso   1.000  O
  O26      1.0000 0.26350  0.49990  0.54210  Biso   1.000  O
  O27      1.0000 0.76350  0.50010  0.95790  Biso   1.000  O
  O28      1.0000 0.73650  0.99990  0.95790  Biso   1.000  O
  O29      1.0000 0.76350  0.99990  0.45790  Biso   1.000  O
  O30      1.0000 0.73650  0.50010  0.45790  Biso   1.000  O
  O31      1.0000 0.23650  0.49990  0.04210  Biso   1.000  O
  O32      1.0000 0.26350  0.00010  0.04210  Biso   1.000  O
  O33      1.0000 0.36050  0.03290  0.52720  Biso   1.000  O
  O34      1.0000 0.13950  0.46710  0.52720  Biso   1.000  O
  O35      1.0000 0.63950  0.53290  0.97280  Biso   1.000  O
  O36      1.0000 0.86050  0.96710  0.97280  Biso   1.000  O
  O37      1.0000 0.63950  0.96710  0.47280  Biso   1.000  O
  O38      1.0000 0.86050  0.53290  0.47280  Biso   1.000  O
  O39      1.0000 0.36050  0.46710  0.02720  Biso   1.000  O
  O40      1.0000 0.13950  0.03290  0.02720  Biso   1.000  O
  O41      1.0000 0.51520  0.13140  0.69230  Biso   1.000  O
  O42      1.0000 0.98480  0.36860  0.69230  Biso   1.000  O
  O43      1.0000 0.48480  0.63140  0.80770  Biso   1.000  O
  O44      1.0000 0.01520  0.86860  0.80770  Biso   1.000  O
  O45      1.0000 0.48480  0.86860  0.30770  Biso   1.000  O
  O46      1.0000 0.01520  0.63140  0.30770  Biso   1.000  O
  O47      1.0000 0.51520  0.36860  0.19230  Biso   1.000  O
  O48      1.0000 0.98480  0.13140  0.19230  Biso   1.000  O
  O49      1.0000 0.44170  0.96400  0.61120  Biso   1.000  O
  O50      1.0000 0.05830  0.53600  0.61120  Biso   1.000  O
  O51      1.0000 0.55830  0.46400  0.88880  Biso   1.000  O
  O52      1.0000 0.94170  0.03600  0.88880  Biso   1.000  O
  O53      1.0000 0.55830  0.03600  0.38880  Biso   1.000  O
  O54      1.0000 0.94170  0.46400  0.38880  Biso   1.000  O
  O55      1.0000 0.44170  0.53600  0.11120  Biso   1.000  O
  O56      1.0000 0.05830  0.96400  0.11120  Biso   1.000  O
  O57      1.0000 0.28590  0.03370  0.43460  Biso   1.000  O
  O58      1.0000 0.21410  0.46630  0.43460  Biso   1.000  O
  O59      1.0000 0.71410  0.53370  0.06540  Biso   1.000  O
  O60      1.0000 0.78590  0.96630  0.06540  Biso   1.000  O
  O61      1.0000 0.71410  0.96630  0.56540  Biso   1.000  O
  O62      1.0000 0.78590  0.53370  0.56540  Biso   1.000  O
  O63      1.0000 0.28590  0.46630  0.93460  Biso   1.000  O
  O64      1.0000 0.21410  0.03370  0.93460  Biso   1.000  O
  O65      1.0000 0.41490  0.07060  0.41400  Biso   1.000  O
  O66      1.0000 0.08510  0.42940  0.41400  Biso   1.000  O
  O67      1.0000 0.58510  0.57060  0.08600  Biso   1.000  O
  O68      1.0000 0.91490  0.92940  0.08600  Biso   1.000  O
  O69      1.0000 0.58510  0.92940  0.58600  Biso   1.000  O
  O70      1.0000 0.91490  0.57060  0.58600  Biso   1.000  O
  O71      1.0000 0.41490  0.42940  0.91400  Biso   1.000  O
  O72      1.0000 0.08510  0.07060  0.91400  Biso   1.000  O
  O73      1.0000 0.47860  0.08660  0.59070  Biso   1.000  O
  O74      1.0000 0.02140  0.41340  0.59070  Biso   1.000  O
  O75      1.0000 0.52140  0.58660  0.90930  Biso   1.000  O
  O76      1.0000 0.97860  0.91340  0.90930  Biso   1.000  O
  O77      1.0000 0.52140  0.91340  0.40930  Biso   1.000  O
  O78      1.0000 0.97860  0.58660  0.40930  Biso   1.000  O
  O79      1.0000 0.47860  0.41340  0.09070  Biso   1.000  O
  O80      1.0000 0.02140  0.08660  0.09070  Biso   1.000  O
  O81      1.0000 0.33450  0.11840  0.62610  Biso   1.000  O
  O82      1.0000 0.16550  0.38160  0.62610  Biso   1.000  O
  O83      1.0000 0.66550  0.61840  0.87390  Biso   1.000  O
  O84      1.0000 0.83450  0.88160  0.87390  Biso   1.000  O
  O85      1.0000 0.66550  0.88160  0.37390  Biso   1.000  O
  O86      1.0000 0.83450  0.61840  0.37390  Biso   1.000  O
  O87      1.0000 0.33450  0.38160  0.12610  Biso   1.000  O
  O88      1.0000 0.16550  0.11840  0.12610  Biso   1.000  O
  O89      1.0000 0.38170  0.94330  0.43380  Biso   1.000  O
  O90      1.0000 0.11830  0.55670  0.43380  Biso   1.000  O
  O91      1.0000 0.61830  0.44330  0.06620  Biso   1.000  O
  O92      1.0000 0.88170  0.05670  0.06620  Biso   1.000  O
  O93      1.0000 0.61830  0.05670  0.56620  Biso   1.000  O
  O94      1.0000 0.88170  0.44330  0.56620  Biso   1.000  O
  O95      1.0000 0.38170  0.55670  0.93380  Biso   1.000  O
  O96      1.0000 0.11830  0.94330  0.93380  Biso   1.000  O
  O97      1.0000 0.19280  0.08370  0.62110  Biso   1.000  O
  O98      1.0000 0.30720  0.41630  0.62110  Biso   1.000  O
  O99      1.0000 0.80720  0.58370  0.87890  Biso   1.000  O
  O100     1.0000 0.69280  0.91630  0.87890  Biso   1.000  O
  O101     1.0000 0.80720  0.91630  0.37890  Biso   1.000  O
  O102     1.0000 0.69280  0.58370  0.37890  Biso   1.000  O
  O103     1.0000 0.19280  0.41630  0.12110  Biso   1.000  O
  O104     1.0000 0.30720  0.08370  0.12110  Biso   1.000  O
  O105     1.0000 0.32980  0.90660  0.54250  Biso   1.000  O
  O106     1.0000 0.17020  0.59340  0.54250  Biso   1.000  O
  O107     1.0000 0.67020  0.40660  0.95750  Biso   1.000  O
  O108     1.0000 0.82980  0.09340  0.95750  Biso   1.000  O
  O109     1.0000 0.67020  0.09340  0.45750  Biso   1.000  O
  O110     1.0000 0.82980  0.40660  0.45750  Biso   1.000  O
  O111     1.0000 0.32980  0.59340  0.04250  Biso   1.000  O
  O112     1.0000 0.17020  0.90660  0.04250  Biso   1.000  O
  O113     1.0000 0.43050  0.97950  0.33260  Biso   1.000  O
  O114     1.0000 0.06950  0.52050  0.33260  Biso   1.000  O
  O115     1.0000 0.56950  0.47950  0.16740  Biso   1.000  O
  O116     1.0000 0.93050  0.02050  0.16740  Biso   1.000  O
  O117     1.0000 0.56950  0.02050  0.66740  Biso   1.000  O
  O118     1.0000 0.93050  0.47950  0.66740  Biso   1.000  O
  O119     1.0000 0.43050  0.52050  0.83260  Biso   1.000  O
  O120     1.0000 0.06950  0.97950  0.83260  Biso   1.000  O
  O121     1.0000 0.51180  0.14160  0.36040  Biso   1.000  O
  O122     1.0000 0.98820  0.35840  0.36040  Biso   1.000  O
  O123     1.0000 0.48820  0.64160  0.13960  Biso   1.000  O
  O124     1.0000 0.01180  0.85840  0.13960  Biso   1.000  O
  O125     1.0000 0.48820  0.85840  0.63960  Biso   1.000  O
  O126     1.0000 0.01180  0.64160  0.63960  Biso   1.000  O
  O127     1.0000 0.51180  0.35840  0.86040  Biso   1.000  O
  O128     1.0000 0.98820  0.14160  0.86040  Biso   1.000  O
  O129     1.0000 0.30630  0.15130  0.40360  Biso   1.000  O
  O130     1.0000 0.19370  0.34870  0.40360  Biso   1.000  O
  O131     1.0000 0.69370  0.65130  0.09640  Biso   1.000  O
  O132     1.0000 0.80630  0.84870  0.09640  Biso   1.000  O
  O133     1.0000 0.69370  0.84870  0.59640  Biso   1.000  O
  O134     1.0000 0.80630  0.65130  0.59640  Biso   1.000  O
  O135     1.0000 0.30630  0.34870  0.90360  Biso   1.000  O
  O136     1.0000 0.19370  0.15130  0.90360  Biso   1.000  O
  O137     1.0000 0.64620  0.10600  0.33810  Biso   1.000  O
  O138     1.0000 0.85380  0.39400  0.33810  Biso   1.000  O
  O139     1.0000 0.35380  0.60600  0.16190  Biso   1.000  O
  O140     1.0000 0.14620  0.89400  0.16190  Biso   1.000  O
  O141     1.0000 0.35380  0.89400  0.66190  Biso   1.000  O
  O142     1.0000 0.14620  0.60600  0.66190  Biso   1.000  O
  O143     1.0000 0.64620  0.39400  0.83810  Biso   1.000  O
  O144     1.0000 0.85380  0.10600  0.83810  Biso   1.000  O
  O145     1.0000 0.65860  0.11480  0.67280  Biso   1.000  O
  O146     1.0000 0.84140  0.38520  0.67280  Biso   1.000  O
  O147     1.0000 0.34140  0.61480  0.82720  Biso   1.000  O
  O148     1.0000 0.15860  0.88520  0.82720  Biso   1.000  O
  O149     1.0000 0.34140  0.88520  0.32720  Biso   1.000  O
  O150     1.0000 0.15860  0.61480  0.32720  Biso   1.000  O
  O151     1.0000 0.65860  0.38520  0.17280  Biso   1.000  O
  O152     1.0000 0.84140  0.11480  0.17280  Biso   1.000  O
  O153     1.0000 0.57060  0.17130  0.58510  Biso   1.000  O
  O154     1.0000 0.92940  0.32870  0.58510  Biso   1.000  O
  O155     1.0000 0.42940  0.67130  0.91490  Biso   1.000  O
  O156     1.0000 0.07060  0.82870  0.91490  Biso   1.000  O
  O157     1.0000 0.42940  0.82870  0.41490  Biso   1.000  O
  O158     1.0000 0.07060  0.67130  0.41490  Biso   1.000  O
  O159     1.0000 0.57060  0.32870  0.08510  Biso   1.000  O
  O160     1.0000 0.92940  0.17130  0.08510  Biso   1.000  O
  O161     1.0000 0.40920  0.05880  0.70330  Biso   1.000  O
  O162     1.0000 0.09080  0.44120  0.70330  Biso   1.000  O
  O163     1.0000 0.59080  0.55880  0.79670  Biso   1.000  O
  O164     1.0000 0.90920  0.94120  0.79670  Biso   1.000  O
  O165     1.0000 0.59080  0.94120  0.29670  Biso   1.000  O
  O166     1.0000 0.90920  0.55880  0.29670  Biso   1.000  O
  O167     1.0000 0.40920  0.44120  0.20330  Biso   1.000  O
  O168     1.0000 0.09080  0.05880  0.20330  Biso   1.000  O
  O169     1.0000 0.53520  0.13110  0.48010  Biso   1.000  O
  O170     1.0000 0.96480  0.36890  0.48010  Biso   1.000  O
  O171     1.0000 0.46480  0.63110  0.01990  Biso   1.000  O
  O172     1.0000 0.03520  0.86890  0.01990  Biso   1.000  O
  O173     1.0000 0.46480  0.86890  0.51990  Biso   1.000  O
  O174     1.0000 0.03520  0.63110  0.51990  Biso   1.000  O
  O175     1.0000 0.53520  0.36890  0.98010  Biso   1.000  O
  O176     1.0000 0.96480  0.13110  0.98010  Biso   1.000  O
  O177     1.0000 0.40260  0.09930  0.28940  Biso   1.000  O
  O178     1.0000 0.09740  0.40070  0.28940  Biso   1.000  O
  O179     1.0000 0.59740  0.59930  0.21060  Biso   1.000  O
  O180     1.0000 0.90260  0.90070  0.21060  Biso   1.000  O
  O181     1.0000 0.59740  0.90070  0.71060  Biso   1.000  O
  O182     1.0000 0.90260  0.59930  0.71060  Biso   1.000  O
  O183     1.0000 0.40260  0.40070  0.78940  Biso   1.000  O
  O184     1.0000 0.09740  0.09930  0.78940  Biso   1.000  O
  O185     1.0000 0.23130  0.91260  0.44600  Biso   1.000  O
  O186     1.0000 0.26870  0.58740  0.44600  Biso   1.000  O
  O187     1.0000 0.76870  0.41260  0.05400  Biso   1.000  O
  O188     1.0000 0.73130  0.08740  0.05400  Biso   1.000  O
  O189     1.0000 0.76870  0.08740  0.55400  Biso   1.000  O
  O190     1.0000 0.73130  0.41260  0.55400  Biso   1.000  O
  O191     1.0000 0.23130  0.58740  0.94600  Biso   1.000  O
  O192     1.0000 0.26870  0.91260  0.94600  Biso   1.000  O
  O193     1.0000 0.66750  0.03500  0.23300  Biso   1.000  O
  O194     1.0000 0.83250  0.46500  0.23300  Biso   1.000  O
  O195     1.0000 0.33250  0.53500  0.26700  Biso   1.000  O
  O196     1.0000 0.16750  0.96500  0.26700  Biso   1.000  O
  O197     1.0000 0.33250  0.96500  0.76700  Biso   1.000  O
  O198     1.0000 0.16750  0.53500  0.76700  Biso   1.000  O
  O199     1.0000 0.66750  0.46500  0.73300  Biso   1.000  O
  O200     1.0000 0.83250  0.03500  0.73300  Biso   1.000  O
  O201     1.0000 0.26850  0.11400  0.51970  Biso   1.000  O
  O202     1.0000 0.23150  0.38600  0.51970  Biso   1.000  O
  O203     1.0000 0.73150  0.61400  0.98030  Biso   1.000  O
  O204     1.0000 0.76850  0.88600  0.98030  Biso   1.000  O
  O205     1.0000 0.73150  0.88600  0.48030  Biso   1.000  O
  O206     1.0000 0.76850  0.61400  0.48030  Biso   1.000  O
  O207     1.0000 0.26850  0.38600  0.01970  Biso   1.000  O
  O208     1.0000 0.23150  0.11400  0.01970  Biso   1.000  O
  O209     1.0000 0.44010  0.19700  0.61070  Biso   1.000  O
  O210     1.0000 0.05990  0.30300  0.61070  Biso   1.000  O
  O211     1.0000 0.55990  0.69700  0.88930  Biso   1.000  O
  O212     1.0000 0.94010  0.80300  0.88930  Biso   1.000  O
  O213     1.0000 0.55990  0.80300  0.38930  Biso   1.000  O
  O214     1.0000 0.94010  0.69700  0.38930  Biso   1.000  O
  O215     1.0000 0.44010  0.30300  0.11070  Biso   1.000  O
  O216     1.0000 0.05990  0.19700  0.11070  Biso   1.000  O
  O217     1.0000 0.40190  0.15170  0.49930  Biso   1.000  O
  O218     1.0000 0.09810  0.34830  0.49930  Biso   1.000  O
  O219     1.0000 0.59810  0.65170  0.00070  Biso   1.000  O
  O220     1.0000 0.90190  0.84830  0.00070  Biso   1.000  O
  O221     1.0000 0.59810  0.84830  0.50070  Biso   1.000  O
  O222     1.0000 0.90190  0.65170  0.50070  Biso   1.000  O
  O223     1.0000 0.40190  0.34830  0.99930  Biso   1.000  O
  O224     1.0000 0.09810  0.15170  0.99930  Biso   1.000  O
  O225     1.0000 0.50330  0.25020  0.51350  Biso   1.000  O
  O226     1.0000 0.99670  0.24980  0.51350  Biso   1.000  O
  O227     1.0000 0.49670  0.75020  0.98650  Biso   1.000  O
  O228     1.0000 0.00330  0.74980  0.98650  Biso   1.000  O
  O229     1.0000 0.49670  0.74980  0.48650  Biso   1.000  O
  O230     1.0000 0.00330  0.75020  0.48650  Biso   1.000  O
  O231     1.0000 0.50330  0.24980  0.01350  Biso   1.000  O
  O232     1.0000 0.99670  0.25020  0.01350  Biso   1.000  O
  O233     1.0000 0.30240  0.00590  0.64680  Biso   1.000  O
  O234     1.0000 0.19760  0.49410  0.64680  Biso   1.000  O
  O235     1.0000 0.69760  0.50590  0.85320  Biso   1.000  O
  O236     1.0000 0.80240  0.99410  0.85320  Biso   1.000  O
  O237     1.0000 0.69760  0.99410  0.35320  Biso   1.000  O
  O238     1.0000 0.80240  0.50590  0.35320  Biso   1.000  O
  O239     1.0000 0.30240  0.49410  0.14680  Biso   1.000  O
  O240     1.0000 0.19760  0.00590  0.14680  Biso   1.000  O
  O241     1.0000 0.37170  0.79330  0.59640  Biso   1.000  O
  O242     1.0000 0.12830  0.70670  0.59640  Biso   1.000  O
  O243     1.0000 0.62830  0.29330  0.90360  Biso   1.000  O
  O244     1.0000 0.87170  0.20670  0.90360  Biso   1.000  O
  O245     1.0000 0.62830  0.20670  0.40360  Biso   1.000  O
  O246     1.0000 0.87170  0.29330  0.40360  Biso   1.000  O
  O247     1.0000 0.37170  0.70670  0.09640  Biso   1.000  O
  O248     1.0000 0.12830  0.79330  0.09640  Biso   1.000  O
  O249     1.0000 0.39280  0.18500  0.72810  Biso   1.000  O
  O250     1.0000 0.10720  0.31500  0.72810  Biso   1.000  O
  O251     1.0000 0.60720  0.68500  0.77190  Biso   1.000  O
  O252     1.0000 0.89280  0.81500  0.77190  Biso   1.000  O
  O253     1.0000 0.60720  0.81500  0.27190  Biso   1.000  O
  O254     1.0000 0.89280  0.68500  0.27190  Biso   1.000  O
  O255     1.0000 0.39280  0.31500  0.22810  Biso   1.000  O
  O256     1.0000 0.10720  0.18500  0.22810  Biso   1.000  O
  N1       1.0000 0.25000  0.25000  0.48120  Biso   1.000  N
  N2       1.0000 0.75000  0.75000  0.01880  Biso   1.000  N
  N3       1.0000 0.75000  0.75000  0.51880  Biso   1.000  N
  N4       1.0000 0.25000  0.25000  0.98120  Biso   1.000  N
  N5       1.0000 0.25000  0.25000  0.79820  Biso   1.000  N
  N6       1.0000 0.75000  0.75000  0.70180  Biso   1.000  N
  N7       1.0000 0.75000  0.75000  0.20180  Biso   1.000  N
  N8       1.0000 0.25000  0.25000  0.29820  Biso   1.000  N
  N9       1.0000 0.15510  0.20460  0.38260  Biso   1.000  N
  N10      1.0000 0.34490  0.29540  0.38260  Biso   1.000  N
  N11      1.0000 0.84490  0.70460  0.11740  Biso   1.000  N
  N12      1.0000 0.65510  0.79540  0.11740  Biso   1.000  N
  N13      1.0000 0.84490  0.79540  0.61740  Biso   1.000  N
  N14      1.0000 0.65510  0.70460  0.61740  Biso   1.000  N
  N15      1.0000 0.15510  0.29540  0.88260  Biso   1.000  N
  N16      1.0000 0.34490  0.20460  0.88260  Biso   1.000  N
  N17      1.0000 0.83500  0.06100  0.34400  Biso   1.000  N
  N18      1.0000 0.66500  0.43900  0.34400  Biso   1.000  N
  N19      1.0000 0.16500  0.56100  0.15600  Biso   1.000  N
  N20      1.0000 0.33500  0.93900  0.15600  Biso   1.000  N
  N21      1.0000 0.16500  0.93900  0.65600  Biso   1.000  N
  N22      1.0000 0.33500  0.56100  0.65600  Biso   1.000  N
  N23      1.0000 0.83500  0.43900  0.84400  Biso   1.000  N
  N24      1.0000 0.66500  0.06100  0.84400  Biso   1.000  N
  H1       1.0000 0.79470  0.04250  0.34130  Biso   1.000  H
  H2       1.0000 0.70530  0.45750  0.34130  Biso   1.000  H
  H3       1.0000 0.20530  0.54250  0.15870  Biso   1.000  H
  H4       1.0000 0.29470  0.95750  0.15870  Biso   1.000  H
  H5       1.0000 0.20530  0.95750  0.65870  Biso   1.000  H
  H6       1.0000 0.29470  0.54250  0.65870  Biso   1.000  H
  H7       1.0000 0.79470  0.45750  0.84130  Biso   1.000  H
  H8       1.0000 0.70530  0.04250  0.84130  Biso   1.000  H
  C1       1.0000 0.30870  0.26580  0.51210  Biso   1.000  C
  C2       1.0000 0.19130  0.23420  0.51210  Biso   1.000  C
  C3       1.0000 0.69130  0.76580  0.98790  Biso   1.000  C
  C4       1.0000 0.80870  0.73420  0.98790  Biso   1.000  C
  C5       1.0000 0.69130  0.73420  0.48790  Biso   1.000  C
  C6       1.0000 0.80870  0.76580  0.48790  Biso   1.000  C
  C7       1.0000 0.30870  0.23420  0.01210  Biso   1.000  C
  C8       1.0000 0.19130  0.26580  0.01210  Biso   1.000  C
  H9       1.0000 0.35030  0.27270  0.49080  Biso   1.000  H
  H10      1.0000 0.14970  0.22730  0.49080  Biso   1.000  H
  H11      1.0000 0.64970  0.77270  0.00920  Biso   1.000  H
  H12      1.0000 0.85030  0.72730  0.00920  Biso   1.000  H
  H13      1.0000 0.64970  0.72730  0.50920  Biso   1.000  H
  H14      1.0000 0.85030  0.77270  0.50920  Biso   1.000  H
  H15      1.0000 0.35030  0.22730  0.99080  Biso   1.000  H
  H16      1.0000 0.14970  0.27270  0.99080  Biso   1.000  H
  C9       1.0000 0.30840  0.27200  0.57560  Biso   1.000  C
  C10      1.0000 0.19160  0.22800  0.57560  Biso   1.000  C
  C11      1.0000 0.69160  0.77200  0.92440  Biso   1.000  C
  C12      1.0000 0.80840  0.72800  0.92440  Biso   1.000  C
  C13      1.0000 0.69160  0.72800  0.42440  Biso   1.000  C
  C14      1.0000 0.80840  0.77200  0.42440  Biso   1.000  C
  C15      1.0000 0.30840  0.22800  0.07560  Biso   1.000  C
  C16      1.0000 0.19160  0.27200  0.07560  Biso   1.000  C
  H17      1.0000 0.34660  0.29080  0.59430  Biso   1.000  H
  H18      1.0000 0.15340  0.20920  0.59430  Biso   1.000  H
  H19      1.0000 0.65340  0.79080  0.90570  Biso   1.000  H
  H20      1.0000 0.84660  0.70920  0.90570  Biso   1.000  H
  H21      1.0000 0.65340  0.70920  0.40570  Biso   1.000  H
  H22      1.0000 0.84660  0.79080  0.40570  Biso   1.000  H
  H23      1.0000 0.34660  0.20920  0.09430  Biso   1.000  H
  H24      1.0000 0.15340  0.29080  0.09430  Biso   1.000  H
  C17      1.0000 0.25000  0.25000  0.61400  Biso   1.000  C
  C18      1.0000 0.75000  0.75000  0.88600  Biso   1.000  C
  C19      1.0000 0.75000  0.75000  0.38600  Biso   1.000  C
  C20      1.0000 0.25000  0.25000  0.11400  Biso   1.000  C
  C21      1.0000 0.27900  0.29600  0.76940  Biso   1.000  C
  C22      1.0000 0.22100  0.20400  0.76940  Biso   1.000  C
  C23      1.0000 0.72100  0.79600  0.73060  Biso   1.000  C
  C24      1.0000 0.77900  0.70400  0.73060  Biso   1.000  C
  C25      1.0000 0.72100  0.70400  0.23060  Biso   1.000  C
  C26      1.0000 0.77900  0.79600  0.23060  Biso   1.000  C
  C27      1.0000 0.27900  0.20400  0.26940  Biso   1.000  C
  C28      1.0000 0.22100  0.29600  0.26940  Biso   1.000  C
  H25      1.0000 0.29860  0.32830  0.79150  Biso   1.000  H
  H26      1.0000 0.20140  0.17170  0.79150  Biso   1.000  H
  H27      1.0000 0.70140  0.82830  0.70850  Biso   1.000  H
  H28      1.0000 0.79860  0.67170  0.70850  Biso   1.000  H
  H29      1.0000 0.70140  0.67170  0.20850  Biso   1.000  H
  H30      1.0000 0.79860  0.82830  0.20850  Biso   1.000  H
  H31      1.0000 0.29860  0.17170  0.29150  Biso   1.000  H
  H32      1.0000 0.20140  0.32830  0.29150  Biso   1.000  H
  C29      1.0000 0.28050  0.29750  0.70600  Biso   1.000  C
  C30      1.0000 0.21950  0.20250  0.70600  Biso   1.000  C
  C31      1.0000 0.71950  0.79750  0.79400  Biso   1.000  C
  C32      1.0000 0.78050  0.70250  0.79400  Biso   1.000  C
  C33      1.0000 0.71950  0.70250  0.29400  Biso   1.000  C
  C34      1.0000 0.78050  0.79750  0.29400  Biso   1.000  C
  C35      1.0000 0.28050  0.20250  0.20600  Biso   1.000  C
  C36      1.0000 0.21950  0.29750  0.20600  Biso   1.000  C
  H33      1.0000 0.30170  0.32960  0.68510  Biso   1.000  H
  H34      1.0000 0.19830  0.17040  0.68510  Biso   1.000  H
  H35      1.0000 0.69830  0.82960  0.81490  Biso   1.000  H
  H36      1.0000 0.80170  0.67040  0.81490  Biso   1.000  H
  H37      1.0000 0.69830  0.67040  0.31490  Biso   1.000  H
  H38      1.0000 0.80170  0.82960  0.31490  Biso   1.000  H
  H39      1.0000 0.30170  0.17040  0.18510  Biso   1.000  H
  H40      1.0000 0.19830  0.32960  0.18510  Biso   1.000  H
  C37      1.0000 0.25000  0.25000  0.67600  Biso   1.000  C
  C38      1.0000 0.75000  0.75000  0.82400  Biso   1.000  C
  C39      1.0000 0.75000  0.75000  0.32400  Biso   1.000  C
  C40      1.0000 0.25000  0.25000  0.17600  Biso   1.000  C
  C41      1.0000 0.09500  0.23790  0.37950  Biso   1.000  C
  C42      1.0000 0.40500  0.26210  0.37950  Biso   1.000  C
  C43      1.0000 0.90500  0.73790  0.12050  Biso   1.000  C
  C44      1.0000 0.59500  0.76210  0.12050  Biso   1.000  C
  C45      1.0000 0.90500  0.76210  0.62050  Biso   1.000  C
  C46      1.0000 0.59500  0.73790  0.62050  Biso   1.000  C
  C47      1.0000 0.09500  0.26210  0.87950  Biso   1.000  C
  C48      1.0000 0.40500  0.23790  0.87950  Biso   1.000  C
  H41      1.0000 0.09730  0.28020  0.38420  Biso   1.000  H
  H42      1.0000 0.40270  0.21980  0.38420  Biso   1.000  H
  H43      1.0000 0.90270  0.78020  0.11580  Biso   1.000  H
  H44      1.0000 0.59730  0.71980  0.11580  Biso   1.000  H
  H45      1.0000 0.90270  0.71980  0.61580  Biso   1.000  H
  H46      1.0000 0.59730  0.78020  0.61580  Biso   1.000  H
  H47      1.0000 0.09730  0.21980  0.88420  Biso   1.000  H
  H48      1.0000 0.40270  0.28020  0.88420  Biso   1.000  H
  C49      1.0000 0.02570  0.20810  0.36880  Biso   1.000  C
  C50      1.0000 0.47430  0.29190  0.36880  Biso   1.000  C
  C51      1.0000 0.97430  0.70810  0.13120  Biso   1.000  C
  C52      1.0000 0.52570  0.79190  0.13120  Biso   1.000  C
  C53      1.0000 0.97430  0.79190  0.63120  Biso   1.000  C
  C54      1.0000 0.52570  0.70810  0.63120  Biso   1.000  C
  C55      1.0000 0.02570  0.29190  0.86880  Biso   1.000  C
  C56      1.0000 0.47430  0.20810  0.86880  Biso   1.000  C
  H49      1.0000 0.98380  0.23000  0.36710  Biso   1.000  H
  H50      1.0000 0.51620  0.27000  0.36710  Biso   1.000  H
  H51      1.0000 0.01620  0.73000  0.13290  Biso   1.000  H
  H52      1.0000 0.48380  0.77000  0.13290  Biso   1.000  H
  H53      1.0000 0.01620  0.77000  0.63290  Biso   1.000  H
  H54      1.0000 0.48380  0.73000  0.63290  Biso   1.000  H
  H55      1.0000 0.98380  0.27000  0.86710  Biso   1.000  H
  H56      1.0000 0.51620  0.23000  0.86710  Biso   1.000  H
  C57      1.0000 0.15000  0.13900  0.37290  Biso   1.000  C
  C58      1.0000 0.35000  0.36100  0.37290  Biso   1.000  C
  C59      1.0000 0.85000  0.63900  0.12710  Biso   1.000  C
  C60      1.0000 0.65000  0.86100  0.12710  Biso   1.000  C
  C61      1.0000 0.85000  0.86100  0.62710  Biso   1.000  C
  C62      1.0000 0.65000  0.63900  0.62710  Biso   1.000  C
  C63      1.0000 0.15000  0.36100  0.87290  Biso   1.000  C
  C64      1.0000 0.35000  0.13900  0.87290  Biso   1.000  C
  H57      1.0000 0.19080  0.11510  0.37270  Biso   1.000  H
  H58      1.0000 0.30920  0.38490  0.37270  Biso   1.000  H
  H59      1.0000 0.80920  0.61510  0.12730  Biso   1.000  H
  H60      1.0000 0.69080  0.88490  0.12730  Biso   1.000  H
  H61      1.0000 0.80920  0.88490  0.62730  Biso   1.000  H
  H62      1.0000 0.69080  0.61510  0.62730  Biso   1.000  H
  H63      1.0000 0.19080  0.38490  0.87270  Biso   1.000  H
  H64      1.0000 0.30920  0.11510  0.87270  Biso   1.000  H
  C65      1.0000 0.08600  0.11240  0.36400  Biso   1.000  C
  C66      1.0000 0.41400  0.38760  0.36400  Biso   1.000  C
  C67      1.0000 0.91400  0.61240  0.13600  Biso   1.000  C
  C68      1.0000 0.58600  0.88760  0.13600  Biso   1.000  C
  C69      1.0000 0.91400  0.88760  0.63600  Biso   1.000  C
  C70      1.0000 0.58600  0.61240  0.63600  Biso   1.000  C
  C71      1.0000 0.08600  0.38760  0.86400  Biso   1.000  C
  C72      1.0000 0.41400  0.11240  0.86400  Biso   1.000  C
  H65      1.0000 0.08320  0.07020  0.35970  Biso   1.000  H
  H66      1.0000 0.41680  0.42980  0.35970  Biso   1.000  H
  H67      1.0000 0.91680  0.57020  0.14030  Biso   1.000  H
  H68      1.0000 0.58320  0.92980  0.14030  Biso   1.000  H
  H69      1.0000 0.91680  0.92980  0.64030  Biso   1.000  H
  H70      1.0000 0.58320  0.57020  0.64030  Biso   1.000  H
  H71      1.0000 0.08320  0.42980  0.85970  Biso   1.000  H
  H72      1.0000 0.41680  0.07020  0.85970  Biso   1.000  H
  C73      1.0000 0.02810  0.14530  0.36150  Biso   1.000  C
  C74      1.0000 0.47190  0.35470  0.36150  Biso   1.000  C
  C75      1.0000 0.97190  0.64530  0.13850  Biso   1.000  C
  C76      1.0000 0.52810  0.85470  0.13850  Biso   1.000  C
  C77      1.0000 0.97190  0.85470  0.63850  Biso   1.000  C
  C78      1.0000 0.52810  0.64530  0.63850  Biso   1.000  C
  C79      1.0000 0.02810  0.35470  0.86150  Biso   1.000  C
  C80      1.0000 0.47190  0.14530  0.86150  Biso   1.000  C
  C81      1.0000 0.95300  0.11810  0.35600  Biso   1.000  C
  C82      1.0000 0.54700  0.38190  0.35600  Biso   1.000  C
  C83      1.0000 0.04700  0.61810  0.14400  Biso   1.000  C
  C84      1.0000 0.45300  0.88190  0.14400  Biso   1.000  C
  C85      1.0000 0.04700  0.88190  0.64400  Biso   1.000  C
  C86      1.0000 0.45300  0.61810  0.64400  Biso   1.000  C
  C87      1.0000 0.95300  0.38190  0.85600  Biso   1.000  C
  C88      1.0000 0.54700  0.11810  0.85600  Biso   1.000  C
  C89      1.0000 0.89400  0.13100  0.39100  Biso   1.000  C
  C90      1.0000 0.60600  0.36900  0.39100  Biso   1.000  C
  C91      1.0000 0.10600  0.63100  0.10900  Biso   1.000  C
  C92      1.0000 0.39400  0.86900  0.10900  Biso   1.000  C
  C93      1.0000 0.10600  0.86900  0.60900  Biso   1.000  C
  C94      1.0000 0.39400  0.63100  0.60900  Biso   1.000  C
  C95      1.0000 0.89400  0.36900  0.89100  Biso   1.000  C
  C96      1.0000 0.60600  0.13100  0.89100  Biso   1.000  C
  H73      1.0000 0.90090  0.15700  0.42420  Biso   1.000  H
  H74      1.0000 0.59910  0.34300  0.42420  Biso   1.000  H
  H75      1.0000 0.09910  0.65700  0.07580  Biso   1.000  H
  H76      1.0000 0.40090  0.84300  0.07580  Biso   1.000  H
  H77      1.0000 0.09910  0.84300  0.57580  Biso   1.000  H
  H78      1.0000 0.40090  0.65700  0.57580  Biso   1.000  H
  H79      1.0000 0.90090  0.34300  0.92420  Biso   1.000  H
  H80      1.0000 0.59910  0.15700  0.92420  Biso   1.000  H
  C97      1.0000 0.82700  0.11000  0.38200  Biso   1.000  C
  C98      1.0000 0.67300  0.39000  0.38200  Biso   1.000  C
  C99      1.0000 0.17300  0.61000  0.11800  Biso   1.000  C
  C100     1.0000 0.32700  0.89000  0.11800  Biso   1.000  C
  C101     1.0000 0.17300  0.89000  0.61800  Biso   1.000  C
  C102     1.0000 0.32700  0.61000  0.61800  Biso   1.000  C
  C103     1.0000 0.82700  0.39000  0.88200  Biso   1.000  C
  C104     1.0000 0.67300  0.11000  0.88200  Biso   1.000  C
  H81      1.0000 0.78560  0.12620  0.39800  Biso   1.000  H
  H82      1.0000 0.71440  0.37380  0.39800  Biso   1.000  H
  H83      1.0000 0.21440  0.62620  0.10200  Biso   1.000  H
  H84      1.0000 0.28560  0.87380  0.10200  Biso   1.000  H
  H85      1.0000 0.21440  0.87380  0.60200  Biso   1.000  H
  H86      1.0000 0.28560  0.62620  0.60200  Biso   1.000  H
  H87      1.0000 0.78560  0.37380  0.89800  Biso   1.000  H
  H88      1.0000 0.71440  0.12620  0.89800  Biso   1.000  H
  C105     1.0000 0.94500  0.06400  0.31800  Biso   1.000  C
  C106     1.0000 0.55500  0.43600  0.31800  Biso   1.000  C
  C107     1.0000 0.05500  0.56400  0.18200  Biso   1.000  C
  C108     1.0000 0.44500  0.93600  0.18200  Biso   1.000  C
  C109     1.0000 0.05500  0.93600  0.68200  Biso   1.000  C
  C110     1.0000 0.44500  0.56400  0.68200  Biso   1.000  C
  C111     1.0000 0.94500  0.43600  0.81800  Biso   1.000  C
  C112     1.0000 0.55500  0.06400  0.81800  Biso   1.000  C
  H89      1.0000 0.98430  0.04890  0.29770  Biso   1.000  H
  H90      1.0000 0.51570  0.45110  0.29770  Biso   1.000  H
  H91      1.0000 0.01570  0.54890  0.20230  Biso   1.000  H
  H92      1.0000 0.48430  0.95110  0.20230  Biso   1.000  H
  H93      1.0000 0.01570  0.95110  0.70230  Biso   1.000  H
  H94      1.0000 0.48430  0.54890  0.70230  Biso   1.000  H
  H95      1.0000 0.98430  0.45110  0.79770  Biso   1.000  H
  H96      1.0000 0.51570  0.04890  0.79770  Biso   1.000  H
  C113     1.0000 0.87900  0.03300  0.31260  Biso   1.000  C
  C114     1.0000 0.62100  0.46700  0.31260  Biso   1.000  C
  C115     1.0000 0.12100  0.53300  0.18740  Biso   1.000  C
  C116     1.0000 0.37900  0.96700  0.18740  Biso   1.000  C
  C117     1.0000 0.12100  0.96700  0.68740  Biso   1.000  C
  C118     1.0000 0.37900  0.53300  0.68740  Biso   1.000  C
  C119     1.0000 0.87900  0.46700  0.81260  Biso   1.000  C
  C120     1.0000 0.62100  0.03300  0.81260  Biso   1.000  C
  H97      1.0000 0.87090  0.99840  0.28930  Biso   1.000  H
  H98      1.0000 0.62910  0.50160  0.28930  Biso   1.000  H
  H99      1.0000 0.12910  0.49840  0.21070  Biso   1.000  H
  H100     1.0000 0.37090  0.00160  0.21070  Biso   1.000  H
  H101     1.0000 0.12910  0.00160  0.71070  Biso   1.000  H
  H102     1.0000 0.37090  0.49840  0.71070  Biso   1.000  H
  H103     1.0000 0.87090  0.50160  0.78930  Biso   1.000  H
  H104     1.0000 0.62910  0.99840  0.78930  Biso   1.000  H
  N25      1.0000 0.55700  0.29700  0.69900  Biso   1.000  N
  N26      1.0000 0.94300  0.20300  0.69900  Biso   1.000  N
  N27      1.0000 0.44300  0.79700  0.80100  Biso   1.000  N
  N28      1.0000 0.05700  0.70300  0.80100  Biso   1.000  N
  N29      1.0000 0.44300  0.70300  0.30100  Biso   1.000  N
  N30      1.0000 0.05700  0.79700  0.30100  Biso   1.000  N
  N31      1.0000 0.55700  0.20300  0.19900  Biso   1.000  N
  N32      1.0000 0.94300  0.29700  0.19900  Biso   1.000  N
  N33      1.0000 0.51700  0.43900  0.55400  Biso   1.000  N
  N34      1.0000 0.98300  0.06100  0.55400  Biso   1.000  N
  N35      1.0000 0.48300  0.93900  0.94600  Biso   1.000  N
  N36      1.0000 0.01700  0.56100  0.94600  Biso   1.000  N
  N37      1.0000 0.48300  0.56100  0.44600  Biso   1.000  N
  N38      1.0000 0.01700  0.93900  0.44600  Biso   1.000  N
  N39      1.0000 0.51700  0.06100  0.05400  Biso   1.000  N
  N40      1.0000 0.98300  0.43900  0.05400  Biso   1.000  N
  C121     1.0000 0.45200  0.46600  0.52700  Biso   1.000  C
  C122     1.0000 0.04800  0.03400  0.52700  Biso   1.000  C
  C123     1.0000 0.54800  0.96600  0.97300  Biso   1.000  C
  C124     1.0000 0.95200  0.53400  0.97300  Biso   1.000  C
  C125     1.0000 0.54800  0.53400  0.47300  Biso   1.000  C
  C126     1.0000 0.95200  0.96600  0.47300  Biso   1.000  C
  C127     1.0000 0.45200  0.03400  0.02700  Biso   1.000  C
  C128     1.0000 0.04800  0.46600  0.02700  Biso   1.000  C
  C129     1.0000 0.57000  0.48200  0.52900  Biso   1.000  C
  C130     1.0000 0.93000  0.01800  0.52900  Biso   1.000  C
  C131     1.0000 0.43000  0.98200  0.97100  Biso   1.000  C
  C132     1.0000 0.07000  0.51800  0.97100  Biso   1.000  C
  C133     1.0000 0.43000  0.51800  0.47100  Biso   1.000  C
  C134     1.0000 0.07000  0.98200  0.47100  Biso   1.000  C
  C135     1.0000 0.57000  0.01800  0.02900  Biso   1.000  C
  C136     1.0000 0.93000  0.48200  0.02900  Biso   1.000  C
  C137     1.0000 0.53000  0.39000  0.60300  Biso   1.000  C
  C138     1.0000 0.97000  0.11000  0.60300  Biso   1.000  C
  C139     1.0000 0.47000  0.89000  0.89700  Biso   1.000  C
  C140     1.0000 0.03000  0.61000  0.89700  Biso   1.000  C
  C141     1.0000 0.47000  0.61000  0.39700  Biso   1.000  C
  C142     1.0000 0.03000  0.89000  0.39700  Biso   1.000  C
  C143     1.0000 0.53000  0.11000  0.10300  Biso   1.000  C
  C144     1.0000 0.97000  0.39000  0.10300  Biso   1.000  C
  C145     1.0000 0.49200  0.32300  0.69500  Biso   1.000  C
  C146     1.0000 0.00800  0.17700  0.69500  Biso   1.000  C
  C147     1.0000 0.50800  0.82300  0.80500  Biso   1.000  C
  C148     1.0000 0.99200  0.67700  0.80500  Biso   1.000  C
  C149     1.0000 0.50800  0.67700  0.30500  Biso   1.000  C
  C150     1.0000 0.99200  0.82300  0.30500  Biso   1.000  C
  C151     1.0000 0.49200  0.17700  0.19500  Biso   1.000  C
  C152     1.0000 0.00800  0.32300  0.19500  Biso   1.000  C
  C153     1.0000 0.47900  0.36700  0.64900  Biso   1.000  C
  C154     1.0000 0.02100  0.13300  0.64900  Biso   1.000  C
  C155     1.0000 0.52100  0.86700  0.85100  Biso   1.000  C
  C156     1.0000 0.97900  0.63300  0.85100  Biso   1.000  C
  C157     1.0000 0.52100  0.63300  0.35100  Biso   1.000  C
  C158     1.0000 0.97900  0.86700  0.35100  Biso   1.000  C
  C159     1.0000 0.47900  0.13300  0.14900  Biso   1.000  C
  C160     1.0000 0.02100  0.36700  0.14900  Biso   1.000  C
  C161     1.0000 0.61000  0.31300  0.66100  Biso   1.000  C
  C162     1.0000 0.89000  0.18700  0.66100  Biso   1.000  C
  C163     1.0000 0.39000  0.81300  0.83900  Biso   1.000  C
  C164     1.0000 0.11000  0.68700  0.83900  Biso   1.000  C
  C165     1.0000 0.39000  0.68700  0.33900  Biso   1.000  C
  C166     1.0000 0.11000  0.81300  0.33900  Biso   1.000  C
  C167     1.0000 0.61000  0.18700  0.16100  Biso   1.000  C
  C168     1.0000 0.89000  0.31300  0.16100  Biso   1.000  C
  C169     1.0000 0.59700  0.35600  0.61400  Biso   1.000  C
  C170     1.0000 0.90300  0.14400  0.61400  Biso   1.000  C
  C171     1.0000 0.40300  0.85600  0.88600  Biso   1.000  C
  C172     1.0000 0.09700  0.64400  0.88600  Biso   1.000  C
  C173     1.0000 0.40300  0.64400  0.38600  Biso   1.000  C
  C174     1.0000 0.09700  0.85600  0.38600  Biso   1.000  C
  C175     1.0000 0.59700  0.14400  0.11400  Biso   1.000  C
  C176     1.0000 0.90300  0.35600  0.11400  Biso   1.000  C
