data_image0
_cell_length_a       18.345
_cell_length_b       18.345
_cell_length_c       22.0782
_cell_angle_alpha    90
_cell_angle_beta     90
_cell_angle_gamma    120

_symmetry_space_group_name_H-M    "P 1"
_symmetry_int_tables_number       1

loop_
  _symmetry_equiv_pos_as_xyz
  'x, y, z'

loop_
  _atom_site_label
  _atom_site_occupancy
  _atom_site_fract_x
  _atom_site_fract_y
  _atom_site_fract_z
  _atom_site_thermal_displace_type
  _atom_site_B_iso_or_equiv
  _atom_site_type_symbol
  Cu1      1.0000 0.33330  0.16670  0.66670  Biso   1.000  Cu
  Cu2      1.0000 0.83330  0.16660  0.66670  Biso   1.000  Cu
  Cu3      1.0000 0.83340  0.66670  0.66670  Biso   1.000  Cu
  Cu4      1.0000 0.66663  0.50003  0.00003  Biso   1.000  Cu
  Cu5      1.0000 0.16663  0.49993  0.00003  Biso   1.000  Cu
  Cu6      1.0000 0.16673  0.00003  0.00003  Biso   1.000  Cu
  Cu7      1.0000 0.50003  0.16673  0.66663  Biso   1.000  Cu
  Cu8      1.0000 0.49993  0.66663  0.66663  Biso   1.000  Cu
  Cu9      1.0000 0.66670  0.83330  0.33330  Biso   1.000  Cu
  Cu10     1.0000 0.16670  0.83340  0.33330  Biso   1.000  Cu
  Cu11     1.0000 0.16660  0.33330  0.33330  Biso   1.000  Cu
  Cu12     1.0000 0.00003  0.16663  0.66663  Biso   1.000  Cu
  N1       1.0000 0.33600  0.27390  0.66489  Biso   1.000  N
  N2       1.0000 0.72610  0.06210  0.66489  Biso   1.000  N
  N3       1.0000 0.93790  0.66400  0.66489  Biso   1.000  N
  N4       1.0000 0.66933  0.60723  0.99822  Biso   1.000  N
  N5       1.0000 0.05943  0.39543  0.99822  Biso   1.000  N
  N6       1.0000 0.27123  0.99733  0.99822  Biso   1.000  N
  N7       1.0000 0.60723  0.27123  0.66844  Biso   1.000  N
  N8       1.0000 0.39543  0.66933  0.66844  Biso   1.000  N
  N9       1.0000 0.66400  0.72610  0.33511  Biso   1.000  N
  N10      1.0000 0.27390  0.93790  0.33511  Biso   1.000  N
  N11      1.0000 0.06210  0.33600  0.33511  Biso   1.000  N
  N12      1.0000 0.99733  0.05943  0.66844  Biso   1.000  N
  H1       1.0000 0.30050  0.27700  0.68650  Biso   1.000  H
  H2       1.0000 0.72300  0.02350  0.68650  Biso   1.000  H
  H3       1.0000 0.97650  0.69950  0.68650  Biso   1.000  H
  H4       1.0000 0.63383  0.61033  0.01983  Biso   1.000  H
  H5       1.0000 0.05633  0.35683  0.01983  Biso   1.000  H
  H6       1.0000 0.30983  0.03283  0.01983  Biso   1.000  H
  H7       1.0000 0.61033  0.30983  0.64683  Biso   1.000  H
  H8       1.0000 0.35683  0.63383  0.64683  Biso   1.000  H
  H9       1.0000 0.69950  0.72300  0.31350  Biso   1.000  H
  H10      1.0000 0.27700  0.97650  0.31350  Biso   1.000  H
  H11      1.0000 0.02350  0.30050  0.31350  Biso   1.000  H
  H12      1.0000 0.03283  0.05633  0.64683  Biso   1.000  H
  S1       1.0000 0.41913  0.36340  0.65612  Biso   1.000  S
  S2       1.0000 0.63660  0.05573  0.65612  Biso   1.000  S
  S3       1.0000 0.94427  0.58087  0.65612  Biso   1.000  S
  S4       1.0000 0.75246  0.69673  0.98945  Biso   1.000  S
  S5       1.0000 0.96993  0.38906  0.98945  Biso   1.000  S
  S6       1.0000 0.27760  0.91420  0.98945  Biso   1.000  S
  S7       1.0000 0.69673  0.27760  0.67721  Biso   1.000  S
  S8       1.0000 0.38906  0.75246  0.67721  Biso   1.000  S
  S9       1.0000 0.58087  0.63660  0.34388  Biso   1.000  S
  S10      1.0000 0.36340  0.94427  0.34388  Biso   1.000  S
  S11      1.0000 0.05573  0.41913  0.34388  Biso   1.000  S
  S12      1.0000 0.91420  0.96993  0.67721  Biso   1.000  S
  C1       1.0000 0.38965  0.43358  0.62142  Biso   1.000  C
  C2       1.0000 0.56642  0.95607  0.62142  Biso   1.000  C
  C3       1.0000 0.04393  0.61035  0.62142  Biso   1.000  C
  C4       1.0000 0.72298  0.76691  0.95475  Biso   1.000  C
  C5       1.0000 0.89975  0.28940  0.95475  Biso   1.000  C
  C6       1.0000 0.37726  0.94368  0.95475  Biso   1.000  C
  C7       1.0000 0.76691  0.37726  0.71191  Biso   1.000  C
  C8       1.0000 0.28940  0.72298  0.71191  Biso   1.000  C
  C9       1.0000 0.61035  0.56642  0.37858  Biso   1.000  C
  C10      1.0000 0.43358  0.04393  0.37858  Biso   1.000  C
  C11      1.0000 0.95607  0.38965  0.37858  Biso   1.000  C
  C12      1.0000 0.94368  0.89975  0.71191  Biso   1.000  C
  C13      1.0000 0.44377  0.48802  0.57745  Biso   1.000  C
  C14      1.0000 0.51198  0.95575  0.57745  Biso   1.000  C
  C15      1.0000 0.04425  0.55623  0.57745  Biso   1.000  C
  C16      1.0000 0.77710  0.82135  0.91078  Biso   1.000  C
  C17      1.0000 0.84531  0.28908  0.91078  Biso   1.000  C
  C18      1.0000 0.37758  0.88956  0.91078  Biso   1.000  C
  C19      1.0000 0.82135  0.37758  0.75588  Biso   1.000  C
  C20      1.0000 0.28908  0.77710  0.75588  Biso   1.000  C
  C21      1.0000 0.55623  0.51198  0.42255  Biso   1.000  C
  C22      1.0000 0.48802  0.04425  0.42255  Biso   1.000  C
  C23      1.0000 0.95575  0.44377  0.42255  Biso   1.000  C
  C24      1.0000 0.88956  0.84531  0.75588  Biso   1.000  C
  H13      1.0000 0.49400  0.48790  0.56710  Biso   1.000  H
  H14      1.0000 0.51210  0.00610  0.56710  Biso   1.000  H
  H15      1.0000 0.99390  0.50600  0.56710  Biso   1.000  H
  H16      1.0000 0.82733  0.82123  0.90043  Biso   1.000  H
  H17      1.0000 0.84543  0.33943  0.90043  Biso   1.000  H
  H18      1.0000 0.32723  0.83933  0.90043  Biso   1.000  H
  H19      1.0000 0.82123  0.32723  0.76623  Biso   1.000  H
  H20      1.0000 0.33943  0.82733  0.76623  Biso   1.000  H
  H21      1.0000 0.50600  0.51210  0.43290  Biso   1.000  H
  H22      1.0000 0.48790  0.99390  0.43290  Biso   1.000  H
  H23      1.0000 0.00610  0.49400  0.43290  Biso   1.000  H
  H24      1.0000 0.83933  0.84543  0.76623  Biso   1.000  H
  C25      1.0000 0.42285  0.54252  0.54892  Biso   1.000  C
  C26      1.0000 0.45748  0.88033  0.54892  Biso   1.000  C
  C27      1.0000 0.11967  0.57715  0.54892  Biso   1.000  C
  C28      1.0000 0.75618  0.87585  0.88225  Biso   1.000  C
  C29      1.0000 0.79081  0.21366  0.88225  Biso   1.000  C
  C30      1.0000 0.45300  0.91048  0.88225  Biso   1.000  C
  C31      1.0000 0.87585  0.45300  0.78441  Biso   1.000  C
  C32      1.0000 0.21366  0.75618  0.78441  Biso   1.000  C
  C33      1.0000 0.57715  0.45748  0.45108  Biso   1.000  C
  C34      1.0000 0.54252  0.11967  0.45108  Biso   1.000  C
  C35      1.0000 0.88033  0.42285  0.45108  Biso   1.000  C
  C36      1.0000 0.91048  0.79081  0.78441  Biso   1.000  C
  H25      1.0000 0.45900  0.58000  0.51870  Biso   1.000  H
  H26      1.0000 0.42000  0.87900  0.51870  Biso   1.000  H
  H27      1.0000 0.12100  0.54100  0.51870  Biso   1.000  H
  H28      1.0000 0.79233  0.91333  0.85203  Biso   1.000  H
  H29      1.0000 0.75333  0.21233  0.85203  Biso   1.000  H
  H30      1.0000 0.45433  0.87433  0.85203  Biso   1.000  H
  H31      1.0000 0.91333  0.45433  0.81463  Biso   1.000  H
  H32      1.0000 0.21233  0.79233  0.81463  Biso   1.000  H
  H33      1.0000 0.54100  0.42000  0.48130  Biso   1.000  H
  H34      1.0000 0.58000  0.12100  0.48130  Biso   1.000  H
  H35      1.0000 0.87900  0.45900  0.48130  Biso   1.000  H
  H36      1.0000 0.87433  0.75333  0.81463  Biso   1.000  H
  C37      1.0000 0.34958  0.54261  0.56428  Biso   1.000  C
  C38      1.0000 0.45739  0.80697  0.56428  Biso   1.000  C
  C39      1.0000 0.19303  0.65042  0.56428  Biso   1.000  C
  C40      1.0000 0.68291  0.87594  0.89761  Biso   1.000  C
  C41      1.0000 0.79072  0.14030  0.89761  Biso   1.000  C
  C42      1.0000 0.52636  0.98375  0.89761  Biso   1.000  C
  C43      1.0000 0.87594  0.52636  0.76905  Biso   1.000  C
  C44      1.0000 0.14030  0.68291  0.76905  Biso   1.000  C
  C45      1.0000 0.65042  0.45739  0.43572  Biso   1.000  C
  C46      1.0000 0.54261  0.19303  0.43572  Biso   1.000  C
  C47      1.0000 0.80697  0.34958  0.43572  Biso   1.000  C
  C48      1.0000 0.98375  0.79072  0.76905  Biso   1.000  C
  H37      1.0000 0.33550  0.57970  0.54430  Biso   1.000  H
  H38      1.0000 0.42030  0.75580  0.54430  Biso   1.000  H
  H39      1.0000 0.24420  0.66450  0.54430  Biso   1.000  H
  H40      1.0000 0.66883  0.91303  0.87763  Biso   1.000  H
  H41      1.0000 0.75363  0.08913  0.87763  Biso   1.000  H
  H42      1.0000 0.57753  0.99783  0.87763  Biso   1.000  H
  H43      1.0000 0.91303  0.57753  0.78903  Biso   1.000  H
  H44      1.0000 0.08913  0.66883  0.78903  Biso   1.000  H
  H45      1.0000 0.66450  0.42030  0.45570  Biso   1.000  H
  H46      1.0000 0.57970  0.24420  0.45570  Biso   1.000  H
  H47      1.0000 0.75580  0.33550  0.45570  Biso   1.000  H
  H48      1.0000 0.99783  0.75363  0.78903  Biso   1.000  H
  C49      1.0000 0.29719  0.48902  0.60850  Biso   1.000  C
  C50      1.0000 0.51098  0.80817  0.60850  Biso   1.000  C
  C51      1.0000 0.19183  0.70281  0.60850  Biso   1.000  C
  C52      1.0000 0.63052  0.82235  0.94183  Biso   1.000  C
  C53      1.0000 0.84431  0.14150  0.94183  Biso   1.000  C
  C54      1.0000 0.52516  0.03614  0.94183  Biso   1.000  C
  C55      1.0000 0.82235  0.52516  0.72483  Biso   1.000  C
  C56      1.0000 0.14150  0.63052  0.72483  Biso   1.000  C
  C57      1.0000 0.70281  0.51098  0.39150  Biso   1.000  C
  C58      1.0000 0.48902  0.19183  0.39150  Biso   1.000  C
  C59      1.0000 0.80817  0.29719  0.39150  Biso   1.000  C
  C60      1.0000 0.03614  0.84431  0.72483  Biso   1.000  C
  H49      1.0000 0.24760  0.49000  0.61930  Biso   1.000  H
  H50      1.0000 0.51000  0.75760  0.61930  Biso   1.000  H
  H51      1.0000 0.24240  0.75240  0.61930  Biso   1.000  H
  H52      1.0000 0.58093  0.82333  0.95263  Biso   1.000  H
  H53      1.0000 0.84333  0.09093  0.95263  Biso   1.000  H
  H54      1.0000 0.57573  0.08573  0.95263  Biso   1.000  H
  H55      1.0000 0.82333  0.57573  0.71403  Biso   1.000  H
  H56      1.0000 0.09093  0.58093  0.71403  Biso   1.000  H
  H57      1.0000 0.75240  0.51000  0.38070  Biso   1.000  H
  H58      1.0000 0.49000  0.24240  0.38070  Biso   1.000  H
  H59      1.0000 0.75760  0.24760  0.38070  Biso   1.000  H
  H60      1.0000 0.08573  0.84333  0.71403  Biso   1.000  H
  C61      1.0000 0.31658  0.43350  0.63736  Biso   1.000  C
  C62      1.0000 0.56650  0.88308  0.63736  Biso   1.000  C
  C63      1.0000 0.11692  0.68342  0.63736  Biso   1.000  C
  C64      1.0000 0.64991  0.76683  0.97069  Biso   1.000  C
  C65      1.0000 0.89983  0.21641  0.97069  Biso   1.000  C
  C66      1.0000 0.45025  0.01675  0.97069  Biso   1.000  C
  C67      1.0000 0.76683  0.45025  0.69597  Biso   1.000  C
  C68      1.0000 0.21641  0.64991  0.69597  Biso   1.000  C
  C69      1.0000 0.68342  0.56650  0.36264  Biso   1.000  C
  C70      1.0000 0.43350  0.11692  0.36264  Biso   1.000  C
  C71      1.0000 0.88308  0.31658  0.36264  Biso   1.000  C
  C72      1.0000 0.01675  0.89983  0.69597  Biso   1.000  C
  H61      1.0000 0.28030  0.39610  0.66760  Biso   1.000  H
  H62      1.0000 0.60390  0.88420  0.66760  Biso   1.000  H
  H63      1.0000 0.11580  0.71970  0.66760  Biso   1.000  H
  H64      1.0000 0.61363  0.72943  0.00093  Biso   1.000  H
  H65      1.0000 0.93723  0.21753  0.00093  Biso   1.000  H
  H66      1.0000 0.44913  0.05303  0.00093  Biso   1.000  H
  H67      1.0000 0.72943  0.44913  0.66573  Biso   1.000  H
  H68      1.0000 0.21753  0.61363  0.66573  Biso   1.000  H
  H69      1.0000 0.71970  0.60390  0.33240  Biso   1.000  H
  H70      1.0000 0.39610  0.11580  0.33240  Biso   1.000  H
  H71      1.0000 0.88420  0.28030  0.33240  Biso   1.000  H
  H72      1.0000 0.05303  0.93723  0.66573  Biso   1.000  H
  C73      1.0000 0.45524  0.41578  0.72798  Biso   1.000  C
  C74      1.0000 0.58422  0.03946  0.72798  Biso   1.000  C
  C75      1.0000 0.96054  0.54476  0.72798  Biso   1.000  C
  C76      1.0000 0.78857  0.74911  0.06131  Biso   1.000  C
  C77      1.0000 0.91755  0.37279  0.06131  Biso   1.000  C
  C78      1.0000 0.29387  0.87809  0.06131  Biso   1.000  C
  C79      1.0000 0.74911  0.29387  0.60535  Biso   1.000  C
  C80      1.0000 0.37279  0.78857  0.60535  Biso   1.000  C
  C81      1.0000 0.54476  0.58422  0.27202  Biso   1.000  C
  C82      1.0000 0.41578  0.96054  0.27202  Biso   1.000  C
  C83      1.0000 0.03946  0.45524  0.27202  Biso   1.000  C
  C84      1.0000 0.87809  0.91755  0.60535  Biso   1.000  C
  C85      1.0000 0.39952  0.40516  0.77454  Biso   1.000  C
  C86      1.0000 0.59484  0.99436  0.77454  Biso   1.000  C
  C87      1.0000 0.00564  0.60048  0.77454  Biso   1.000  C
  C88      1.0000 0.73285  0.73849  0.10787  Biso   1.000  C
  C89      1.0000 0.92817  0.32769  0.10787  Biso   1.000  C
  C90      1.0000 0.33897  0.93381  0.10787  Biso   1.000  C
  C91      1.0000 0.73849  0.33897  0.55879  Biso   1.000  C
  C92      1.0000 0.32769  0.73285  0.55879  Biso   1.000  C
  C93      1.0000 0.60048  0.59484  0.22546  Biso   1.000  C
  C94      1.0000 0.40516  0.00564  0.22546  Biso   1.000  C
  C95      1.0000 0.99436  0.39952  0.22546  Biso   1.000  C
  C96      1.0000 0.93381  0.92817  0.55879  Biso   1.000  C
  H73      1.0000 0.34080  0.36780  0.77010  Biso   1.000  H
  H74      1.0000 0.63220  0.97300  0.77010  Biso   1.000  H
  H75      1.0000 0.02700  0.65920  0.77010  Biso   1.000  H
  H76      1.0000 0.67413  0.70113  0.10343  Biso   1.000  H
  H77      1.0000 0.96553  0.30633  0.10343  Biso   1.000  H
  H78      1.0000 0.36033  0.99253  0.10343  Biso   1.000  H
  H79      1.0000 0.70113  0.36033  0.56323  Biso   1.000  H
  H80      1.0000 0.30633  0.67413  0.56323  Biso   1.000  H
  H81      1.0000 0.65920  0.63220  0.22990  Biso   1.000  H
  H82      1.0000 0.36780  0.02700  0.22990  Biso   1.000  H
  H83      1.0000 0.97300  0.34080  0.22990  Biso   1.000  H
  H84      1.0000 0.99253  0.96553  0.56323  Biso   1.000  H
  C97      1.0000 0.43218  0.45077  0.82767  Biso   1.000  C
  C98      1.0000 0.54923  0.98141  0.82767  Biso   1.000  C
  C99      1.0000 0.01859  0.56782  0.82767  Biso   1.000  C
  C100     1.0000 0.76551  0.78410  0.16100  Biso   1.000  C
  C101     1.0000 0.88256  0.31474  0.16100  Biso   1.000  C
  C102     1.0000 0.35192  0.90115  0.16100  Biso   1.000  C
  C103     1.0000 0.78410  0.35192  0.50566  Biso   1.000  C
  C104     1.0000 0.31474  0.76551  0.50566  Biso   1.000  C
  C105     1.0000 0.56782  0.54923  0.17233  Biso   1.000  C
  C106     1.0000 0.45077  0.01859  0.17233  Biso   1.000  C
  C107     1.0000 0.98141  0.43218  0.17233  Biso   1.000  C
  C108     1.0000 0.90115  0.88256  0.50566  Biso   1.000  C
  H85      1.0000 0.39550  0.44470  0.86010  Biso   1.000  H
  H86      1.0000 0.55530  0.95080  0.86010  Biso   1.000  H
  H87      1.0000 0.04920  0.60450  0.86010  Biso   1.000  H
  H88      1.0000 0.72883  0.77803  0.19343  Biso   1.000  H
  H89      1.0000 0.88863  0.28413  0.19343  Biso   1.000  H
  H90      1.0000 0.38253  0.93783  0.19343  Biso   1.000  H
  H91      1.0000 0.77803  0.38253  0.47323  Biso   1.000  H
  H92      1.0000 0.28413  0.72883  0.47323  Biso   1.000  H
  H93      1.0000 0.60450  0.55530  0.13990  Biso   1.000  H
  H94      1.0000 0.44470  0.04920  0.13990  Biso   1.000  H
  H95      1.0000 0.95080  0.39550  0.13990  Biso   1.000  H
  H96      1.0000 0.93783  0.88863  0.47323  Biso   1.000  H
  C109     1.0000 0.51836  0.50527  0.83344  Biso   1.000  C
  C110     1.0000 0.49473  0.01309  0.83344  Biso   1.000  C
  C111     1.0000 0.98691  0.48164  0.83344  Biso   1.000  C
  C112     1.0000 0.85169  0.83860  0.16677  Biso   1.000  C
  C113     1.0000 0.82806  0.34642  0.16677  Biso   1.000  C
  C114     1.0000 0.32024  0.81497  0.16677  Biso   1.000  C
  C115     1.0000 0.83860  0.32024  0.49989  Biso   1.000  C
  C116     1.0000 0.34642  0.85169  0.49989  Biso   1.000  C
  C117     1.0000 0.48164  0.49473  0.16656  Biso   1.000  C
  C118     1.0000 0.50527  0.98691  0.16656  Biso   1.000  C
  C119     1.0000 0.01309  0.51836  0.16656  Biso   1.000  C
  C120     1.0000 0.81497  0.82806  0.49989  Biso   1.000  C
  H97      1.0000 0.54020  0.53730  0.86950  Biso   1.000  H
  H98      1.0000 0.46270  0.00290  0.86950  Biso   1.000  H
  H99      1.0000 0.99710  0.45980  0.86950  Biso   1.000  H
  H100     1.0000 0.87353  0.87063  0.20283  Biso   1.000  H
  H101     1.0000 0.79603  0.33623  0.20283  Biso   1.000  H
  H102     1.0000 0.33043  0.79313  0.20283  Biso   1.000  H
  H103     1.0000 0.87063  0.33043  0.46383  Biso   1.000  H
  H104     1.0000 0.33623  0.87353  0.46383  Biso   1.000  H
  H105     1.0000 0.45980  0.46270  0.13050  Biso   1.000  H
  H106     1.0000 0.53730  0.99710  0.13050  Biso   1.000  H
  H107     1.0000 0.00290  0.54020  0.13050  Biso   1.000  H
  H108     1.0000 0.79313  0.79603  0.46383  Biso   1.000  H
  C121     1.0000 0.57232  0.51309  0.78723  Biso   1.000  C
  C122     1.0000 0.48691  0.05923  0.78723  Biso   1.000  C
  C123     1.0000 0.94077  0.42768  0.78723  Biso   1.000  C
  C124     1.0000 0.90565  0.84642  0.12056  Biso   1.000  C
  C125     1.0000 0.82024  0.39256  0.12056  Biso   1.000  C
  C126     1.0000 0.27410  0.76101  0.12056  Biso   1.000  C
  C127     1.0000 0.84642  0.27410  0.54610  Biso   1.000  C
  C128     1.0000 0.39256  0.90565  0.54610  Biso   1.000  C
  C129     1.0000 0.42768  0.48691  0.21277  Biso   1.000  C
  C130     1.0000 0.51309  0.94077  0.21277  Biso   1.000  C
  C131     1.0000 0.05923  0.57232  0.21277  Biso   1.000  C
  C132     1.0000 0.76101  0.82024  0.54610  Biso   1.000  C
  H109     1.0000 0.63130  0.54910  0.79210  Biso   1.000  H
  H110     1.0000 0.45090  0.08220  0.79210  Biso   1.000  H
  H111     1.0000 0.91780  0.36870  0.79210  Biso   1.000  H
  H112     1.0000 0.96463  0.88243  0.12543  Biso   1.000  H
  H113     1.0000 0.78423  0.41553  0.12543  Biso   1.000  H
  H114     1.0000 0.25113  0.70203  0.12543  Biso   1.000  H
  H115     1.0000 0.88243  0.25113  0.54123  Biso   1.000  H
  H116     1.0000 0.41553  0.96463  0.54123  Biso   1.000  H
  H117     1.0000 0.36870  0.45090  0.20790  Biso   1.000  H
  H118     1.0000 0.54910  0.91780  0.20790  Biso   1.000  H
  H119     1.0000 0.08220  0.63130  0.20790  Biso   1.000  H
  H120     1.0000 0.70203  0.78423  0.54123  Biso   1.000  H
  C133     1.0000 0.54103  0.46866  0.73379  Biso   1.000  C
  C134     1.0000 0.53134  0.07237  0.73379  Biso   1.000  C
  C135     1.0000 0.92763  0.45897  0.73379  Biso   1.000  C
  C136     1.0000 0.87436  0.80199  0.06712  Biso   1.000  C
  C137     1.0000 0.86467  0.40570  0.06712  Biso   1.000  C
  C138     1.0000 0.26096  0.79230  0.06712  Biso   1.000  C
  C139     1.0000 0.80199  0.26096  0.59954  Biso   1.000  C
  C140     1.0000 0.40570  0.87436  0.59954  Biso   1.000  C
  C141     1.0000 0.45897  0.53134  0.26621  Biso   1.000  C
  C142     1.0000 0.46866  0.92763  0.26621  Biso   1.000  C
  C143     1.0000 0.07237  0.54103  0.26621  Biso   1.000  C
  C144     1.0000 0.79230  0.86467  0.59954  Biso   1.000  C
  H121     1.0000 0.57800  0.47450  0.70160  Biso   1.000  H
  H122     1.0000 0.52550  0.10350  0.70160  Biso   1.000  H
  H123     1.0000 0.89650  0.42200  0.70160  Biso   1.000  H
  H124     1.0000 0.91133  0.80783  0.03493  Biso   1.000  H
  H125     1.0000 0.85883  0.43683  0.03493  Biso   1.000  H
  H126     1.0000 0.22983  0.75533  0.03493  Biso   1.000  H
  H127     1.0000 0.80783  0.22983  0.63173  Biso   1.000  H
  H128     1.0000 0.43683  0.91133  0.63173  Biso   1.000  H
  H129     1.0000 0.42200  0.52550  0.29840  Biso   1.000  H
  H130     1.0000 0.47450  0.89650  0.29840  Biso   1.000  H
  H131     1.0000 0.10350  0.57800  0.29840  Biso   1.000  H
  H132     1.0000 0.75533  0.85883  0.63173  Biso   1.000  H
  O1       1.0000 0.22451  0.11262  0.70807  Biso   1.000  O
  O2       1.0000 0.88738  0.11189  0.70807  Biso   1.000  O
  O3       1.0000 0.88811  0.77549  0.70807  Biso   1.000  O
  O4       1.0000 0.55784  0.44595  0.04140  Biso   1.000  O
  O5       1.0000 0.22071  0.44522  0.04140  Biso   1.000  O
  O6       1.0000 0.22144  0.10882  0.04140  Biso   1.000  O
  O7       1.0000 0.44595  0.22144  0.62526  Biso   1.000  O
  O8       1.0000 0.44522  0.55784  0.62526  Biso   1.000  O
  O9       1.0000 0.77549  0.88738  0.29193  Biso   1.000  O
  O10      1.0000 0.11262  0.88811  0.29193  Biso   1.000  O
  O11      1.0000 0.11189  0.22451  0.29193  Biso   1.000  O
  O12      1.0000 0.10882  0.22071  0.62526  Biso   1.000  O
  O13      1.0000 0.18975  0.21021  0.73517  Biso   1.000  O
  O14      1.0000 0.78979  0.97954  0.73517  Biso   1.000  O
  O15      1.0000 0.02046  0.81025  0.73517  Biso   1.000  O
  O16      1.0000 0.52308  0.54354  0.06850  Biso   1.000  O
  O17      1.0000 0.12312  0.31287  0.06850  Biso   1.000  O
  O18      1.0000 0.35379  0.14358  0.06850  Biso   1.000  O
  O19      1.0000 0.54354  0.35379  0.59816  Biso   1.000  O
  O20      1.0000 0.31287  0.52308  0.59816  Biso   1.000  O
  O21      1.0000 0.81025  0.78979  0.26483  Biso   1.000  O
  O22      1.0000 0.21021  0.02046  0.26483  Biso   1.000  O
  O23      1.0000 0.97954  0.18975  0.26483  Biso   1.000  O
  O24      1.0000 0.14358  0.12312  0.59816  Biso   1.000  O
  C145     1.0000 0.17337  0.13671  0.72617  Biso   1.000  C
  C146     1.0000 0.86329  0.03666  0.72617  Biso   1.000  C
  C147     1.0000 0.96334  0.82663  0.72617  Biso   1.000  C
  C148     1.0000 0.50670  0.47004  0.05950  Biso   1.000  C
  C149     1.0000 0.19662  0.36999  0.05950  Biso   1.000  C
  C150     1.0000 0.29667  0.15996  0.05950  Biso   1.000  C
  C151     1.0000 0.47004  0.29667  0.60716  Biso   1.000  C
  C152     1.0000 0.36999  0.50670  0.60716  Biso   1.000  C
  C153     1.0000 0.82663  0.86329  0.27383  Biso   1.000  C
  C154     1.0000 0.13671  0.96334  0.27383  Biso   1.000  C
  C155     1.0000 0.03666  0.17337  0.27383  Biso   1.000  C
  C156     1.0000 0.15996  0.19662  0.60716  Biso   1.000  C
  C157     1.0000 0.08354  0.06534  0.73452  Biso   1.000  C
  C158     1.0000 0.93466  0.01820  0.73452  Biso   1.000  C
  C159     1.0000 0.98180  0.91646  0.73452  Biso   1.000  C
  C160     1.0000 0.41687  0.39867  0.06785  Biso   1.000  C
  C161     1.0000 0.26799  0.35153  0.06785  Biso   1.000  C
  C162     1.0000 0.31513  0.24979  0.06785  Biso   1.000  C
  C163     1.0000 0.39867  0.31513  0.59881  Biso   1.000  C
  C164     1.0000 0.35153  0.41687  0.59881  Biso   1.000  C
  C165     1.0000 0.91646  0.93466  0.26548  Biso   1.000  C
  C166     1.0000 0.06534  0.98180  0.26548  Biso   1.000  C
  C167     1.0000 0.01820  0.08354  0.26548  Biso   1.000  C
  C168     1.0000 0.24979  0.26799  0.59881  Biso   1.000  C
  C169     1.0000 0.06510  0.98171  0.73479  Biso   1.000  C
  C170     1.0000 0.01829  0.08339  0.73479  Biso   1.000  C
  C171     1.0000 0.91661  0.93490  0.73479  Biso   1.000  C
  C172     1.0000 0.39843  0.31504  0.06812  Biso   1.000  C
  C173     1.0000 0.35162  0.41672  0.06812  Biso   1.000  C
  C174     1.0000 0.24994  0.26823  0.06812  Biso   1.000  C
  C175     1.0000 0.31504  0.24994  0.59854  Biso   1.000  C
  C176     1.0000 0.41672  0.39843  0.59854  Biso   1.000  C
  C177     1.0000 0.93490  0.01829  0.26521  Biso   1.000  C
  C178     1.0000 0.98171  0.91661  0.26521  Biso   1.000  C
  C179     1.0000 0.08339  0.06510  0.26521  Biso   1.000  C
  C180     1.0000 0.26823  0.35162  0.59854  Biso   1.000  C
  H133     1.0000 0.10950  0.96930  0.73520  Biso   1.000  H
  H134     1.0000 0.03070  0.14020  0.73520  Biso   1.000  H
  H135     1.0000 0.85980  0.89050  0.73520  Biso   1.000  H
  H136     1.0000 0.44283  0.30263  0.06853  Biso   1.000  H
  H137     1.0000 0.36403  0.47353  0.06853  Biso   1.000  H
  H138     1.0000 0.19313  0.22383  0.06853  Biso   1.000  H
  H139     1.0000 0.30263  0.19313  0.59813  Biso   1.000  H
  H140     1.0000 0.47353  0.44283  0.59813  Biso   1.000  H
  H141     1.0000 0.89050  0.03070  0.26480  Biso   1.000  H
  H142     1.0000 0.96930  0.85980  0.26480  Biso   1.000  H
  H143     1.0000 0.14020  0.10950  0.26480  Biso   1.000  H
  H144     1.0000 0.22383  0.36403  0.59813  Biso   1.000  H
  N13      1.0000 0.33067  0.05943  0.66844  Biso   1.000  N
  N14      1.0000 0.94057  0.27123  0.66844  Biso   1.000  N
  N15      1.0000 0.72877  0.66933  0.66844  Biso   1.000  N
  N16      1.0000 0.66400  0.39277  0.00178  Biso   1.000  N
  N17      1.0000 0.27390  0.60457  0.00178  Biso   1.000  N
  N18      1.0000 0.06210  0.00267  0.00178  Biso   1.000  N
  N19      1.0000 0.39277  0.06210  0.66489  Biso   1.000  N
  N20      1.0000 0.60457  0.66400  0.66489  Biso   1.000  N
  N21      1.0000 0.66933  0.94057  0.33156  Biso   1.000  N
  N22      1.0000 0.05943  0.72877  0.33156  Biso   1.000  N
  N23      1.0000 0.27123  0.33067  0.33156  Biso   1.000  N
  N24      1.0000 0.00267  0.27390  0.66489  Biso   1.000  N
  H145     1.0000 0.36617  0.05633  0.64683  Biso   1.000  H
  H146     1.0000 0.94367  0.30983  0.64683  Biso   1.000  H
  H147     1.0000 0.69017  0.63383  0.64683  Biso   1.000  H
  H148     1.0000 0.69950  0.38967  0.98017  Biso   1.000  H
  H149     1.0000 0.27700  0.64317  0.98017  Biso   1.000  H
  H150     1.0000 0.02350  0.96717  0.98017  Biso   1.000  H
  H151     1.0000 0.38967  0.02350  0.68650  Biso   1.000  H
  H152     1.0000 0.64317  0.69950  0.68650  Biso   1.000  H
  H153     1.0000 0.63383  0.94367  0.35317  Biso   1.000  H
  H154     1.0000 0.05633  0.69017  0.35317  Biso   1.000  H
  H155     1.0000 0.30983  0.36617  0.35317  Biso   1.000  H
  H156     1.0000 0.96717  0.27700  0.68650  Biso   1.000  H
  S13      1.0000 0.24754  0.96993  0.67721  Biso   1.000  S
  S14      1.0000 0.03007  0.27760  0.67721  Biso   1.000  S
  S15      1.0000 0.72240  0.75246  0.67721  Biso   1.000  S
  S16      1.0000 0.58087  0.30327  0.01055  Biso   1.000  S
  S17      1.0000 0.36340  0.61094  0.01055  Biso   1.000  S
  S18      1.0000 0.05573  0.08580  0.01055  Biso   1.000  S
  S19      1.0000 0.30327  0.05573  0.65612  Biso   1.000  S
  S20      1.0000 0.61094  0.58087  0.65612  Biso   1.000  S
  S21      1.0000 0.75246  0.03007  0.32279  Biso   1.000  S
  S22      1.0000 0.96993  0.72240  0.32279  Biso   1.000  S
  S23      1.0000 0.27760  0.24754  0.32279  Biso   1.000  S
  S24      1.0000 0.08580  0.36340  0.65612  Biso   1.000  S
  C181     1.0000 0.27702  0.89975  0.71191  Biso   1.000  C
  C182     1.0000 0.10025  0.37726  0.71191  Biso   1.000  C
  C183     1.0000 0.62274  0.72298  0.71191  Biso   1.000  C
  C184     1.0000 0.61035  0.23309  0.04525  Biso   1.000  C
  C185     1.0000 0.43358  0.71060  0.04525  Biso   1.000  C
  C186     1.0000 0.95607  0.05632  0.04525  Biso   1.000  C
  C187     1.0000 0.23309  0.95607  0.62142  Biso   1.000  C
  C188     1.0000 0.71060  0.61035  0.62142  Biso   1.000  C
  C189     1.0000 0.72298  0.10025  0.28809  Biso   1.000  C
  C190     1.0000 0.89975  0.62274  0.28809  Biso   1.000  C
  C191     1.0000 0.37726  0.27702  0.28809  Biso   1.000  C
  C192     1.0000 0.05632  0.43358  0.62142  Biso   1.000  C
  C193     1.0000 0.22290  0.84531  0.75588  Biso   1.000  C
  C194     1.0000 0.15469  0.37758  0.75588  Biso   1.000  C
  C195     1.0000 0.62242  0.77710  0.75588  Biso   1.000  C
  C196     1.0000 0.55623  0.17865  0.08922  Biso   1.000  C
  C197     1.0000 0.48802  0.71092  0.08922  Biso   1.000  C
  C198     1.0000 0.95575  0.11044  0.08922  Biso   1.000  C
  C199     1.0000 0.17865  0.95575  0.57745  Biso   1.000  C
  C200     1.0000 0.71092  0.55623  0.57745  Biso   1.000  C
  C201     1.0000 0.77710  0.15469  0.24412  Biso   1.000  C
  C202     1.0000 0.84531  0.62242  0.24412  Biso   1.000  C
  C203     1.0000 0.37758  0.22290  0.24412  Biso   1.000  C
  C204     1.0000 0.11044  0.48802  0.57745  Biso   1.000  C
  H157     1.0000 0.17267  0.84543  0.76623  Biso   1.000  H
  H158     1.0000 0.15457  0.32724  0.76623  Biso   1.000  H
  H159     1.0000 0.67276  0.82733  0.76623  Biso   1.000  H
  H160     1.0000 0.50600  0.17876  0.09956  Biso   1.000  H
  H161     1.0000 0.48790  0.66057  0.09956  Biso   1.000  H
  H162     1.0000 0.00609  0.16066  0.09956  Biso   1.000  H
  H163     1.0000 0.17876  0.00609  0.56710  Biso   1.000  H
  H164     1.0000 0.66057  0.50600  0.56710  Biso   1.000  H
  H165     1.0000 0.82733  0.15457  0.23377  Biso   1.000  H
  H166     1.0000 0.84543  0.67276  0.23377  Biso   1.000  H
  H167     1.0000 0.32724  0.17267  0.23377  Biso   1.000  H
  H168     1.0000 0.16066  0.48790  0.56710  Biso   1.000  H
  C205     1.0000 0.24382  0.79081  0.78441  Biso   1.000  C
  C206     1.0000 0.20919  0.45300  0.78441  Biso   1.000  C
  C207     1.0000 0.54700  0.75618  0.78441  Biso   1.000  C
  C208     1.0000 0.57715  0.12415  0.11775  Biso   1.000  C
  C209     1.0000 0.54252  0.78634  0.11775  Biso   1.000  C
  C210     1.0000 0.88033  0.08952  0.11775  Biso   1.000  C
  C211     1.0000 0.12415  0.88033  0.54892  Biso   1.000  C
  C212     1.0000 0.78634  0.57715  0.54892  Biso   1.000  C
  C213     1.0000 0.75618  0.20919  0.21559  Biso   1.000  C
  C214     1.0000 0.79081  0.54700  0.21559  Biso   1.000  C
  C215     1.0000 0.45300  0.24382  0.21559  Biso   1.000  C
  C216     1.0000 0.08952  0.54252  0.54892  Biso   1.000  C
  H169     1.0000 0.20767  0.75333  0.81463  Biso   1.000  H
  H170     1.0000 0.24667  0.45434  0.81463  Biso   1.000  H
  H171     1.0000 0.54566  0.79233  0.81463  Biso   1.000  H
  H172     1.0000 0.54100  0.08666  0.14796  Biso   1.000  H
  H173     1.0000 0.58000  0.78767  0.14796  Biso   1.000  H
  H174     1.0000 0.87899  0.12566  0.14796  Biso   1.000  H
  H175     1.0000 0.08666  0.87899  0.51870  Biso   1.000  H
  H176     1.0000 0.78767  0.54100  0.51870  Biso   1.000  H
  H177     1.0000 0.79233  0.24667  0.18537  Biso   1.000  H
  H178     1.0000 0.75333  0.54566  0.18537  Biso   1.000  H
  H179     1.0000 0.45434  0.20767  0.18537  Biso   1.000  H
  H180     1.0000 0.12566  0.58000  0.51870  Biso   1.000  H
  C217     1.0000 0.31709  0.79072  0.76905  Biso   1.000  C
  C218     1.0000 0.20928  0.52636  0.76905  Biso   1.000  C
  C219     1.0000 0.47364  0.68291  0.76905  Biso   1.000  C
  C220     1.0000 0.65042  0.12406  0.10239  Biso   1.000  C
  C221     1.0000 0.54261  0.85970  0.10239  Biso   1.000  C
  C222     1.0000 0.80697  0.01625  0.10239  Biso   1.000  C
  C223     1.0000 0.12406  0.80697  0.56428  Biso   1.000  C
  C224     1.0000 0.85970  0.65042  0.56428  Biso   1.000  C
  C225     1.0000 0.68291  0.20928  0.23095  Biso   1.000  C
  C226     1.0000 0.79072  0.47364  0.23095  Biso   1.000  C
  C227     1.0000 0.52636  0.31709  0.23095  Biso   1.000  C
  C228     1.0000 0.01625  0.54261  0.56428  Biso   1.000  C
  H181     1.0000 0.33117  0.75363  0.78903  Biso   1.000  H
  H182     1.0000 0.24637  0.57754  0.78903  Biso   1.000  H
  H183     1.0000 0.42246  0.66883  0.78903  Biso   1.000  H
  H184     1.0000 0.66450  0.08696  0.12236  Biso   1.000  H
  H185     1.0000 0.57970  0.91087  0.12236  Biso   1.000  H
  H186     1.0000 0.75579  0.00216  0.12236  Biso   1.000  H
  H187     1.0000 0.08696  0.75579  0.54430  Biso   1.000  H
  H188     1.0000 0.91087  0.66450  0.54430  Biso   1.000  H
  H189     1.0000 0.66883  0.24637  0.21097  Biso   1.000  H
  H190     1.0000 0.75363  0.42246  0.21097  Biso   1.000  H
  H191     1.0000 0.57754  0.33117  0.21097  Biso   1.000  H
  H192     1.0000 0.00216  0.57970  0.54430  Biso   1.000  H
  C229     1.0000 0.36948  0.84431  0.72483  Biso   1.000  C
  C230     1.0000 0.15569  0.52516  0.72483  Biso   1.000  C
  C231     1.0000 0.47484  0.63052  0.72483  Biso   1.000  C
  C232     1.0000 0.70281  0.17765  0.05817  Biso   1.000  C
  C233     1.0000 0.48902  0.85850  0.05817  Biso   1.000  C
  C234     1.0000 0.80817  0.96386  0.05817  Biso   1.000  C
  C235     1.0000 0.17765  0.80817  0.60850  Biso   1.000  C
  C236     1.0000 0.85850  0.70281  0.60850  Biso   1.000  C
  C237     1.0000 0.63052  0.15569  0.27517  Biso   1.000  C
  C238     1.0000 0.84431  0.47484  0.27517  Biso   1.000  C
  C239     1.0000 0.52516  0.36948  0.27517  Biso   1.000  C
  C240     1.0000 0.96386  0.48902  0.60850  Biso   1.000  C
  H193     1.0000 0.41907  0.84333  0.71403  Biso   1.000  H
  H194     1.0000 0.15667  0.57574  0.71403  Biso   1.000  H
  H195     1.0000 0.42426  0.58093  0.71403  Biso   1.000  H
  H196     1.0000 0.75240  0.17666  0.04736  Biso   1.000  H
  H197     1.0000 0.49000  0.90907  0.04736  Biso   1.000  H
  H198     1.0000 0.75759  0.91426  0.04736  Biso   1.000  H
  H199     1.0000 0.17666  0.75759  0.61930  Biso   1.000  H
  H200     1.0000 0.90907  0.75240  0.61930  Biso   1.000  H
  H201     1.0000 0.58093  0.15667  0.28597  Biso   1.000  H
  H202     1.0000 0.84333  0.42426  0.28597  Biso   1.000  H
  H203     1.0000 0.57574  0.41907  0.28597  Biso   1.000  H
  H204     1.0000 0.91426  0.49000  0.61930  Biso   1.000  H
  C241     1.0000 0.35009  0.89983  0.69597  Biso   1.000  C
  C242     1.0000 0.10017  0.45025  0.69597  Biso   1.000  C
  C243     1.0000 0.54975  0.64991  0.69597  Biso   1.000  C
  C244     1.0000 0.68342  0.23317  0.02931  Biso   1.000  C
  C245     1.0000 0.43350  0.78359  0.02931  Biso   1.000  C
  C246     1.0000 0.88308  0.98325  0.02931  Biso   1.000  C
  C247     1.0000 0.23317  0.88308  0.63736  Biso   1.000  C
  C248     1.0000 0.78359  0.68342  0.63736  Biso   1.000  C
  C249     1.0000 0.64991  0.10017  0.30403  Biso   1.000  C
  C250     1.0000 0.89983  0.54975  0.30403  Biso   1.000  C
  C251     1.0000 0.45025  0.35009  0.30403  Biso   1.000  C
  C252     1.0000 0.98325  0.43350  0.63736  Biso   1.000  C
  H205     1.0000 0.38637  0.93723  0.66573  Biso   1.000  H
  H206     1.0000 0.06277  0.44914  0.66573  Biso   1.000  H
  H207     1.0000 0.55086  0.61363  0.66573  Biso   1.000  H
  H208     1.0000 0.71970  0.27056  0.99906  Biso   1.000  H
  H209     1.0000 0.39610  0.78247  0.99906  Biso   1.000  H
  H210     1.0000 0.88419  0.94696  0.99906  Biso   1.000  H
  H211     1.0000 0.27056  0.88419  0.66760  Biso   1.000  H
  H212     1.0000 0.78247  0.71970  0.66760  Biso   1.000  H
  H213     1.0000 0.61363  0.06277  0.33427  Biso   1.000  H
  H214     1.0000 0.93723  0.55086  0.33427  Biso   1.000  H
  H215     1.0000 0.44914  0.38637  0.33427  Biso   1.000  H
  H216     1.0000 0.94696  0.39610  0.66760  Biso   1.000  H
  C253     1.0000 0.21143  0.91755  0.60535  Biso   1.000  C
  C254     1.0000 0.08245  0.29387  0.60535  Biso   1.000  C
  C255     1.0000 0.70613  0.78857  0.60535  Biso   1.000  C
  C256     1.0000 0.54476  0.25089  0.93869  Biso   1.000  C
  C257     1.0000 0.41578  0.62721  0.93869  Biso   1.000  C
  C258     1.0000 0.03946  0.12191  0.93869  Biso   1.000  C
  C259     1.0000 0.25089  0.03946  0.72798  Biso   1.000  C
  C260     1.0000 0.62721  0.54476  0.72798  Biso   1.000  C
  C261     1.0000 0.78857  0.08245  0.39465  Biso   1.000  C
  C262     1.0000 0.91755  0.70613  0.39465  Biso   1.000  C
  C263     1.0000 0.29387  0.21143  0.39465  Biso   1.000  C
  C264     1.0000 0.12191  0.41578  0.72798  Biso   1.000  C
  C265     1.0000 0.26715  0.92817  0.55879  Biso   1.000  C
  C266     1.0000 0.07183  0.33897  0.55879  Biso   1.000  C
  C267     1.0000 0.66103  0.73285  0.55879  Biso   1.000  C
  C268     1.0000 0.60048  0.26151  0.89213  Biso   1.000  C
  C269     1.0000 0.40516  0.67231  0.89213  Biso   1.000  C
  C270     1.0000 0.99436  0.06619  0.89213  Biso   1.000  C
  C271     1.0000 0.26151  0.99436  0.77454  Biso   1.000  C
  C272     1.0000 0.67231  0.60048  0.77454  Biso   1.000  C
  C273     1.0000 0.73285  0.07183  0.44121  Biso   1.000  C
  C274     1.0000 0.92817  0.66103  0.44121  Biso   1.000  C
  C275     1.0000 0.33897  0.26715  0.44121  Biso   1.000  C
  C276     1.0000 0.06619  0.40516  0.77454  Biso   1.000  C
  H217     1.0000 0.32587  0.96553  0.56323  Biso   1.000  H
  H218     1.0000 0.03447  0.36034  0.56323  Biso   1.000  H
  H219     1.0000 0.63966  0.67413  0.56323  Biso   1.000  H
  H220     1.0000 0.65920  0.29886  0.89656  Biso   1.000  H
  H221     1.0000 0.36780  0.69367  0.89656  Biso   1.000  H
  H222     1.0000 0.97299  0.00746  0.89656  Biso   1.000  H
  H223     1.0000 0.29886  0.97299  0.77010  Biso   1.000  H
  H224     1.0000 0.69367  0.65920  0.77010  Biso   1.000  H
  H225     1.0000 0.67413  0.03447  0.43677  Biso   1.000  H
  H226     1.0000 0.96553  0.63966  0.43677  Biso   1.000  H
  H227     1.0000 0.36034  0.32587  0.43677  Biso   1.000  H
  H228     1.0000 0.00746  0.36780  0.77010  Biso   1.000  H
  C277     1.0000 0.23449  0.88256  0.50566  Biso   1.000  C
  C278     1.0000 0.11744  0.35192  0.50566  Biso   1.000  C
  C279     1.0000 0.64808  0.76551  0.50566  Biso   1.000  C
  C280     1.0000 0.56782  0.21590  0.83900  Biso   1.000  C
  C281     1.0000 0.45077  0.68526  0.83900  Biso   1.000  C
  C282     1.0000 0.98141  0.09885  0.83900  Biso   1.000  C
  C283     1.0000 0.21590  0.98141  0.82767  Biso   1.000  C
  C284     1.0000 0.68526  0.56782  0.82767  Biso   1.000  C
  C285     1.0000 0.76551  0.11744  0.49434  Biso   1.000  C
  C286     1.0000 0.88256  0.64808  0.49434  Biso   1.000  C
  C287     1.0000 0.35192  0.23449  0.49434  Biso   1.000  C
  C288     1.0000 0.09885  0.45077  0.82767  Biso   1.000  C
  H229     1.0000 0.27117  0.88863  0.47323  Biso   1.000  H
  H230     1.0000 0.11137  0.38254  0.47323  Biso   1.000  H
  H231     1.0000 0.61746  0.72883  0.47323  Biso   1.000  H
  H232     1.0000 0.60450  0.22196  0.80656  Biso   1.000  H
  H233     1.0000 0.44470  0.71587  0.80656  Biso   1.000  H
  H234     1.0000 0.95079  0.06216  0.80656  Biso   1.000  H
  H235     1.0000 0.22196  0.95079  0.86010  Biso   1.000  H
  H236     1.0000 0.71587  0.60450  0.86010  Biso   1.000  H
  H237     1.0000 0.72883  0.11137  0.52677  Biso   1.000  H
  H238     1.0000 0.88863  0.61746  0.52677  Biso   1.000  H
  H239     1.0000 0.38254  0.27117  0.52677  Biso   1.000  H
  H240     1.0000 0.06216  0.44470  0.86010  Biso   1.000  H
  C289     1.0000 0.14831  0.82806  0.49989  Biso   1.000  C
  C290     1.0000 0.17194  0.32024  0.49989  Biso   1.000  C
  C291     1.0000 0.67976  0.85169  0.49989  Biso   1.000  C
  C292     1.0000 0.48164  0.16140  0.83323  Biso   1.000  C
  C293     1.0000 0.50527  0.65358  0.83323  Biso   1.000  C
  C294     1.0000 0.01309  0.18503  0.83323  Biso   1.000  C
  C295     1.0000 0.16140  0.01309  0.83344  Biso   1.000  C
  C296     1.0000 0.65358  0.48164  0.83344  Biso   1.000  C
  C297     1.0000 0.85169  0.17194  0.50011  Biso   1.000  C
  C298     1.0000 0.82806  0.67976  0.50011  Biso   1.000  C
  C299     1.0000 0.32024  0.14831  0.50011  Biso   1.000  C
  C300     1.0000 0.18503  0.50527  0.83344  Biso   1.000  C
  H241     1.0000 0.12647  0.79603  0.46383  Biso   1.000  H
  H242     1.0000 0.20397  0.33044  0.46383  Biso   1.000  H
  H243     1.0000 0.66956  0.87353  0.46383  Biso   1.000  H
  H244     1.0000 0.45980  0.12936  0.79716  Biso   1.000  H
  H245     1.0000 0.53730  0.66377  0.79716  Biso   1.000  H
  H246     1.0000 0.00289  0.20686  0.79716  Biso   1.000  H
  H247     1.0000 0.12936  0.00289  0.86950  Biso   1.000  H
  H248     1.0000 0.66377  0.45980  0.86950  Biso   1.000  H
  H249     1.0000 0.87353  0.20397  0.53617  Biso   1.000  H
  H250     1.0000 0.79603  0.66956  0.53617  Biso   1.000  H
  H251     1.0000 0.33044  0.12647  0.53617  Biso   1.000  H
  H252     1.0000 0.20686  0.53730  0.86950  Biso   1.000  H
  C301     1.0000 0.09435  0.82024  0.54610  Biso   1.000  C
  C302     1.0000 0.17976  0.27410  0.54610  Biso   1.000  C
  C303     1.0000 0.72590  0.90565  0.54610  Biso   1.000  C
  C304     1.0000 0.42768  0.15358  0.87944  Biso   1.000  C
  C305     1.0000 0.51309  0.60744  0.87944  Biso   1.000  C
  C306     1.0000 0.05923  0.23899  0.87944  Biso   1.000  C
  C307     1.0000 0.15358  0.05923  0.78723  Biso   1.000  C
  C308     1.0000 0.60744  0.42768  0.78723  Biso   1.000  C
  C309     1.0000 0.90565  0.17976  0.45390  Biso   1.000  C
  C310     1.0000 0.82024  0.72590  0.45390  Biso   1.000  C
  C311     1.0000 0.27410  0.09435  0.45390  Biso   1.000  C
  C312     1.0000 0.23899  0.51309  0.78723  Biso   1.000  C
  H253     1.0000 0.03537  0.78423  0.54123  Biso   1.000  H
  H254     1.0000 0.21577  0.25114  0.54123  Biso   1.000  H
  H255     1.0000 0.74886  0.96463  0.54123  Biso   1.000  H
  H256     1.0000 0.36870  0.11756  0.87456  Biso   1.000  H
  H257     1.0000 0.54910  0.58447  0.87456  Biso   1.000  H
  H258     1.0000 0.08219  0.29796  0.87456  Biso   1.000  H
  H259     1.0000 0.11756  0.08219  0.79210  Biso   1.000  H
  H260     1.0000 0.58447  0.36870  0.79210  Biso   1.000  H
  H261     1.0000 0.96463  0.21577  0.45877  Biso   1.000  H
  H262     1.0000 0.78423  0.74886  0.45877  Biso   1.000  H
  H263     1.0000 0.25114  0.03537  0.45877  Biso   1.000  H
  H264     1.0000 0.29796  0.54910  0.79210  Biso   1.000  H
  C313     1.0000 0.12564  0.86467  0.59954  Biso   1.000  C
  C314     1.0000 0.13533  0.26096  0.59954  Biso   1.000  C
  C315     1.0000 0.73904  0.87436  0.59954  Biso   1.000  C
  C316     1.0000 0.45897  0.19801  0.93288  Biso   1.000  C
  C317     1.0000 0.46866  0.59430  0.93288  Biso   1.000  C
  C318     1.0000 0.07237  0.20770  0.93288  Biso   1.000  C
  C319     1.0000 0.19801  0.07237  0.73379  Biso   1.000  C
  C320     1.0000 0.59430  0.45897  0.73379  Biso   1.000  C
  C321     1.0000 0.87436  0.13533  0.40046  Biso   1.000  C
  C322     1.0000 0.86467  0.73904  0.40046  Biso   1.000  C
  C323     1.0000 0.26096  0.12564  0.40046  Biso   1.000  C
  C324     1.0000 0.20770  0.46866  0.73379  Biso   1.000  C
  H265     1.0000 0.08867  0.85883  0.63173  Biso   1.000  H
  H266     1.0000 0.14117  0.22984  0.63173  Biso   1.000  H
  H267     1.0000 0.77016  0.91133  0.63173  Biso   1.000  H
  H268     1.0000 0.42200  0.19216  0.96506  Biso   1.000  H
  H269     1.0000 0.47450  0.56317  0.96506  Biso   1.000  H
  H270     1.0000 0.10349  0.24466  0.96506  Biso   1.000  H
  H271     1.0000 0.19216  0.10349  0.70160  Biso   1.000  H
  H272     1.0000 0.56317  0.42200  0.70160  Biso   1.000  H
  H273     1.0000 0.91133  0.14117  0.36827  Biso   1.000  H
  H274     1.0000 0.85883  0.77016  0.36827  Biso   1.000  H
  H275     1.0000 0.22984  0.08867  0.36827  Biso   1.000  H
  H276     1.0000 0.24466  0.47450  0.70160  Biso   1.000  H
  O25      1.0000 0.44216  0.22071  0.62526  Biso   1.000  O
  O26      1.0000 0.77929  0.22144  0.62526  Biso   1.000  O
  O27      1.0000 0.77856  0.55784  0.62526  Biso   1.000  O
  O28      1.0000 0.77549  0.55405  0.95860  Biso   1.000  O
  O29      1.0000 0.11262  0.55478  0.95860  Biso   1.000  O
  O30      1.0000 0.11189  0.89118  0.95860  Biso   1.000  O
  O31      1.0000 0.55405  0.11189  0.70807  Biso   1.000  O
  O32      1.0000 0.55478  0.77549  0.70807  Biso   1.000  O
  O33      1.0000 0.55784  0.77929  0.37474  Biso   1.000  O
  O34      1.0000 0.22071  0.77856  0.37474  Biso   1.000  O
  O35      1.0000 0.22144  0.44216  0.37474  Biso   1.000  O
  O36      1.0000 0.89118  0.11262  0.70807  Biso   1.000  O
  O37      1.0000 0.47692  0.12312  0.59816  Biso   1.000  O
  O38      1.0000 0.87688  0.35379  0.59816  Biso   1.000  O
  O39      1.0000 0.64621  0.52308  0.59816  Biso   1.000  O
  O40      1.0000 0.81025  0.45646  0.93150  Biso   1.000  O
  O41      1.0000 0.21021  0.68713  0.93150  Biso   1.000  O
  O42      1.0000 0.97954  0.85642  0.93150  Biso   1.000  O
  O43      1.0000 0.45646  0.97954  0.73517  Biso   1.000  O
  O44      1.0000 0.68713  0.81025  0.73517  Biso   1.000  O
  O45      1.0000 0.52308  0.87688  0.40184  Biso   1.000  O
  O46      1.0000 0.12312  0.64621  0.40184  Biso   1.000  O
  O47      1.0000 0.35379  0.47692  0.40184  Biso   1.000  O
  O48      1.0000 0.85642  0.21021  0.73517  Biso   1.000  O
  C325     1.0000 0.49330  0.19662  0.60716  Biso   1.000  C
  C326     1.0000 0.80338  0.29667  0.60716  Biso   1.000  C
  C327     1.0000 0.70333  0.50670  0.60716  Biso   1.000  C
  C328     1.0000 0.82663  0.52996  0.94050  Biso   1.000  C
  C329     1.0000 0.13671  0.63001  0.94050  Biso   1.000  C
  C330     1.0000 0.03666  0.84004  0.94050  Biso   1.000  C
  C331     1.0000 0.52996  0.03666  0.72617  Biso   1.000  C
  C332     1.0000 0.63001  0.82663  0.72617  Biso   1.000  C
  C333     1.0000 0.50670  0.80338  0.39284  Biso   1.000  C
  C334     1.0000 0.19662  0.70333  0.39284  Biso   1.000  C
  C335     1.0000 0.29667  0.49330  0.39284  Biso   1.000  C
  C336     1.0000 0.84004  0.13671  0.72617  Biso   1.000  C
  C337     1.0000 0.58313  0.26799  0.59881  Biso   1.000  C
  C338     1.0000 0.73201  0.31513  0.59881  Biso   1.000  C
  C339     1.0000 0.68487  0.41687  0.59881  Biso   1.000  C
  C340     1.0000 0.91646  0.60133  0.93215  Biso   1.000  C
  C341     1.0000 0.06534  0.64847  0.93215  Biso   1.000  C
  C342     1.0000 0.01820  0.75021  0.93215  Biso   1.000  C
  C343     1.0000 0.60133  0.01820  0.73452  Biso   1.000  C
  C344     1.0000 0.64847  0.91646  0.73452  Biso   1.000  C
  C345     1.0000 0.41687  0.73201  0.40119  Biso   1.000  C
  C346     1.0000 0.26799  0.68487  0.40119  Biso   1.000  C
  C347     1.0000 0.31513  0.58313  0.40119  Biso   1.000  C
  C348     1.0000 0.75021  0.06534  0.73452  Biso   1.000  C
  C349     1.0000 0.60157  0.35162  0.59854  Biso   1.000  C
  C350     1.0000 0.64838  0.24994  0.59854  Biso   1.000  C
  C351     1.0000 0.75006  0.39843  0.59854  Biso   1.000  C
  C352     1.0000 0.93490  0.68496  0.93188  Biso   1.000  C
  C353     1.0000 0.98171  0.58328  0.93188  Biso   1.000  C
  C354     1.0000 0.08339  0.73177  0.93188  Biso   1.000  C
  C355     1.0000 0.68496  0.08339  0.73479  Biso   1.000  C
  C356     1.0000 0.58328  0.93490  0.73479  Biso   1.000  C
  C357     1.0000 0.39843  0.64838  0.40146  Biso   1.000  C
  C358     1.0000 0.35162  0.75006  0.40146  Biso   1.000  C
  C359     1.0000 0.24994  0.60157  0.40146  Biso   1.000  C
  C360     1.0000 0.73177  0.98171  0.73479  Biso   1.000  C
  H277     1.0000 0.55717  0.36403  0.59813  Biso   1.000  H
  H278     1.0000 0.63597  0.19314  0.59813  Biso   1.000  H
  H279     1.0000 0.80686  0.44283  0.59813  Biso   1.000  H
  H280     1.0000 0.89050  0.69736  0.93146  Biso   1.000  H
  H281     1.0000 0.96930  0.52647  0.93146  Biso   1.000  H
  H282     1.0000 0.14019  0.77616  0.93146  Biso   1.000  H
  H283     1.0000 0.69736  0.14019  0.73520  Biso   1.000  H
  H284     1.0000 0.52647  0.89050  0.73520  Biso   1.000  H
  H285     1.0000 0.44283  0.63597  0.40187  Biso   1.000  H
  H286     1.0000 0.36403  0.80686  0.40187  Biso   1.000  H
  H287     1.0000 0.19314  0.55717  0.40187  Biso   1.000  H
  H288     1.0000 0.77616  0.96930  0.73520  Biso   1.000  H
