data_image0
_cell_length_a       21.4582
_cell_length_b       29.1664
_cell_length_c       18.6555
_cell_angle_alpha    90
_cell_angle_beta     110.729
_cell_angle_gamma    90

_symmetry_space_group_name_H-M    "P 1"
_symmetry_int_tables_number       1

loop_
  _symmetry_equiv_pos_as_xyz
  'x, y, z'

loop_
  _atom_site_label
  _atom_site_occupancy
  _atom_site_fract_x
  _atom_site_fract_y
  _atom_site_fract_z
  _atom_site_thermal_displace_type
  _atom_site_B_iso_or_equiv
  _atom_site_type_symbol
  Cu1      1.0000 0.25448  0.00128  0.49210  Biso   1.000  Cu
  Cu2      1.0000 0.25448  0.49872  0.99210  Biso   1.000  Cu
  Cu3      1.0000 0.74552  0.99872  0.50790  Biso   1.000  Cu
  Cu4      1.0000 0.74552  0.50128  0.00790  Biso   1.000  Cu
  N1       1.0000 0.31254  0.96867  0.45191  Biso   1.000  N
  N2       1.0000 0.31254  0.53133  0.95191  Biso   1.000  N
  N3       1.0000 0.68746  0.03133  0.54809  Biso   1.000  N
  N4       1.0000 0.68746  0.46867  0.04809  Biso   1.000  N
  H1       1.0000 0.32200  0.98190  0.42200  Biso   1.000  H
  H2       1.0000 0.32200  0.51810  0.92200  Biso   1.000  H
  H3       1.0000 0.67800  0.01810  0.57800  Biso   1.000  H
  H4       1.0000 0.67800  0.48190  0.07800  Biso   1.000  H
  S1       1.0000 0.32270  0.91484  0.44970  Biso   1.000  S
  S2       1.0000 0.32270  0.58516  0.94970  Biso   1.000  S
  S3       1.0000 0.67730  0.08516  0.55030  Biso   1.000  S
  S4       1.0000 0.67730  0.41484  0.05030  Biso   1.000  S
  C1       1.0000 0.41095  0.90410  0.48480  Biso   1.000  C
  C2       1.0000 0.41095  0.59590  0.98480  Biso   1.000  C
  C3       1.0000 0.58905  0.09590  0.51520  Biso   1.000  C
  C4       1.0000 0.58905  0.40410  0.01520  Biso   1.000  C
  C5       1.0000 0.45510  0.93565  0.47380  Biso   1.000  C
  C6       1.0000 0.45510  0.56435  0.97380  Biso   1.000  C
  C7       1.0000 0.54490  0.06435  0.52620  Biso   1.000  C
  C8       1.0000 0.54490  0.43565  0.02620  Biso   1.000  C
  H5       1.0000 0.43930  0.96260  0.44430  Biso   1.000  H
  H6       1.0000 0.43930  0.53740  0.94430  Biso   1.000  H
  H7       1.0000 0.56070  0.03740  0.55570  Biso   1.000  H
  H8       1.0000 0.56070  0.46260  0.05570  Biso   1.000  H
  C9       1.0000 0.52290  0.92695  0.50690  Biso   1.000  C
  C10      1.0000 0.52290  0.57305  0.00690  Biso   1.000  C
  C11      1.0000 0.47710  0.07305  0.49310  Biso   1.000  C
  C12      1.0000 0.47710  0.42695  0.99310  Biso   1.000  C
  H9       1.0000 0.55400  0.94840  0.50060  Biso   1.000  H
  H10      1.0000 0.55400  0.55160  0.00060  Biso   1.000  H
  H11      1.0000 0.44600  0.05160  0.49940  Biso   1.000  H
  H12      1.0000 0.44600  0.44840  0.99940  Biso   1.000  H
  C13      1.0000 0.54540  0.88784  0.54830  Biso   1.000  C
  C14      1.0000 0.54540  0.61216  0.04830  Biso   1.000  C
  C15      1.0000 0.45460  0.11216  0.45170  Biso   1.000  C
  C16      1.0000 0.45460  0.38784  0.95170  Biso   1.000  C
  H13      1.0000 0.59190  0.88220  0.57050  Biso   1.000  H
  H14      1.0000 0.59190  0.61780  0.07050  Biso   1.000  H
  H15      1.0000 0.40810  0.11780  0.42950  Biso   1.000  H
  H16      1.0000 0.40810  0.38220  0.92950  Biso   1.000  H
  C17      1.0000 0.50100  0.85663  0.55800  Biso   1.000  C
  C18      1.0000 0.50100  0.64337  0.05800  Biso   1.000  C
  C19      1.0000 0.49900  0.14337  0.44200  Biso   1.000  C
  C20      1.0000 0.49900  0.35663  0.94200  Biso   1.000  C
  H17      1.0000 0.51690  0.82940  0.58640  Biso   1.000  H
  H18      1.0000 0.51690  0.67060  0.08640  Biso   1.000  H
  H19      1.0000 0.48310  0.17060  0.41360  Biso   1.000  H
  H20      1.0000 0.48310  0.32940  0.91360  Biso   1.000  H
  C21      1.0000 0.43310  0.86487  0.52640  Biso   1.000  C
  C22      1.0000 0.43310  0.63513  0.02640  Biso   1.000  C
  C23      1.0000 0.56690  0.13513  0.47360  Biso   1.000  C
  C24      1.0000 0.56690  0.36487  0.97360  Biso   1.000  C
  H21      1.0000 0.40230  0.84360  0.53360  Biso   1.000  H
  H22      1.0000 0.40230  0.65640  0.03360  Biso   1.000  H
  H23      1.0000 0.59770  0.15640  0.46640  Biso   1.000  H
  H24      1.0000 0.59770  0.34360  0.96640  Biso   1.000  H
  C25      1.0000 0.30286  0.89704  0.35210  Biso   1.000  C
  C26      1.0000 0.30286  0.60296  0.85210  Biso   1.000  C
  C27      1.0000 0.69714  0.10296  0.64790  Biso   1.000  C
  C28      1.0000 0.69714  0.39704  0.14790  Biso   1.000  C
  C29      1.0000 0.28720  0.92820  0.29320  Biso   1.000  C
  C30      1.0000 0.28720  0.57180  0.79320  Biso   1.000  C
  C31      1.0000 0.71280  0.07180  0.70680  Biso   1.000  C
  C32      1.0000 0.71280  0.42820  0.20680  Biso   1.000  C
  H25      1.0000 0.28730  0.96020  0.30290  Biso   1.000  H
  H26      1.0000 0.28730  0.53980  0.80290  Biso   1.000  H
  H27      1.0000 0.71270  0.03980  0.69710  Biso   1.000  H
  H28      1.0000 0.71270  0.46020  0.19710  Biso   1.000  H
  C33      1.0000 0.27110  0.91150  0.21870  Biso   1.000  C
  C34      1.0000 0.27110  0.58850  0.71870  Biso   1.000  C
  C35      1.0000 0.72890  0.08850  0.78130  Biso   1.000  C
  C36      1.0000 0.72890  0.41150  0.28130  Biso   1.000  C
  H29      1.0000 0.26060  0.93240  0.17710  Biso   1.000  H
  H30      1.0000 0.26060  0.56760  0.67710  Biso   1.000  H
  H31      1.0000 0.73940  0.06760  0.82290  Biso   1.000  H
  H32      1.0000 0.73940  0.43240  0.32290  Biso   1.000  H
  C37      1.0000 0.27010  0.86520  0.20470  Biso   1.000  C
  C38      1.0000 0.27010  0.63480  0.70470  Biso   1.000  C
  C39      1.0000 0.72990  0.13480  0.79530  Biso   1.000  C
  C40      1.0000 0.72990  0.36520  0.29530  Biso   1.000  C
  H33      1.0000 0.25910  0.85420  0.15380  Biso   1.000  H
  H34      1.0000 0.25910  0.64580  0.65380  Biso   1.000  H
  H35      1.0000 0.74090  0.14580  0.84620  Biso   1.000  H
  H36      1.0000 0.74090  0.35420  0.34620  Biso   1.000  H
  C41      1.0000 0.28500  0.83520  0.26420  Biso   1.000  C
  C42      1.0000 0.28500  0.66480  0.76420  Biso   1.000  C
  C43      1.0000 0.71500  0.16480  0.73580  Biso   1.000  C
  C44      1.0000 0.71500  0.33520  0.23580  Biso   1.000  C
  H37      1.0000 0.28450  0.80320  0.25430  Biso   1.000  H
  H38      1.0000 0.28450  0.69680  0.75430  Biso   1.000  H
  H39      1.0000 0.71550  0.19680  0.74570  Biso   1.000  H
  H40      1.0000 0.71550  0.30320  0.24570  Biso   1.000  H
  C45      1.0000 0.30090  0.85029  0.33850  Biso   1.000  C
  C46      1.0000 0.30090  0.64971  0.83850  Biso   1.000  C
  C47      1.0000 0.69910  0.14971  0.66150  Biso   1.000  C
  C48      1.0000 0.69910  0.35029  0.16150  Biso   1.000  C
  H41      1.0000 0.31040  0.82910  0.37970  Biso   1.000  H
  H42      1.0000 0.31040  0.67090  0.87970  Biso   1.000  H
  H43      1.0000 0.68960  0.17090  0.62030  Biso   1.000  H
  H44      1.0000 0.68960  0.32910  0.12030  Biso   1.000  H
  N5       1.0000 0.19053  0.03167  0.52752  Biso   1.000  N
  N6       1.0000 0.19053  0.46833  0.02752  Biso   1.000  N
  N7       1.0000 0.80947  0.96833  0.47248  Biso   1.000  N
  N8       1.0000 0.80947  0.53167  0.97248  Biso   1.000  N
  H45      1.0000 0.18400  0.01880  0.56000  Biso   1.000  H
  H46      1.0000 0.18400  0.48120  0.06000  Biso   1.000  H
  H47      1.0000 0.81600  0.98120  0.44000  Biso   1.000  H
  H48      1.0000 0.81600  0.51880  0.94000  Biso   1.000  H
  S5       1.0000 0.16785  0.08386  0.51995  Biso   1.000  S
  S6       1.0000 0.16785  0.41614  0.01995  Biso   1.000  S
  S7       1.0000 0.83215  0.91614  0.48005  Biso   1.000  S
  S8       1.0000 0.83215  0.58386  0.98005  Biso   1.000  S
  C49      1.0000 0.19072  0.10948  0.61310  Biso   1.000  C
  C50      1.0000 0.19072  0.39052  0.11310  Biso   1.000  C
  C51      1.0000 0.80928  0.89052  0.38690  Biso   1.000  C
  C52      1.0000 0.80928  0.60948  0.88690  Biso   1.000  C
  C53      1.0000 0.22000  0.08462  0.67850  Biso   1.000  C
  C54      1.0000 0.22000  0.41538  0.17850  Biso   1.000  C
  C55      1.0000 0.78000  0.91538  0.32150  Biso   1.000  C
  C56      1.0000 0.78000  0.58462  0.82150  Biso   1.000  C
  H49      1.0000 0.23040  0.05310  0.67630  Biso   1.000  H
  H50      1.0000 0.23040  0.44690  0.17630  Biso   1.000  H
  H51      1.0000 0.76960  0.94690  0.32370  Biso   1.000  H
  H52      1.0000 0.76960  0.55310  0.82370  Biso   1.000  H
  C57      1.0000 0.23410  0.10689  0.74870  Biso   1.000  C
  C58      1.0000 0.23410  0.39311  0.24870  Biso   1.000  C
  C59      1.0000 0.76590  0.89311  0.25130  Biso   1.000  C
  C60      1.0000 0.76590  0.60689  0.75130  Biso   1.000  C
  H53      1.0000 0.25440  0.09030  0.79490  Biso   1.000  H
  H54      1.0000 0.25440  0.40970  0.29490  Biso   1.000  H
  H55      1.0000 0.74560  0.90970  0.20510  Biso   1.000  H
  H56      1.0000 0.74560  0.59030  0.70510  Biso   1.000  H
  C61      1.0000 0.21915  0.15235  0.75210  Biso   1.000  C
  C62      1.0000 0.21915  0.34765  0.25210  Biso   1.000  C
  C63      1.0000 0.78085  0.84765  0.24790  Biso   1.000  C
  C64      1.0000 0.78085  0.65235  0.74790  Biso   1.000  C
  H57      1.0000 0.22840  0.16700  0.80020  Biso   1.000  H
  H58      1.0000 0.22840  0.33300  0.30020  Biso   1.000  H
  H59      1.0000 0.77160  0.83300  0.19980  Biso   1.000  H
  H60      1.0000 0.77160  0.66700  0.69980  Biso   1.000  H
  C65      1.0000 0.19040  0.17675  0.68470  Biso   1.000  C
  C66      1.0000 0.19040  0.32325  0.18470  Biso   1.000  C
  C67      1.0000 0.80960  0.82325  0.31530  Biso   1.000  C
  C68      1.0000 0.80960  0.67675  0.81530  Biso   1.000  C
  H61      1.0000 0.18030  0.20830  0.68680  Biso   1.000  H
  H62      1.0000 0.18030  0.29170  0.18680  Biso   1.000  H
  H63      1.0000 0.81970  0.79170  0.31320  Biso   1.000  H
  H64      1.0000 0.81970  0.70830  0.81320  Biso   1.000  H
  C69      1.0000 0.17630  0.15566  0.61510  Biso   1.000  C
  C70      1.0000 0.17630  0.34434  0.11510  Biso   1.000  C
  C71      1.0000 0.82370  0.84434  0.38490  Biso   1.000  C
  C72      1.0000 0.82370  0.65566  0.88490  Biso   1.000  C
  H65      1.0000 0.15700  0.17250  0.56880  Biso   1.000  H
  H66      1.0000 0.15700  0.32750  0.06880  Biso   1.000  H
  H67      1.0000 0.84300  0.82750  0.43120  Biso   1.000  H
  H68      1.0000 0.84300  0.67250  0.93120  Biso   1.000  H
  C73      1.0000 0.07920  0.08474  0.49750  Biso   1.000  C
  C74      1.0000 0.07920  0.41526  0.99750  Biso   1.000  C
  C75      1.0000 0.92080  0.91526  0.50250  Biso   1.000  C
  C76      1.0000 0.92080  0.58474  0.00250  Biso   1.000  C
  C77      1.0000 0.05030  0.05884  0.53870  Biso   1.000  C
  C78      1.0000 0.05030  0.44116  0.03870  Biso   1.000  C
  C79      1.0000 0.94970  0.94116  0.46130  Biso   1.000  C
  C80      1.0000 0.94970  0.55884  0.96130  Biso   1.000  C
  H69      1.0000 0.07710  0.04140  0.58160  Biso   1.000  H
  H70      1.0000 0.07710  0.45860  0.08160  Biso   1.000  H
  H71      1.0000 0.92290  0.95860  0.41840  Biso   1.000  H
  H72      1.0000 0.92290  0.54140  0.91840  Biso   1.000  H
  C81      1.0000 0.98190  0.05840  0.51720  Biso   1.000  C
  C82      1.0000 0.98190  0.44160  0.01720  Biso   1.000  C
  C83      1.0000 0.01810  0.94160  0.48280  Biso   1.000  C
  C84      1.0000 0.01810  0.55840  0.98280  Biso   1.000  C
  H73      1.0000 0.96160  0.04050  0.54540  Biso   1.000  H
  H74      1.0000 0.96160  0.45950  0.04540  Biso   1.000  H
  H75      1.0000 0.03840  0.95950  0.45460  Biso   1.000  H
  H76      1.0000 0.03840  0.54050  0.95460  Biso   1.000  H
  C85      1.0000 0.94330  0.08320  0.45660  Biso   1.000  C
  C86      1.0000 0.94330  0.41680  0.95660  Biso   1.000  C
  C87      1.0000 0.05670  0.91680  0.54340  Biso   1.000  C
  C88      1.0000 0.05670  0.58320  0.04340  Biso   1.000  C
  H77      1.0000 0.89620  0.08220  0.44250  Biso   1.000  H
  H78      1.0000 0.89620  0.41780  0.94250  Biso   1.000  H
  H79      1.0000 0.10380  0.91780  0.55750  Biso   1.000  H
  H80      1.0000 0.10380  0.58220  0.05750  Biso   1.000  H
  C89      1.0000 0.97090  0.10930  0.41580  Biso   1.000  C
  C90      1.0000 0.97090  0.39070  0.91580  Biso   1.000  C
  C91      1.0000 0.02910  0.89070  0.58420  Biso   1.000  C
  C92      1.0000 0.02910  0.60930  0.08420  Biso   1.000  C
  H81      1.0000 0.94340  0.12680  0.37340  Biso   1.000  H
  H82      1.0000 0.94340  0.37320  0.87340  Biso   1.000  H
  H83      1.0000 0.05660  0.87320  0.62660  Biso   1.000  H
  H84      1.0000 0.05660  0.62680  0.12660  Biso   1.000  H
  C93      1.0000 0.04080  0.11059  0.43660  Biso   1.000  C
  C94      1.0000 0.04080  0.38941  0.93660  Biso   1.000  C
  C95      1.0000 0.95920  0.88941  0.56340  Biso   1.000  C
  C96      1.0000 0.95920  0.61059  0.06340  Biso   1.000  C
  H85      1.0000 0.06090  0.12900  0.40880  Biso   1.000  H
  H86      1.0000 0.06090  0.37100  0.90880  Biso   1.000  H
  H87      1.0000 0.93910  0.87100  0.59120  Biso   1.000  H
  H88      1.0000 0.93910  0.62900  0.09120  Biso   1.000  H
  C97      1.0000 0.26460  0.11194  0.34647  Biso   1.000  C
  C98      1.0000 0.26460  0.38806  0.84647  Biso   1.000  C
  C99      1.0000 0.73540  0.88806  0.65353  Biso   1.000  C
  C100     1.0000 0.73540  0.61194  0.15353  Biso   1.000  C
  C101     1.0000 0.24384  0.14493  0.38676  Biso   1.000  C
  C102     1.0000 0.24384  0.35507  0.88676  Biso   1.000  C
  C103     1.0000 0.75616  0.85507  0.61324  Biso   1.000  C
  C104     1.0000 0.75616  0.64493  0.11324  Biso   1.000  C
  H89      1.0000 0.24010  0.13730  0.43460  Biso   1.000  H
  H90      1.0000 0.24010  0.36270  0.93460  Biso   1.000  H
  H91      1.0000 0.75990  0.86270  0.56540  Biso   1.000  H
  H92      1.0000 0.75990  0.63730  0.06540  Biso   1.000  H
  C105     1.0000 0.22839  0.18921  0.35764  Biso   1.000  C
  C106     1.0000 0.22839  0.31079  0.85764  Biso   1.000  C
  C107     1.0000 0.77161  0.81079  0.64236  Biso   1.000  C
  C108     1.0000 0.77161  0.68921  0.14236  Biso   1.000  C
  C109     1.0000 0.22876  0.19869  0.28485  Biso   1.000  C
  C110     1.0000 0.22876  0.30131  0.78485  Biso   1.000  C
  C111     1.0000 0.77124  0.80131  0.71515  Biso   1.000  C
  C112     1.0000 0.77124  0.69869  0.21515  Biso   1.000  C
  H93      1.0000 0.21560  0.22820  0.26320  Biso   1.000  H
  H94      1.0000 0.21560  0.27180  0.76320  Biso   1.000  H
  H95      1.0000 0.78440  0.77180  0.73680  Biso   1.000  H
  H96      1.0000 0.78440  0.72820  0.23680  Biso   1.000  H
  C113     1.0000 0.24819  0.16562  0.24324  Biso   1.000  C
  C114     1.0000 0.24819  0.33438  0.74324  Biso   1.000  C
  C115     1.0000 0.75181  0.83438  0.75676  Biso   1.000  C
  C116     1.0000 0.75181  0.66562  0.25676  Biso   1.000  C
  C117     1.0000 0.26863  0.12278  0.27558  Biso   1.000  C
  C118     1.0000 0.26863  0.37722  0.77558  Biso   1.000  C
  C119     1.0000 0.73137  0.87722  0.72442  Biso   1.000  C
  C120     1.0000 0.73137  0.62278  0.22442  Biso   1.000  C
  H97      1.0000 0.28540  0.10090  0.24930  Biso   1.000  H
  H98      1.0000 0.28540  0.39910  0.74930  Biso   1.000  H
  H99      1.0000 0.71460  0.89910  0.75070  Biso   1.000  H
  H100     1.0000 0.71460  0.60090  0.25070  Biso   1.000  H
  C121     1.0000 0.28291  0.06463  0.38053  Biso   1.000  C
  C122     1.0000 0.28291  0.43537  0.88053  Biso   1.000  C
  C123     1.0000 0.71709  0.93537  0.61947  Biso   1.000  C
  C124     1.0000 0.71709  0.56463  0.11947  Biso   1.000  C
  O1       1.0000 0.25916  0.05544  0.43340  Biso   1.000  O
  O2       1.0000 0.25916  0.44456  0.93340  Biso   1.000  O
  O3       1.0000 0.74084  0.94456  0.56660  Biso   1.000  O
  O4       1.0000 0.74084  0.55544  0.06660  Biso   1.000  O
  O5       1.0000 0.31874  0.03990  0.35766  Biso   1.000  O
  O6       1.0000 0.31874  0.46010  0.85766  Biso   1.000  O
  O7       1.0000 0.68126  0.96010  0.64234  Biso   1.000  O
  O8       1.0000 0.68126  0.53990  0.14234  Biso   1.000  O
  C125     1.0000 0.21624  0.22637  0.40645  Biso   1.000  C
  C126     1.0000 0.21624  0.27363  0.90645  Biso   1.000  C
  C127     1.0000 0.78376  0.77363  0.59355  Biso   1.000  C
  C128     1.0000 0.78376  0.72637  0.09355  Biso   1.000  C
  O9       1.0000 0.19971  0.21263  0.46264  Biso   1.000  O
  O10      1.0000 0.19971  0.28737  0.96264  Biso   1.000  O
  O11      1.0000 0.80029  0.78737  0.53736  Biso   1.000  O
  O12      1.0000 0.80029  0.71263  0.03736  Biso   1.000  O
  O13      1.0000 0.22487  0.26700  0.39274  Biso   1.000  O
  O14      1.0000 0.22487  0.23300  0.89274  Biso   1.000  O
  O15      1.0000 0.77513  0.73300  0.60726  Biso   1.000  O
  O16      1.0000 0.77513  0.76700  0.10726  Biso   1.000  O
  C129     1.0000 0.24741  0.17711  0.16428  Biso   1.000  C
  C130     1.0000 0.24741  0.32289  0.66428  Biso   1.000  C
  C131     1.0000 0.75259  0.82289  0.83572  Biso   1.000  C
  C132     1.0000 0.75259  0.67711  0.33572  Biso   1.000  C
  O17      1.0000 0.20974  0.21118  0.13340  Biso   1.000  O
  O18      1.0000 0.20974  0.28882  0.63340  Biso   1.000  O
  O19      1.0000 0.79026  0.78882  0.86660  Biso   1.000  O
  O20      1.0000 0.79026  0.71118  0.36660  Biso   1.000  O
  O21      1.0000 0.28158  0.15508  0.13547  Biso   1.000  O
  O22      1.0000 0.28158  0.34492  0.63547  Biso   1.000  O
  O23      1.0000 0.71842  0.84492  0.86453  Biso   1.000  O
  O24      1.0000 0.71842  0.65508  0.36453  Biso   1.000  O
  C133     1.0000 0.25825  0.89197  0.64633  Biso   1.000  C
  C134     1.0000 0.25825  0.60803  0.14633  Biso   1.000  C
  C135     1.0000 0.74175  0.10803  0.35367  Biso   1.000  C
  C136     1.0000 0.74175  0.39197  0.85367  Biso   1.000  C
  C137     1.0000 0.27205  0.85744  0.60275  Biso   1.000  C
  C138     1.0000 0.27205  0.64256  0.10275  Biso   1.000  C
  C139     1.0000 0.72795  0.14256  0.39725  Biso   1.000  C
  C140     1.0000 0.72795  0.35744  0.89725  Biso   1.000  C
  H101     1.0000 0.27480  0.86460  0.55430  Biso   1.000  H
  H102     1.0000 0.27480  0.63540  0.05430  Biso   1.000  H
  H103     1.0000 0.72520  0.13540  0.44570  Biso   1.000  H
  H104     1.0000 0.72520  0.36460  0.94570  Biso   1.000  H
  C141     1.0000 0.28181  0.81248  0.62936  Biso   1.000  C
  C142     1.0000 0.28181  0.68752  0.12936  Biso   1.000  C
  C143     1.0000 0.71819  0.18752  0.37064  Biso   1.000  C
  C144     1.0000 0.71819  0.31248  0.87064  Biso   1.000  C
  C145     1.0000 0.28123  0.80292  0.70196  Biso   1.000  C
  C146     1.0000 0.28123  0.69708  0.20196  Biso   1.000  C
  C147     1.0000 0.71877  0.19708  0.29804  Biso   1.000  C
  C148     1.0000 0.71877  0.30292  0.79804  Biso   1.000  C
  H105     1.0000 0.28950  0.77250  0.72130  Biso   1.000  H
  H106     1.0000 0.28950  0.72750  0.22130  Biso   1.000  H
  H107     1.0000 0.71050  0.22750  0.27870  Biso   1.000  H
  H108     1.0000 0.71050  0.27250  0.77870  Biso   1.000  H
  C149     1.0000 0.26866  0.83719  0.74686  Biso   1.000  C
  C150     1.0000 0.26866  0.66281  0.24686  Biso   1.000  C
  C151     1.0000 0.73134  0.16281  0.25314  Biso   1.000  C
  C152     1.0000 0.73134  0.33719  0.75314  Biso   1.000  C
  C153     1.0000 0.25567  0.88158  0.71802  Biso   1.000  C
  C154     1.0000 0.25567  0.61842  0.21802  Biso   1.000  C
  C155     1.0000 0.74433  0.11842  0.28198  Biso   1.000  C
  C156     1.0000 0.74433  0.38158  0.78198  Biso   1.000  C
  H109     1.0000 0.24500  0.90490  0.74740  Biso   1.000  H
  H110     1.0000 0.24500  0.59510  0.24740  Biso   1.000  H
  H111     1.0000 0.75500  0.09510  0.25260  Biso   1.000  H
  H112     1.0000 0.75500  0.40490  0.75260  Biso   1.000  H
  C157     1.0000 0.24563  0.94049  0.61633  Biso   1.000  C
  C158     1.0000 0.24563  0.55951  0.11633  Biso   1.000  C
  C159     1.0000 0.75437  0.05951  0.38367  Biso   1.000  C
  C160     1.0000 0.75437  0.44049  0.88367  Biso   1.000  C
  O25      1.0000 0.25500  0.94731  0.55406  Biso   1.000  O
  O26      1.0000 0.25500  0.55269  0.05406  Biso   1.000  O
  O27      1.0000 0.74500  0.05269  0.44594  Biso   1.000  O
  O28      1.0000 0.74500  0.44731  0.94594  Biso   1.000  O
  O29      1.0000 0.22610  0.96912  0.65164  Biso   1.000  O
  O30      1.0000 0.22610  0.53088  0.15164  Biso   1.000  O
  O31      1.0000 0.77390  0.03088  0.34836  Biso   1.000  O
  O32      1.0000 0.77390  0.46912  0.84836  Biso   1.000  O
  C161     1.0000 0.28799  0.77405  0.57888  Biso   1.000  C
  C162     1.0000 0.28799  0.72595  0.07888  Biso   1.000  C
  C163     1.0000 0.71201  0.22595  0.42112  Biso   1.000  C
  C164     1.0000 0.71201  0.27405  0.92112  Biso   1.000  C
  O33      1.0000 0.30951  0.78517  0.52512  Biso   1.000  O
  O34      1.0000 0.30951  0.71483  0.02512  Biso   1.000  O
  O35      1.0000 0.69049  0.21483  0.47488  Biso   1.000  O
  O36      1.0000 0.69049  0.28517  0.97488  Biso   1.000  O
  O37      1.0000 0.27019  0.73483  0.58923  Biso   1.000  O
  O38      1.0000 0.27019  0.76517  0.08923  Biso   1.000  O
  O39      1.0000 0.72981  0.26517  0.41077  Biso   1.000  O
  O40      1.0000 0.72981  0.23483  0.91077  Biso   1.000  O
  C165     1.0000 0.26928  0.82576  0.82582  Biso   1.000  C
  C166     1.0000 0.26928  0.67424  0.32582  Biso   1.000  C
  C167     1.0000 0.73072  0.17424  0.17418  Biso   1.000  C
  C168     1.0000 0.73072  0.32576  0.67418  Biso   1.000  C
  O41      1.0000 0.24661  0.85323  0.86092  Biso   1.000  O
  O42      1.0000 0.24661  0.64677  0.36092  Biso   1.000  O
  O43      1.0000 0.75339  0.14677  0.13908  Biso   1.000  O
  O44      1.0000 0.75339  0.35323  0.63908  Biso   1.000  O
  O45      1.0000 0.29438  0.78666  0.85028  Biso   1.000  O
  O46      1.0000 0.29438  0.71334  0.35028  Biso   1.000  O
  O47      1.0000 0.70562  0.21334  0.14972  Biso   1.000  O
  O48      1.0000 0.70562  0.28666  0.64972  Biso   1.000  O
  Cu5      1.0000 0.20911  0.25807  0.54174  Biso   1.000  Cu
  Cu6      1.0000 0.20911  0.24193  0.04174  Biso   1.000  Cu
  Cu7      1.0000 0.79090  0.74193  0.45826  Biso   1.000  Cu
  Cu8      1.0000 0.79090  0.75807  0.95826  Biso   1.000  Cu
  N9       1.0000 0.12578  0.28834  0.48595  Biso   1.000  N
  N10      1.0000 0.12578  0.21166  0.98595  Biso   1.000  N
  N11      1.0000 0.87422  0.71166  0.51405  Biso   1.000  N
  N12      1.0000 0.87422  0.78834  0.01405  Biso   1.000  N
  H113     1.0000 0.11300  0.30860  0.50400  Biso   1.000  H
  H114     1.0000 0.11300  0.19140  0.00400  Biso   1.000  H
  H115     1.0000 0.88700  0.69140  0.49600  Biso   1.000  H
  H116     1.0000 0.88700  0.80860  0.99600  Biso   1.000  H
  S9       1.0000 0.08483  0.28131  0.39678  Biso   1.000  S
  S10      1.0000 0.08483  0.21869  0.89678  Biso   1.000  S
  S11      1.0000 0.91517  0.71869  0.60322  Biso   1.000  S
  S12      1.0000 0.91517  0.78131  0.10322  Biso   1.000  S
  C169     1.0000 0.99873  0.27549  0.38540  Biso   1.000  C
  C170     1.0000 0.99873  0.22451  0.88540  Biso   1.000  C
  C171     1.0000 0.00127  0.72451  0.61460  Biso   1.000  C
  C172     1.0000 0.00127  0.77549  0.11460  Biso   1.000  C
  C173     1.0000 0.96536  0.23738  0.34580  Biso   1.000  C
  C174     1.0000 0.96536  0.26262  0.84580  Biso   1.000  C
  C175     1.0000 0.03464  0.76262  0.65420  Biso   1.000  C
  C176     1.0000 0.03464  0.73738  0.15420  Biso   1.000  C
  H117     1.0000 0.98720  0.21630  0.32390  Biso   1.000  H
  H118     1.0000 0.98720  0.28370  0.82390  Biso   1.000  H
  H119     1.0000 0.01280  0.78370  0.67610  Biso   1.000  H
  H120     1.0000 0.01280  0.71630  0.17610  Biso   1.000  H
  C177     1.0000 0.89929  0.23058  0.33880  Biso   1.000  C
  C178     1.0000 0.89929  0.26942  0.83880  Biso   1.000  C
  C179     1.0000 0.10071  0.76942  0.66120  Biso   1.000  C
  C180     1.0000 0.10071  0.73058  0.16120  Biso   1.000  C
  H121     1.0000 0.87550  0.20490  0.31100  Biso   1.000  H
  H122     1.0000 0.87550  0.29510  0.81100  Biso   1.000  H
  H123     1.0000 0.12450  0.79510  0.68900  Biso   1.000  H
  H124     1.0000 0.12450  0.70490  0.18900  Biso   1.000  H
  C181     1.0000 0.86808  0.26094  0.37200  Biso   1.000  C
  C182     1.0000 0.86808  0.23906  0.87200  Biso   1.000  C
  C183     1.0000 0.13192  0.73906  0.62800  Biso   1.000  C
  C184     1.0000 0.13192  0.76094  0.12800  Biso   1.000  C
  H125     1.0000 0.82310  0.25590  0.36750  Biso   1.000  H
  H126     1.0000 0.82310  0.24410  0.86750  Biso   1.000  H
  H127     1.0000 0.17690  0.74410  0.63250  Biso   1.000  H
  H128     1.0000 0.17690  0.75590  0.13250  Biso   1.000  H
  C185     1.0000 0.90205  0.29838  0.41140  Biso   1.000  C
  C186     1.0000 0.90205  0.20162  0.91140  Biso   1.000  C
  C187     1.0000 0.09795  0.70162  0.58860  Biso   1.000  C
  C188     1.0000 0.09795  0.79838  0.08860  Biso   1.000  C
  H129     1.0000 0.88040  0.31920  0.43400  Biso   1.000  H
  H130     1.0000 0.88040  0.18080  0.93400  Biso   1.000  H
  H131     1.0000 0.11960  0.68080  0.56600  Biso   1.000  H
  H132     1.0000 0.11960  0.81920  0.06600  Biso   1.000  H
  C189     1.0000 0.96767  0.30602  0.41850  Biso   1.000  C
  C190     1.0000 0.96767  0.19398  0.91850  Biso   1.000  C
  C191     1.0000 0.03233  0.69398  0.58150  Biso   1.000  C
  C192     1.0000 0.03233  0.80602  0.08150  Biso   1.000  C
  H133     1.0000 0.99110  0.33200  0.44570  Biso   1.000  H
  H134     1.0000 0.99110  0.16800  0.94570  Biso   1.000  H
  H135     1.0000 0.00890  0.66800  0.55430  Biso   1.000  H
  H136     1.0000 0.00890  0.83200  0.05430  Biso   1.000  H
  C193     1.0000 0.08172  0.33425  0.34670  Biso   1.000  C
  C194     1.0000 0.08172  0.16575  0.84670  Biso   1.000  C
  C195     1.0000 0.91828  0.66575  0.65330  Biso   1.000  C
  C196     1.0000 0.91828  0.83425  0.15330  Biso   1.000  C
  C197     1.0000 0.05104  0.33445  0.26770  Biso   1.000  C
  C198     1.0000 0.05104  0.16555  0.76770  Biso   1.000  C
  C199     1.0000 0.94896  0.66555  0.73230  Biso   1.000  C
  C200     1.0000 0.94896  0.83445  0.23230  Biso   1.000  C
  H137     1.0000 0.03080  0.30730  0.24150  Biso   1.000  H
  H138     1.0000 0.03080  0.19270  0.74150  Biso   1.000  H
  H139     1.0000 0.96920  0.69270  0.75850  Biso   1.000  H
  H140     1.0000 0.96920  0.80730  0.25850  Biso   1.000  H
  C201     1.0000 0.04999  0.37417  0.22730  Biso   1.000  C
  C202     1.0000 0.04999  0.12583  0.72730  Biso   1.000  C
  C203     1.0000 0.95001  0.62583  0.77270  Biso   1.000  C
  C204     1.0000 0.95001  0.87417  0.27270  Biso   1.000  C
  H141     1.0000 0.02820  0.37460  0.17330  Biso   1.000  H
  H142     1.0000 0.02820  0.12540  0.67330  Biso   1.000  H
  H143     1.0000 0.97180  0.62540  0.82670  Biso   1.000  H
  H144     1.0000 0.97180  0.87460  0.32670  Biso   1.000  H
  C205     1.0000 0.08040  0.41300  0.26510  Biso   1.000  C
  C206     1.0000 0.08040  0.08700  0.76510  Biso   1.000  C
  C207     1.0000 0.91960  0.58700  0.73490  Biso   1.000  C
  C208     1.0000 0.91960  0.91300  0.23490  Biso   1.000  C
  H145     1.0000 0.08000  0.44020  0.23700  Biso   1.000  H
  H146     1.0000 0.08000  0.05980  0.73700  Biso   1.000  H
  H147     1.0000 0.92000  0.55980  0.76300  Biso   1.000  H
  H148     1.0000 0.92000  0.94020  0.26300  Biso   1.000  H
  C209     1.0000 0.11170  0.41276  0.34410  Biso   1.000  C
  C210     1.0000 0.11170  0.08724  0.84410  Biso   1.000  C
  C211     1.0000 0.88830  0.58724  0.65590  Biso   1.000  C
  C212     1.0000 0.88830  0.91276  0.15590  Biso   1.000  C
  H149     1.0000 0.13250  0.43980  0.36990  Biso   1.000  H
  H150     1.0000 0.13250  0.06020  0.86990  Biso   1.000  H
  H151     1.0000 0.86750  0.56020  0.63010  Biso   1.000  H
  H152     1.0000 0.86750  0.93980  0.13010  Biso   1.000  H
  C213     1.0000 0.11270  0.37295  0.38550  Biso   1.000  C
  C214     1.0000 0.11270  0.12705  0.88550  Biso   1.000  C
  C215     1.0000 0.88730  0.62705  0.61450  Biso   1.000  C
  C216     1.0000 0.88730  0.87295  0.11450  Biso   1.000  C
  H153     1.0000 0.13440  0.37240  0.43960  Biso   1.000  H
  H154     1.0000 0.13440  0.12760  0.93960  Biso   1.000  H
  H155     1.0000 0.86560  0.62760  0.56040  Biso   1.000  H
  H156     1.0000 0.86560  0.87240  0.06040  Biso   1.000  H
  N13      1.0000 0.29578  0.23229  0.60236  Biso   1.000  N
  N14      1.0000 0.29578  0.26771  0.10236  Biso   1.000  N
  N15      1.0000 0.70422  0.76771  0.39764  Biso   1.000  N
  N16      1.0000 0.70422  0.73229  0.89764  Biso   1.000  N
  H157     1.0000 0.31360  0.23850  0.64490  Biso   1.000  H
  H158     1.0000 0.31360  0.26150  0.14490  Biso   1.000  H
  H159     1.0000 0.68640  0.76150  0.35510  Biso   1.000  H
  H160     1.0000 0.68640  0.73850  0.85510  Biso   1.000  H
  S13      1.0000 0.34294  0.20089  0.57419  Biso   1.000  S
  S14      1.0000 0.34294  0.29911  0.07419  Biso   1.000  S
  S15      1.0000 0.65706  0.79911  0.42581  Biso   1.000  S
  S16      1.0000 0.65706  0.70089  0.92581  Biso   1.000  S
  C217     1.0000 0.42384  0.22756  0.60610  Biso   1.000  C
  C218     1.0000 0.42384  0.27244  0.10610  Biso   1.000  C
  C219     1.0000 0.57616  0.77244  0.39390  Biso   1.000  C
  C220     1.0000 0.57616  0.72756  0.89390  Biso   1.000  C
  C221     1.0000 0.43090  0.27220  0.63180  Biso   1.000  C
  C222     1.0000 0.43090  0.22780  0.13180  Biso   1.000  C
  C223     1.0000 0.56910  0.72780  0.36820  Biso   1.000  C
  C224     1.0000 0.56910  0.77220  0.86820  Biso   1.000  C
  H161     1.0000 0.39390  0.28870  0.63530  Biso   1.000  H
  H162     1.0000 0.39390  0.21130  0.13530  Biso   1.000  H
  H163     1.0000 0.60610  0.71130  0.36470  Biso   1.000  H
  H164     1.0000 0.60610  0.78870  0.86470  Biso   1.000  H
  C225     1.0000 0.49330  0.29261  0.65250  Biso   1.000  C
  C226     1.0000 0.49330  0.20739  0.15250  Biso   1.000  C
  C227     1.0000 0.50670  0.70739  0.34750  Biso   1.000  C
  C228     1.0000 0.50670  0.79261  0.84750  Biso   1.000  C
  H165     1.0000 0.49940  0.32310  0.67190  Biso   1.000  H
  H166     1.0000 0.49940  0.17690  0.17190  Biso   1.000  H
  H167     1.0000 0.50060  0.67690  0.32810  Biso   1.000  H
  H168     1.0000 0.50060  0.82310  0.82810  Biso   1.000  H
  C229     1.0000 0.54630  0.26919  0.64530  Biso   1.000  C
  C230     1.0000 0.54630  0.23081  0.14530  Biso   1.000  C
  C231     1.0000 0.45370  0.73081  0.35470  Biso   1.000  C
  C232     1.0000 0.45370  0.76919  0.85470  Biso   1.000  C
  H169     1.0000 0.58850  0.28380  0.65860  Biso   1.000  H
  H170     1.0000 0.58850  0.21620  0.15860  Biso   1.000  H
  H171     1.0000 0.41150  0.71620  0.34140  Biso   1.000  H
  H172     1.0000 0.41150  0.78380  0.84140  Biso   1.000  H
  C233     1.0000 0.53870  0.22550  0.61950  Biso   1.000  C
  C234     1.0000 0.53870  0.27450  0.11950  Biso   1.000  C
  C235     1.0000 0.46130  0.77450  0.38050  Biso   1.000  C
  C236     1.0000 0.46130  0.72550  0.88050  Biso   1.000  C
  H173     1.0000 0.57570  0.20940  0.61500  Biso   1.000  H
  H174     1.0000 0.57570  0.29060  0.11500  Biso   1.000  H
  H175     1.0000 0.42430  0.79060  0.38500  Biso   1.000  H
  H176     1.0000 0.42430  0.70940  0.88500  Biso   1.000  H
  C237     1.0000 0.47720  0.20396  0.59950  Biso   1.000  C
  C238     1.0000 0.47720  0.29604  0.09950  Biso   1.000  C
  C239     1.0000 0.52280  0.79604  0.40050  Biso   1.000  C
  C240     1.0000 0.52280  0.70396  0.90050  Biso   1.000  C
  H177     1.0000 0.47190  0.17320  0.58140  Biso   1.000  H
  H178     1.0000 0.47190  0.32680  0.08140  Biso   1.000  H
  H179     1.0000 0.52810  0.82680  0.41860  Biso   1.000  H
  H180     1.0000 0.52810  0.67320  0.91860  Biso   1.000  H
  C241     1.0000 0.36284  0.14929  0.63000  Biso   1.000  C
  C242     1.0000 0.36284  0.35071  0.13000  Biso   1.000  C
  C243     1.0000 0.63716  0.85071  0.37000  Biso   1.000  C
  C244     1.0000 0.63716  0.64929  0.87000  Biso   1.000  C
  C245     1.0000 0.35937  0.10835  0.59150  Biso   1.000  C
  C246     1.0000 0.35937  0.39165  0.09150  Biso   1.000  C
  C247     1.0000 0.64063  0.89165  0.40850  Biso   1.000  C
  C248     1.0000 0.64063  0.60835  0.90850  Biso   1.000  C
  H181     1.0000 0.34680  0.10790  0.53720  Biso   1.000  H
  H182     1.0000 0.34680  0.39210  0.03720  Biso   1.000  H
  H183     1.0000 0.65320  0.89210  0.46280  Biso   1.000  H
  H184     1.0000 0.65320  0.60790  0.96280  Biso   1.000  H
  C249     1.0000 0.37460  0.06773  0.63350  Biso   1.000  C
  C250     1.0000 0.37460  0.43227  0.13350  Biso   1.000  C
  C251     1.0000 0.62540  0.93227  0.36650  Biso   1.000  C
  C252     1.0000 0.62540  0.56773  0.86650  Biso   1.000  C
  H185     1.0000 0.37330  0.03940  0.60790  Biso   1.000  H
  H186     1.0000 0.37330  0.46060  0.10790  Biso   1.000  H
  H187     1.0000 0.62670  0.96060  0.39210  Biso   1.000  H
  H188     1.0000 0.62670  0.53940  0.89210  Biso   1.000  H
  C253     1.0000 0.39160  0.06834  0.71200  Biso   1.000  C
  C254     1.0000 0.39160  0.43166  0.21200  Biso   1.000  C
  C255     1.0000 0.60840  0.93166  0.28800  Biso   1.000  C
  C256     1.0000 0.60840  0.56834  0.78800  Biso   1.000  C
  H189     1.0000 0.40150  0.04050  0.74020  Biso   1.000  H
  H190     1.0000 0.40150  0.45950  0.24020  Biso   1.000  H
  H191     1.0000 0.59850  0.95950  0.25980  Biso   1.000  H
  H192     1.0000 0.59850  0.54050  0.75980  Biso   1.000  H
  C257     1.0000 0.39410  0.10931  0.74930  Biso   1.000  C
  C258     1.0000 0.39410  0.39069  0.24930  Biso   1.000  C
  C259     1.0000 0.60590  0.89069  0.25070  Biso   1.000  C
  C260     1.0000 0.60590  0.60931  0.75070  Biso   1.000  C
  H193     1.0000 0.40560  0.10960  0.80340  Biso   1.000  H
  H194     1.0000 0.40560  0.39040  0.30340  Biso   1.000  H
  H195     1.0000 0.59440  0.89040  0.19660  Biso   1.000  H
  H196     1.0000 0.59440  0.60960  0.69660  Biso   1.000  H
  C261     1.0000 0.38010  0.15016  0.70920  Biso   1.000  C
  C262     1.0000 0.38010  0.34984  0.20920  Biso   1.000  C
  C263     1.0000 0.61990  0.84984  0.29080  Biso   1.000  C
  C264     1.0000 0.61990  0.65016  0.79080  Biso   1.000  C
  H197     1.0000 0.38220  0.17840  0.73530  Biso   1.000  H
  H198     1.0000 0.38220  0.32160  0.23530  Biso   1.000  H
  H199     1.0000 0.61780  0.82160  0.26470  Biso   1.000  H
  H200     1.0000 0.61780  0.67840  0.76470  Biso   1.000  H
  Cu9      1.0000 0.29481  0.73864  0.44604  Biso   1.000  Cu
  Cu10     1.0000 0.29481  0.76136  0.94604  Biso   1.000  Cu
  Cu11     1.0000 0.70519  0.26136  0.55396  Biso   1.000  Cu
  Cu12     1.0000 0.70519  0.23864  0.05396  Biso   1.000  Cu
  N17      1.0000 0.37169  0.70189  0.50105  Biso   1.000  N
  N18      1.0000 0.37169  0.79811  0.00105  Biso   1.000  N
  N19      1.0000 0.62831  0.29811  0.49895  Biso   1.000  N
  N20      1.0000 0.62831  0.20189  0.99895  Biso   1.000  N
  H201     1.0000 0.38630  0.68540  0.47900  Biso   1.000  H
  H202     1.0000 0.38630  0.81460  0.97900  Biso   1.000  H
  H203     1.0000 0.61370  0.31460  0.52100  Biso   1.000  H
  H204     1.0000 0.61370  0.18540  0.02100  Biso   1.000  H
  S17      1.0000 0.41067  0.70435  0.59106  Biso   1.000  S
  S18      1.0000 0.41067  0.79565  0.09106  Biso   1.000  S
  S19      1.0000 0.58933  0.29565  0.40894  Biso   1.000  S
  S20      1.0000 0.58933  0.20435  0.90894  Biso   1.000  S
  C265     1.0000 0.41562  0.64792  0.63100  Biso   1.000  C
  C266     1.0000 0.41562  0.85208  0.13100  Biso   1.000  C
  C267     1.0000 0.58438  0.35208  0.36900  Biso   1.000  C
  C268     1.0000 0.58438  0.14792  0.86900  Biso   1.000  C
  C269     1.0000 0.39830  0.60935  0.58550  Biso   1.000  C
  C270     1.0000 0.39830  0.89065  0.08550  Biso   1.000  C
  C271     1.0000 0.60170  0.39065  0.41450  Biso   1.000  C
  C272     1.0000 0.60170  0.10935  0.91450  Biso   1.000  C
  H205     1.0000 0.38260  0.61190  0.53120  Biso   1.000  H
  H206     1.0000 0.38260  0.88810  0.03120  Biso   1.000  H
  H207     1.0000 0.61740  0.38810  0.46880  Biso   1.000  H
  H208     1.0000 0.61740  0.11190  0.96880  Biso   1.000  H
  C273     1.0000 0.40430  0.56646  0.62040  Biso   1.000  C
  C274     1.0000 0.40430  0.93354  0.12040  Biso   1.000  C
  C275     1.0000 0.59570  0.43354  0.37960  Biso   1.000  C
  C276     1.0000 0.59570  0.06646  0.87960  Biso   1.000  C
  H209     1.0000 0.39330  0.53950  0.58980  Biso   1.000  H
  H210     1.0000 0.39330  0.96050  0.08980  Biso   1.000  H
  H211     1.0000 0.60670  0.46050  0.41020  Biso   1.000  H
  H212     1.0000 0.60670  0.03950  0.91020  Biso   1.000  H
  C277     1.0000 0.42600  0.56320  0.69870  Biso   1.000  C
  C278     1.0000 0.42600  0.93680  0.19870  Biso   1.000  C
  C279     1.0000 0.57400  0.43680  0.30130  Biso   1.000  C
  C280     1.0000 0.57400  0.06320  0.80130  Biso   1.000  C
  H213     1.0000 0.43000  0.53390  0.72210  Biso   1.000  H
  H214     1.0000 0.43000  0.96610  0.22210  Biso   1.000  H
  H215     1.0000 0.57000  0.46610  0.27790  Biso   1.000  H
  H216     1.0000 0.57000  0.03390  0.77790  Biso   1.000  H
  C281     1.0000 0.44190  0.60150  0.74320  Biso   1.000  C
  C282     1.0000 0.44190  0.89850  0.24320  Biso   1.000  C
  C283     1.0000 0.55810  0.39850  0.25680  Biso   1.000  C
  C284     1.0000 0.55810  0.10150  0.75680  Biso   1.000  C
  H217     1.0000 0.45660  0.59860  0.79740  Biso   1.000  H
  H218     1.0000 0.45660  0.90140  0.29740  Biso   1.000  H
  H219     1.0000 0.54340  0.40140  0.20260  Biso   1.000  H
  H220     1.0000 0.54340  0.09860  0.70260  Biso   1.000  H
  C285     1.0000 0.43690  0.64490  0.71040  Biso   1.000  C
  C286     1.0000 0.43690  0.85510  0.21040  Biso   1.000  C
  C287     1.0000 0.56310  0.35510  0.28960  Biso   1.000  C
  C288     1.0000 0.56310  0.14490  0.78960  Biso   1.000  C
  H221     1.0000 0.44780  0.67170  0.74140  Biso   1.000  H
  H222     1.0000 0.44780  0.82830  0.24140  Biso   1.000  H
  H223     1.0000 0.55220  0.32830  0.25860  Biso   1.000  H
  H224     1.0000 0.55220  0.17170  0.75860  Biso   1.000  H
  C289     1.0000 0.49716  0.71348  0.60787  Biso   1.000  C
  C290     1.0000 0.49716  0.78652  0.10787  Biso   1.000  C
  C291     1.0000 0.50284  0.28652  0.39213  Biso   1.000  C
  C292     1.0000 0.50284  0.21348  0.89213  Biso   1.000  C
  C293     1.0000 0.52934  0.68978  0.56690  Biso   1.000  C
  C294     1.0000 0.52934  0.81022  0.06690  Biso   1.000  C
  C295     1.0000 0.47066  0.31022  0.43310  Biso   1.000  C
  C296     1.0000 0.47066  0.18978  0.93310  Biso   1.000  C
  H225     1.0000 0.50620  0.66730  0.53030  Biso   1.000  H
  H226     1.0000 0.50620  0.83270  0.03030  Biso   1.000  H
  H227     1.0000 0.49380  0.33270  0.46970  Biso   1.000  H
  H228     1.0000 0.49380  0.16730  0.96970  Biso   1.000  H
  C297     1.0000 0.59550  0.69913  0.57950  Biso   1.000  C
  C298     1.0000 0.59550  0.80087  0.07950  Biso   1.000  C
  C299     1.0000 0.40450  0.30087  0.42050  Biso   1.000  C
  C300     1.0000 0.40450  0.19913  0.92050  Biso   1.000  C
  H229     1.0000 0.61810  0.68280  0.55200  Biso   1.000  H
  H230     1.0000 0.61810  0.81720  0.05200  Biso   1.000  H
  H231     1.0000 0.38190  0.31720  0.44800  Biso   1.000  H
  H232     1.0000 0.38190  0.18280  0.94800  Biso   1.000  H
  C301     1.0000 0.62900  0.73216  0.63200  Biso   1.000  C
  C302     1.0000 0.62900  0.76784  0.13200  Biso   1.000  C
  C303     1.0000 0.37100  0.26784  0.36800  Biso   1.000  C
  C304     1.0000 0.37100  0.23216  0.86800  Biso   1.000  C
  H233     1.0000 0.67440  0.73860  0.64040  Biso   1.000  H
  H234     1.0000 0.67440  0.76140  0.14040  Biso   1.000  H
  H235     1.0000 0.32560  0.26140  0.35960  Biso   1.000  H
  H236     1.0000 0.32560  0.23860  0.85960  Biso   1.000  H
  C305     1.0000 0.59610  0.75606  0.67260  Biso   1.000  C
  C306     1.0000 0.59610  0.74394  0.17260  Biso   1.000  C
  C307     1.0000 0.40390  0.24394  0.32740  Biso   1.000  C
  C308     1.0000 0.40390  0.25606  0.82740  Biso   1.000  C
  H237     1.0000 0.61920  0.77880  0.70870  Biso   1.000  H
  H238     1.0000 0.61920  0.72120  0.20870  Biso   1.000  H
  H239     1.0000 0.38080  0.22120  0.29130  Biso   1.000  H
  H240     1.0000 0.38080  0.27880  0.79130  Biso   1.000  H
  C309     1.0000 0.52963  0.74671  0.66050  Biso   1.000  C
  C310     1.0000 0.52963  0.75329  0.16050  Biso   1.000  C
  C311     1.0000 0.47037  0.25329  0.33950  Biso   1.000  C
  C312     1.0000 0.47037  0.24671  0.83950  Biso   1.000  C
  H241     1.0000 0.50690  0.76290  0.68810  Biso   1.000  H
  H242     1.0000 0.50690  0.73710  0.18810  Biso   1.000  H
  H243     1.0000 0.49310  0.23710  0.31190  Biso   1.000  H
  H244     1.0000 0.49310  0.26290  0.81190  Biso   1.000  H
  N21      1.0000 0.20582  0.76244  0.38965  Biso   1.000  N
  N22      1.0000 0.20582  0.73756  0.88965  Biso   1.000  N
  N23      1.0000 0.79418  0.23756  0.61035  Biso   1.000  N
  N24      1.0000 0.79418  0.26244  0.11035  Biso   1.000  N
  H245     1.0000 0.18900  0.75760  0.34590  Biso   1.000  H
  H246     1.0000 0.18900  0.74240  0.84590  Biso   1.000  H
  H247     1.0000 0.81100  0.24240  0.65410  Biso   1.000  H
  H248     1.0000 0.81100  0.25760  0.15410  Biso   1.000  H
  S21      1.0000 0.16292  0.79540  0.42240  Biso   1.000  S
  S22      1.0000 0.16292  0.70460  0.92240  Biso   1.000  S
  S23      1.0000 0.83708  0.20460  0.57760  Biso   1.000  S
  S24      1.0000 0.83708  0.29540  0.07760  Biso   1.000  S
  C313     1.0000 0.14141  0.84622  0.36490  Biso   1.000  C
  C314     1.0000 0.14141  0.65378  0.86490  Biso   1.000  C
  C315     1.0000 0.85859  0.15378  0.63510  Biso   1.000  C
  C316     1.0000 0.85859  0.34622  0.13510  Biso   1.000  C
  C317     1.0000 0.14628  0.88763  0.40250  Biso   1.000  C
  C318     1.0000 0.14628  0.61237  0.90250  Biso   1.000  C
  C319     1.0000 0.85372  0.11237  0.59750  Biso   1.000  C
  C320     1.0000 0.85372  0.38763  0.09750  Biso   1.000  C
  H249     1.0000 0.15910  0.88860  0.45670  Biso   1.000  H
  H250     1.0000 0.15910  0.61140  0.95670  Biso   1.000  H
  H251     1.0000 0.84090  0.11140  0.54330  Biso   1.000  H
  H252     1.0000 0.84090  0.38860  0.04330  Biso   1.000  H
  C321     1.0000 0.13220  0.92792  0.35980  Biso   1.000  C
  C322     1.0000 0.13220  0.57208  0.85980  Biso   1.000  C
  C323     1.0000 0.86780  0.07208  0.64020  Biso   1.000  C
  C324     1.0000 0.86780  0.42792  0.14020  Biso   1.000  C
  H253     1.0000 0.13480  0.95660  0.38490  Biso   1.000  H
  H254     1.0000 0.13480  0.54340  0.88490  Biso   1.000  H
  H255     1.0000 0.86520  0.04340  0.61510  Biso   1.000  H
  H256     1.0000 0.86520  0.45660  0.11510  Biso   1.000  H
  C325     1.0000 0.11440  0.92648  0.28110  Biso   1.000  C
  C326     1.0000 0.11440  0.57352  0.78110  Biso   1.000  C
  C327     1.0000 0.88560  0.07352  0.71890  Biso   1.000  C
  C328     1.0000 0.88560  0.42648  0.21890  Biso   1.000  C
  H257     1.0000 0.10520  0.95410  0.25230  Biso   1.000  H
  H258     1.0000 0.10520  0.54590  0.75230  Biso   1.000  H
  H259     1.0000 0.89480  0.04590  0.74770  Biso   1.000  H
  H260     1.0000 0.89480  0.45410  0.24770  Biso   1.000  H
  C329     1.0000 0.10997  0.88494  0.24420  Biso   1.000  C
  C330     1.0000 0.10997  0.61506  0.74420  Biso   1.000  C
  C331     1.0000 0.89003  0.11506  0.75580  Biso   1.000  C
  C332     1.0000 0.89003  0.38494  0.25580  Biso   1.000  C
  H261     1.0000 0.09780  0.88410  0.19010  Biso   1.000  H
  H262     1.0000 0.09780  0.61590  0.69010  Biso   1.000  H
  H263     1.0000 0.90220  0.11590  0.80990  Biso   1.000  H
  H264     1.0000 0.90220  0.38410  0.30990  Biso   1.000  H
  C333     1.0000 0.12306  0.84440  0.28550  Biso   1.000  C
  C334     1.0000 0.12306  0.65560  0.78550  Biso   1.000  C
  C335     1.0000 0.87694  0.15560  0.71450  Biso   1.000  C
  C336     1.0000 0.87694  0.34440  0.21450  Biso   1.000  C
  H265     1.0000 0.11960  0.81580  0.26000  Biso   1.000  H
  H266     1.0000 0.11960  0.68420  0.76000  Biso   1.000  H
  H267     1.0000 0.88040  0.18420  0.74000  Biso   1.000  H
  H268     1.0000 0.88040  0.31580  0.24000  Biso   1.000  H
  C337     1.0000 0.08186  0.77045  0.40120  Biso   1.000  C
  C338     1.0000 0.08186  0.72955  0.90120  Biso   1.000  C
  C339     1.0000 0.91814  0.22955  0.59880  Biso   1.000  C
  C340     1.0000 0.91814  0.27045  0.09880  Biso   1.000  C
  C341     1.0000 0.03920  0.79194  0.43270  Biso   1.000  C
  C342     1.0000 0.03920  0.70806  0.93270  Biso   1.000  C
  C343     1.0000 0.96080  0.20806  0.56730  Biso   1.000  C
  C344     1.0000 0.96080  0.29194  0.06730  Biso   1.000  C
  H269     1.0000 0.05250  0.81910  0.46220  Biso   1.000  H
  H270     1.0000 0.05250  0.68090  0.96220  Biso   1.000  H
  H271     1.0000 0.94750  0.18090  0.53780  Biso   1.000  H
  H272     1.0000 0.94750  0.31910  0.03780  Biso   1.000  H
  C345     1.0000 0.97730  0.77288  0.42010  Biso   1.000  C
  C346     1.0000 0.97730  0.72712  0.92010  Biso   1.000  C
  C347     1.0000 0.02270  0.22712  0.57990  Biso   1.000  C
  C348     1.0000 0.02270  0.27288  0.07990  Biso   1.000  C
  H273     1.0000 0.94790  0.78720  0.44110  Biso   1.000  H
  H274     1.0000 0.94790  0.71280  0.94110  Biso   1.000  H
  H275     1.0000 0.05210  0.21280  0.55890  Biso   1.000  H
  H276     1.0000 0.05210  0.28720  0.05890  Biso   1.000  H
  C349     1.0000 0.95770  0.73336  0.37760  Biso   1.000  C
  C350     1.0000 0.95770  0.76664  0.87760  Biso   1.000  C
  C351     1.0000 0.04230  0.26664  0.62240  Biso   1.000  C
  C352     1.0000 0.04230  0.23336  0.12240  Biso   1.000  C
  H277     1.0000 0.91500  0.72060  0.36910  Biso   1.000  H
  H278     1.0000 0.91500  0.77940  0.86910  Biso   1.000  H
  H279     1.0000 0.08500  0.27940  0.63090  Biso   1.000  H
  H280     1.0000 0.08500  0.22060  0.13090  Biso   1.000  H
  C353     1.0000 0.00080  0.71237  0.34740  Biso   1.000  C
  C354     1.0000 0.00080  0.78763  0.84740  Biso   1.000  C
  C355     1.0000 0.99920  0.28763  0.65260  Biso   1.000  C
  C356     1.0000 0.99920  0.21237  0.15260  Biso   1.000  C
  H281     1.0000 0.98730  0.68520  0.31780  Biso   1.000  H
  H282     1.0000 0.98730  0.81480  0.81780  Biso   1.000  H
  H283     1.0000 0.01270  0.31480  0.68220  Biso   1.000  H
  H284     1.0000 0.01270  0.18520  0.18220  Biso   1.000  H
  C357     1.0000 0.06370  0.73057  0.35980  Biso   1.000  C
  C358     1.0000 0.06370  0.76943  0.85980  Biso   1.000  C
  C359     1.0000 0.93630  0.26943  0.64020  Biso   1.000  C
  C360     1.0000 0.93630  0.23057  0.14020  Biso   1.000  C
  H285     1.0000 0.09350  0.71570  0.34000  Biso   1.000  H
  H286     1.0000 0.09350  0.78430  0.84000  Biso   1.000  H
  H287     1.0000 0.90650  0.28430  0.66000  Biso   1.000  H
  H288     1.0000 0.90650  0.21570  0.16000  Biso   1.000  H
  N25      1.0000 0.08820  0.12820  0.07260  Biso   1.000  N
  N26      1.0000 0.08820  0.37180  0.57260  Biso   1.000  N
  N27      1.0000 0.91180  0.87180  0.92740  Biso   1.000  N
  N28      1.0000 0.91180  0.62820  0.42740  Biso   1.000  N
  N29      1.0000 0.00580  0.08010  0.00570  Biso   1.000  N
  N30      1.0000 0.00580  0.41990  0.50570  Biso   1.000  N
  N31      1.0000 0.99420  0.91990  0.99430  Biso   1.000  N
  N32      1.0000 0.99420  0.58010  0.49430  Biso   1.000  N
  S25      1.0000 0.06364  0.08168  0.06537  Biso   1.000  S
  S26      1.0000 0.06364  0.41832  0.56537  Biso   1.000  S
  S27      1.0000 0.93636  0.91832  0.93463  Biso   1.000  S
  S28      1.0000 0.93636  0.58168  0.43463  Biso   1.000  S
  C361     1.0000 0.05670  0.06414  0.15400  Biso   1.000  C
  C362     1.0000 0.05670  0.43586  0.65400  Biso   1.000  C
  C363     1.0000 0.94330  0.93586  0.84600  Biso   1.000  C
  C364     1.0000 0.94330  0.56414  0.34600  Biso   1.000  C
  C365     1.0000 0.00360  0.03777  0.15280  Biso   1.000  C
  C366     1.0000 0.00360  0.46223  0.65280  Biso   1.000  C
  C367     1.0000 0.99640  0.96223  0.84720  Biso   1.000  C
  C368     1.0000 0.99640  0.53777  0.34720  Biso   1.000  C
  H289     1.0000 0.97160  0.02810  0.10550  Biso   1.000  H
  H290     1.0000 0.97160  0.47190  0.60550  Biso   1.000  H
  H291     1.0000 0.02840  0.97190  0.89450  Biso   1.000  H
  H292     1.0000 0.02840  0.52810  0.39450  Biso   1.000  H
  C369     1.0000 0.99700  0.02534  0.22190  Biso   1.000  C
  C370     1.0000 0.99700  0.47466  0.72190  Biso   1.000  C
  C371     1.0000 0.00300  0.97466  0.77810  Biso   1.000  C
  C372     1.0000 0.00300  0.52534  0.27810  Biso   1.000  C
  H293     1.0000 0.96020  0.00730  0.22200  Biso   1.000  H
  H294     1.0000 0.96020  0.49270  0.72200  Biso   1.000  H
  H295     1.0000 0.03980  0.99270  0.77800  Biso   1.000  H
  H296     1.0000 0.03980  0.50730  0.27800  Biso   1.000  H
  C373     1.0000 0.04370  0.03904  0.28930  Biso   1.000  C
  C374     1.0000 0.04370  0.46096  0.78930  Biso   1.000  C
  C375     1.0000 0.95630  0.96096  0.71070  Biso   1.000  C
  C376     1.0000 0.95630  0.53904  0.21070  Biso   1.000  C
  H297     1.0000 0.03900  0.03100  0.33650  Biso   1.000  H
  H298     1.0000 0.03900  0.46900  0.83650  Biso   1.000  H
  H299     1.0000 0.96100  0.96900  0.66350  Biso   1.000  H
  H300     1.0000 0.96100  0.53100  0.16350  Biso   1.000  H
  C377     1.0000 0.09660  0.06410  0.28930  Biso   1.000  C
  C378     1.0000 0.09660  0.43590  0.78930  Biso   1.000  C
  C379     1.0000 0.90340  0.93590  0.71070  Biso   1.000  C
  C380     1.0000 0.90340  0.56410  0.21070  Biso   1.000  C
  H301     1.0000 0.13010  0.07240  0.33650  Biso   1.000  H
  H302     1.0000 0.13010  0.42760  0.83650  Biso   1.000  H
  H303     1.0000 0.86990  0.92760  0.66350  Biso   1.000  H
  H304     1.0000 0.86990  0.57240  0.16350  Biso   1.000  H
  C381     1.0000 0.10230  0.07800  0.22080  Biso   1.000  C
  C382     1.0000 0.10230  0.42200  0.72080  Biso   1.000  C
  C383     1.0000 0.89770  0.92200  0.77920  Biso   1.000  C
  C384     1.0000 0.89770  0.57800  0.27920  Biso   1.000  C
  H305     1.0000 0.13830  0.09710  0.22100  Biso   1.000  H
  H306     1.0000 0.13830  0.40290  0.72100  Biso   1.000  H
  H307     1.0000 0.86170  0.90290  0.77900  Biso   1.000  H
  H308     1.0000 0.86170  0.59710  0.27900  Biso   1.000  H
  C385     1.0000 0.12840  0.04503  0.06100  Biso   1.000  C
  C386     1.0000 0.12840  0.45497  0.56100  Biso   1.000  C
  C387     1.0000 0.87160  0.95497  0.93900  Biso   1.000  C
  C388     1.0000 0.87160  0.54503  0.43900  Biso   1.000  C
  C389     1.0000 0.11450  0.99899  0.04570  Biso   1.000  C
  C390     1.0000 0.11450  0.50101  0.54570  Biso   1.000  C
  C391     1.0000 0.88550  0.00101  0.95430  Biso   1.000  C
  C392     1.0000 0.88550  0.49899  0.45430  Biso   1.000  C
  H309     1.0000 0.07210  0.98710  0.04100  Biso   1.000  H
  H310     1.0000 0.07210  0.51290  0.54100  Biso   1.000  H
  H311     1.0000 0.92790  0.01290  0.95900  Biso   1.000  H
  H312     1.0000 0.92790  0.48710  0.45900  Biso   1.000  H
  C393     1.0000 0.16240  0.97080  0.03720  Biso   1.000  C
  C394     1.0000 0.16240  0.52920  0.53720  Biso   1.000  C
  C395     1.0000 0.83760  0.02920  0.96280  Biso   1.000  C
  C396     1.0000 0.83760  0.47080  0.46280  Biso   1.000  C
  H313     1.0000 0.15340  0.93900  0.02840  Biso   1.000  H
  H314     1.0000 0.15340  0.56100  0.52840  Biso   1.000  H
  H315     1.0000 0.84660  0.06100  0.97160  Biso   1.000  H
  H316     1.0000 0.84660  0.43900  0.47160  Biso   1.000  H
  C397     1.0000 0.22170  0.98720  0.04100  Biso   1.000  C
  C398     1.0000 0.22170  0.51280  0.54100  Biso   1.000  C
  C399     1.0000 0.77830  0.01280  0.95900  Biso   1.000  C
  C400     1.0000 0.77830  0.48720  0.45900  Biso   1.000  C
  H317     1.0000 0.25350  0.96730  0.03260  Biso   1.000  H
  H318     1.0000 0.25350  0.53270  0.53260  Biso   1.000  H
  H319     1.0000 0.74650  0.03270  0.96740  Biso   1.000  H
  H320     1.0000 0.74650  0.46730  0.46740  Biso   1.000  H
  C401     1.0000 0.23700  0.03260  0.05700  Biso   1.000  C
  C402     1.0000 0.23700  0.46740  0.55700  Biso   1.000  C
  C403     1.0000 0.76300  0.96740  0.94300  Biso   1.000  C
  C404     1.0000 0.76300  0.53260  0.44300  Biso   1.000  C
  H321     1.0000 0.27980  0.04390  0.06120  Biso   1.000  H
  H322     1.0000 0.27980  0.45610  0.56120  Biso   1.000  H
  H323     1.0000 0.72020  0.95610  0.93880  Biso   1.000  H
  H324     1.0000 0.72020  0.54390  0.43880  Biso   1.000  H
  C405     1.0000 0.18950  0.06250  0.06710  Biso   1.000  C
  C406     1.0000 0.18950  0.43750  0.56710  Biso   1.000  C
  C407     1.0000 0.81050  0.93750  0.93290  Biso   1.000  C
  C408     1.0000 0.81050  0.56250  0.43290  Biso   1.000  C
  H325     1.0000 0.19940  0.09410  0.07790  Biso   1.000  H
  H326     1.0000 0.19940  0.40590  0.57790  Biso   1.000  H
  H327     1.0000 0.80060  0.90590  0.92210  Biso   1.000  H
  H328     1.0000 0.80060  0.59410  0.42210  Biso   1.000  H
  N33      1.0000 0.44990  0.61440  0.43700  Biso   1.000  N
  N34      1.0000 0.44990  0.88560  0.93700  Biso   1.000  N
  N35      1.0000 0.55010  0.38560  0.56300  Biso   1.000  N
  N36      1.0000 0.55010  0.11440  0.06300  Biso   1.000  N
  S29      1.0000 0.41090  0.59145  0.36312  Biso   1.000  S
  S30      1.0000 0.41090  0.90855  0.86312  Biso   1.000  S
  S31      1.0000 0.58910  0.40855  0.63688  Biso   1.000  S
  S32      1.0000 0.58910  0.09145  0.13688  Biso   1.000  S
  N37      1.0000 0.41070  0.62600  0.40190  Biso   1.000  N
  N38      1.0000 0.41070  0.87400  0.90190  Biso   1.000  N
  N39      1.0000 0.58930  0.37400  0.59810  Biso   1.000  N
  N40      1.0000 0.58930  0.12600  0.09810  Biso   1.000  N
  S33      1.0000 0.45464  0.58314  0.41813  Biso   1.000  S
  S34      1.0000 0.45464  0.91686  0.91813  Biso   1.000  S
  S35      1.0000 0.54536  0.41686  0.58187  Biso   1.000  S
  S36      1.0000 0.54536  0.08314  0.08187  Biso   1.000  S
  C409     1.0000 0.47340  0.57581  0.32410  Biso   1.000  C
  C410     1.0000 0.47340  0.92419  0.82410  Biso   1.000  C
  C411     1.0000 0.52660  0.42419  0.67590  Biso   1.000  C
  C412     1.0000 0.52660  0.07581  0.17590  Biso   1.000  C
  C413     1.0000 0.54090  0.58416  0.35140  Biso   1.000  C
  C414     1.0000 0.54090  0.91584  0.85140  Biso   1.000  C
  C415     1.0000 0.45910  0.41584  0.64860  Biso   1.000  C
  C416     1.0000 0.45910  0.08416  0.14860  Biso   1.000  C
  H329     1.0000 0.56210  0.59370  0.40310  Biso   1.000  H
  H330     1.0000 0.56210  0.90630  0.90310  Biso   1.000  H
  H331     1.0000 0.43790  0.40630  0.59690  Biso   1.000  H
  H332     1.0000 0.43790  0.09370  0.09690  Biso   1.000  H
  C417     1.0000 0.57750  0.57890  0.30590  Biso   1.000  C
  C418     1.0000 0.57750  0.92110  0.80590  Biso   1.000  C
  C419     1.0000 0.42250  0.42110  0.69410  Biso   1.000  C
  C420     1.0000 0.42250  0.07890  0.19410  Biso   1.000  C
  H333     1.0000 0.62390  0.58550  0.32520  Biso   1.000  H
  H334     1.0000 0.62390  0.91450  0.82520  Biso   1.000  H
  H335     1.0000 0.37610  0.41450  0.67480  Biso   1.000  H
  H336     1.0000 0.37610  0.08550  0.17480  Biso   1.000  H
  C421     1.0000 0.54870  0.56480  0.23490  Biso   1.000  C
  C422     1.0000 0.54870  0.93520  0.73490  Biso   1.000  C
  C423     1.0000 0.45130  0.43520  0.76510  Biso   1.000  C
  C424     1.0000 0.45130  0.06480  0.26510  Biso   1.000  C
  H337     1.0000 0.57540  0.56040  0.20430  Biso   1.000  H
  H338     1.0000 0.57540  0.93960  0.70430  Biso   1.000  H
  H339     1.0000 0.42460  0.43960  0.79570  Biso   1.000  H
  H340     1.0000 0.42460  0.06040  0.29570  Biso   1.000  H
  C425     1.0000 0.48230  0.55607  0.20320  Biso   1.000  C
  C426     1.0000 0.48230  0.94393  0.70320  Biso   1.000  C
  C427     1.0000 0.51770  0.44393  0.79680  Biso   1.000  C
  C428     1.0000 0.51770  0.05607  0.29680  Biso   1.000  C
  H341     1.0000 0.46320  0.54600  0.15150  Biso   1.000  H
  H342     1.0000 0.46320  0.95400  0.65150  Biso   1.000  H
  H343     1.0000 0.53680  0.45400  0.84850  Biso   1.000  H
  H344     1.0000 0.53680  0.04600  0.34850  Biso   1.000  H
  C429     1.0000 0.44220  0.56216  0.24840  Biso   1.000  C
  C430     1.0000 0.44220  0.93784  0.74840  Biso   1.000  C
  C431     1.0000 0.55780  0.43784  0.75160  Biso   1.000  C
  C432     1.0000 0.55780  0.06216  0.25160  Biso   1.000  C
  H345     1.0000 0.39540  0.55710  0.22770  Biso   1.000  H
  H346     1.0000 0.39540  0.94290  0.72770  Biso   1.000  H
  H347     1.0000 0.60460  0.44290  0.77230  Biso   1.000  H
  H348     1.0000 0.60460  0.05710  0.27230  Biso   1.000  H
  C433     1.0000 0.39630  0.53395  0.39560  Biso   1.000  C
  C434     1.0000 0.39630  0.96605  0.89560  Biso   1.000  C
  C435     1.0000 0.60370  0.46605  0.60440  Biso   1.000  C
  C436     1.0000 0.60370  0.03395  0.10440  Biso   1.000  C
  C437     1.0000 0.33180  0.53286  0.39190  Biso   1.000  C
  C438     1.0000 0.33180  0.96714  0.89190  Biso   1.000  C
  C439     1.0000 0.66820  0.46714  0.60810  Biso   1.000  C
  C440     1.0000 0.66820  0.03286  0.10810  Biso   1.000  C
  H349     1.0000 0.30480  0.55960  0.38050  Biso   1.000  H
  H350     1.0000 0.30480  0.94040  0.88050  Biso   1.000  H
  H351     1.0000 0.69520  0.44040  0.61950  Biso   1.000  H
  H352     1.0000 0.69520  0.05960  0.11950  Biso   1.000  H
  C441     1.0000 0.30660  0.49050  0.40570  Biso   1.000  C
  C442     1.0000 0.30660  0.00950  0.90570  Biso   1.000  C
  C443     1.0000 0.69340  0.50950  0.59430  Biso   1.000  C
  C444     1.0000 0.69340  0.99050  0.09430  Biso   1.000  C
  H353     1.0000 0.26130  0.48770  0.40140  Biso   1.000  H
  H354     1.0000 0.26130  0.01230  0.90140  Biso   1.000  H
  H355     1.0000 0.73870  0.51230  0.59860  Biso   1.000  H
  H356     1.0000 0.73870  0.98770  0.09860  Biso   1.000  H
  C445     1.0000 0.34860  0.45290  0.42550  Biso   1.000  C
  C446     1.0000 0.34860  0.04710  0.92550  Biso   1.000  C
  C447     1.0000 0.65140  0.54710  0.57450  Biso   1.000  C
  C448     1.0000 0.65140  0.95290  0.07450  Biso   1.000  C
  H357     1.0000 0.33240  0.42450  0.43690  Biso   1.000  H
  H358     1.0000 0.33240  0.07550  0.93690  Biso   1.000  H
  H359     1.0000 0.66760  0.57550  0.56310  Biso   1.000  H
  H360     1.0000 0.66760  0.92450  0.06310  Biso   1.000  H
  C449     1.0000 0.41160  0.45600  0.42880  Biso   1.000  C
  C450     1.0000 0.41160  0.04400  0.92880  Biso   1.000  C
  C451     1.0000 0.58840  0.54400  0.57120  Biso   1.000  C
  C452     1.0000 0.58840  0.95600  0.07120  Biso   1.000  C
  H361     1.0000 0.43960  0.42980  0.44210  Biso   1.000  H
  H362     1.0000 0.43960  0.07020  0.94210  Biso   1.000  H
  H363     1.0000 0.56040  0.57020  0.55790  Biso   1.000  H
  H364     1.0000 0.56040  0.92980  0.05790  Biso   1.000  H
  C453     1.0000 0.43590  0.49591  0.41370  Biso   1.000  C
  C454     1.0000 0.43590  0.00409  0.91370  Biso   1.000  C
  C455     1.0000 0.56410  0.50409  0.58630  Biso   1.000  C
  C456     1.0000 0.56410  0.99591  0.08630  Biso   1.000  C
  H365     1.0000 0.48070  0.49760  0.41550  Biso   1.000  H
  H366     1.0000 0.48070  0.00240  0.91550  Biso   1.000  H
  H367     1.0000 0.51930  0.50240  0.58450  Biso   1.000  H
  H368     1.0000 0.51930  0.99760  0.08450  Biso   1.000  H
  O49      1.0000 0.28951  0.15080  0.98630  Biso   1.000  O
  O50      1.0000 0.28951  0.34920  0.48630  Biso   1.000  O
  O51      1.0000 0.71049  0.84920  0.01370  Biso   1.000  O
  O52      1.0000 0.71049  0.65080  0.51370  Biso   1.000  O
  H369     1.0000 0.26800  0.17130  0.96100  Biso   1.000  H
  H370     1.0000 0.26800  0.32870  0.46100  Biso   1.000  H
  H371     1.0000 0.73200  0.82870  0.03900  Biso   1.000  H
  H372     1.0000 0.73200  0.67130  0.53900  Biso   1.000  H
  H373     1.0000 0.28700  0.15310  0.02800  Biso   1.000  H
  H374     1.0000 0.28700  0.34690  0.52800  Biso   1.000  H
  H375     1.0000 0.71300  0.84690  0.97200  Biso   1.000  H
  H376     1.0000 0.71300  0.65310  0.47200  Biso   1.000  H
  O53      1.0000 0.21652  0.65364  0.49939  Biso   1.000  O
  O54      1.0000 0.21652  0.84636  0.99939  Biso   1.000  O
  O55      1.0000 0.78348  0.34636  0.50061  Biso   1.000  O
  O56      1.0000 0.78348  0.15364  0.00061  Biso   1.000  O
  H377     1.0000 0.22800  0.65310  0.46300  Biso   1.000  H
  H378     1.0000 0.22800  0.84690  0.96300  Biso   1.000  H
  H379     1.0000 0.77200  0.34690  0.53700  Biso   1.000  H
  H380     1.0000 0.77200  0.15310  0.03700  Biso   1.000  H
  H381     1.0000 0.23500  0.67500  0.52500  Biso   1.000  H
  H382     1.0000 0.23500  0.82500  0.02500  Biso   1.000  H
  H383     1.0000 0.76500  0.32500  0.47500  Biso   1.000  H
  H384     1.0000 0.76500  0.17500  0.97500  Biso   1.000  H
  O57      1.0000 0.08898  0.62248  0.42790  Biso   1.000  O
  O58      1.0000 0.08898  0.87752  0.92790  Biso   1.000  O
  O59      1.0000 0.91102  0.37752  0.57210  Biso   1.000  O
  O60      1.0000 0.91102  0.12248  0.07210  Biso   1.000  O
  O61      1.0000 0.11618  0.61394  0.28680  Biso   1.000  O
  O62      1.0000 0.11618  0.88606  0.78680  Biso   1.000  O
  O63      1.0000 0.88382  0.38606  0.71320  Biso   1.000  O
  O64      1.0000 0.88382  0.11394  0.21320  Biso   1.000  O
  O65      1.0000 0.86130  0.02163  0.26530  Biso   1.000  O
  O66      1.0000 0.86130  0.47837  0.76530  Biso   1.000  O
  O67      1.0000 0.13870  0.97837  0.73470  Biso   1.000  O
  O68      1.0000 0.13870  0.52163  0.23470  Biso   1.000  O
  H385     1.0000 0.83800  0.02300  0.29100  Biso   1.000  H
  H386     1.0000 0.83800  0.47700  0.79100  Biso   1.000  H
  H387     1.0000 0.16200  0.97700  0.70900  Biso   1.000  H
  H388     1.0000 0.16200  0.52300  0.20900  Biso   1.000  H
  H389     1.0000 0.87000  0.04730  0.25600  Biso   1.000  H
  H390     1.0000 0.87000  0.45270  0.75600  Biso   1.000  H
  H391     1.0000 0.13000  0.95270  0.74400  Biso   1.000  H
  H392     1.0000 0.13000  0.54730  0.24400  Biso   1.000  H
