data_image0
_cell_length_a       26.558
_cell_length_b       23.75
_cell_length_c       12.7271
_cell_angle_alpha    90
_cell_angle_beta     90
_cell_angle_gamma    90

_symmetry_space_group_name_H-M    "P 1"
_symmetry_int_tables_number       1

loop_
  _symmetry_equiv_pos_as_xyz
  'x, y, z'

loop_
  _atom_site_label
  _atom_site_occupancy
  _atom_site_fract_x
  _atom_site_fract_y
  _atom_site_fract_z
  _atom_site_thermal_displace_type
  _atom_site_B_iso_or_equiv
  _atom_site_type_symbol
  Cu1      1.0000 0.25000  0.25000  0.25000  Biso   1.000  Cu
  Cu2      1.0000 0.25000  0.75000  0.75000  Biso   1.000  Cu
  Cu3      1.0000 0.75000  0.25000  0.75000  Biso   1.000  Cu
  Cu4      1.0000 0.75000  0.75000  0.25000  Biso   1.000  Cu
  Cu5      1.0000 0.00000  0.50000  0.50000  Biso   1.000  Cu
  Cu6      1.0000 0.00000  0.00000  0.00000  Biso   1.000  Cu
  Cu7      1.0000 0.50000  0.50000  0.00000  Biso   1.000  Cu
  Cu8      1.0000 0.50000  0.00000  0.50000  Biso   1.000  Cu
  Cu9      1.0000 0.25000  0.25000  0.74090  Biso   1.000  Cu
  Cu10     1.0000 0.25000  0.75000  0.24090  Biso   1.000  Cu
  Cu11     1.0000 0.75000  0.25000  0.24090  Biso   1.000  Cu
  Cu12     1.0000 0.75000  0.75000  0.74090  Biso   1.000  Cu
  Cu13     1.0000 0.00000  0.50000  0.99090  Biso   1.000  Cu
  Cu14     1.0000 0.00000  0.00000  0.49090  Biso   1.000  Cu
  Cu15     1.0000 0.50000  0.50000  0.49090  Biso   1.000  Cu
  Cu16     1.0000 0.50000  0.00000  0.99090  Biso   1.000  Cu
  Cl1      1.0000 0.16470  0.25080  0.23870  Biso   1.000  Cl
  Cl2      1.0000 0.16470  0.75080  0.73870  Biso   1.000  Cl
  Cl3      1.0000 0.66470  0.25080  0.73870  Biso   1.000  Cl
  Cl4      1.0000 0.66470  0.75080  0.23870  Biso   1.000  Cl
  Cl5      1.0000 0.08530  0.50080  0.48870  Biso   1.000  Cl
  Cl6      1.0000 0.08530  0.00080  0.98870  Biso   1.000  Cl
  Cl7      1.0000 0.58530  0.50080  0.98870  Biso   1.000  Cl
  Cl8      1.0000 0.58530  0.00080  0.48870  Biso   1.000  Cl
  Cl9      1.0000 0.41470  0.99920  0.48870  Biso   1.000  Cl
  Cl10     1.0000 0.41470  0.49920  0.98870  Biso   1.000  Cl
  Cl11     1.0000 0.91470  0.99920  0.98870  Biso   1.000  Cl
  Cl12     1.0000 0.91470  0.49920  0.48870  Biso   1.000  Cl
  Cl13     1.0000 0.33530  0.74920  0.73870  Biso   1.000  Cl
  Cl14     1.0000 0.33530  0.24920  0.23870  Biso   1.000  Cl
  Cl15     1.0000 0.83530  0.74920  0.23870  Biso   1.000  Cl
  Cl16     1.0000 0.83530  0.24920  0.73870  Biso   1.000  Cl
  Cl17     1.0000 0.25000  0.25000  0.47150  Biso   1.000  Cl
  Cl18     1.0000 0.25000  0.75000  0.97150  Biso   1.000  Cl
  Cl19     1.0000 0.75000  0.25000  0.97150  Biso   1.000  Cl
  Cl20     1.0000 0.75000  0.75000  0.47150  Biso   1.000  Cl
  Cl21     1.0000 0.00000  0.50000  0.72150  Biso   1.000  Cl
  Cl22     1.0000 0.00000  0.00000  0.22150  Biso   1.000  Cl
  Cl23     1.0000 0.50000  0.50000  0.22150  Biso   1.000  Cl
  Cl24     1.0000 0.50000  0.00000  0.72150  Biso   1.000  Cl
  Cl25     1.0000 0.25000  0.25000  0.97200  Biso   1.000  Cl
  Cl26     1.0000 0.25000  0.75000  0.47200  Biso   1.000  Cl
  Cl27     1.0000 0.75000  0.25000  0.47200  Biso   1.000  Cl
  Cl28     1.0000 0.75000  0.75000  0.97200  Biso   1.000  Cl
  Cl29     1.0000 0.00000  0.50000  0.22200  Biso   1.000  Cl
  Cl30     1.0000 0.00000  0.00000  0.72200  Biso   1.000  Cl
  Cl31     1.0000 0.50000  0.50000  0.72200  Biso   1.000  Cl
  Cl32     1.0000 0.50000  0.00000  0.22200  Biso   1.000  Cl
  N1       1.0000 0.29600  0.13710  0.34740  Biso   1.000  N
  N2       1.0000 0.29600  0.63710  0.84740  Biso   1.000  N
  N3       1.0000 0.79600  0.13710  0.84740  Biso   1.000  N
  N4       1.0000 0.79600  0.63710  0.34740  Biso   1.000  N
  N5       1.0000 0.95400  0.38710  0.59740  Biso   1.000  N
  N6       1.0000 0.95400  0.88710  0.09740  Biso   1.000  N
  N7       1.0000 0.45400  0.38710  0.09740  Biso   1.000  N
  N8       1.0000 0.45400  0.88710  0.59740  Biso   1.000  N
  N9       1.0000 0.54600  0.11290  0.59740  Biso   1.000  N
  N10      1.0000 0.54600  0.61290  0.09740  Biso   1.000  N
  N11      1.0000 0.04600  0.11290  0.09740  Biso   1.000  N
  N12      1.0000 0.04600  0.61290  0.59740  Biso   1.000  N
  N13      1.0000 0.20400  0.86290  0.84740  Biso   1.000  N
  N14      1.0000 0.20400  0.36290  0.34740  Biso   1.000  N
  N15      1.0000 0.70400  0.86290  0.34740  Biso   1.000  N
  N16      1.0000 0.70400  0.36290  0.84740  Biso   1.000  N
  N17      1.0000 0.23970  0.16760  0.21590  Biso   1.000  N
  N18      1.0000 0.23970  0.66760  0.71590  Biso   1.000  N
  N19      1.0000 0.73970  0.16760  0.71590  Biso   1.000  N
  N20      1.0000 0.73970  0.66760  0.21590  Biso   1.000  N
  N21      1.0000 0.01030  0.41760  0.46590  Biso   1.000  N
  N22      1.0000 0.01030  0.91760  0.96590  Biso   1.000  N
  N23      1.0000 0.51030  0.41760  0.96590  Biso   1.000  N
  N24      1.0000 0.51030  0.91760  0.46590  Biso   1.000  N
  N25      1.0000 0.48970  0.08240  0.46590  Biso   1.000  N
  N26      1.0000 0.48970  0.58240  0.96590  Biso   1.000  N
  N27      1.0000 0.98970  0.08240  0.96590  Biso   1.000  N
  N28      1.0000 0.98970  0.58240  0.46590  Biso   1.000  N
  N29      1.0000 0.26030  0.83240  0.71590  Biso   1.000  N
  N30      1.0000 0.26030  0.33240  0.21590  Biso   1.000  N
  N31      1.0000 0.76030  0.83240  0.21590  Biso   1.000  N
  N32      1.0000 0.76030  0.33240  0.71590  Biso   1.000  N
  C1       1.0000 0.31410  0.08000  0.38730  Biso   1.000  C
  C2       1.0000 0.31410  0.58000  0.88730  Biso   1.000  C
  C3       1.0000 0.81410  0.08000  0.88730  Biso   1.000  C
  C4       1.0000 0.81410  0.58000  0.38730  Biso   1.000  C
  C5       1.0000 0.93590  0.33000  0.63730  Biso   1.000  C
  C6       1.0000 0.93590  0.83000  0.13730  Biso   1.000  C
  C7       1.0000 0.43590  0.33000  0.13730  Biso   1.000  C
  C8       1.0000 0.43590  0.83000  0.63730  Biso   1.000  C
  C9       1.0000 0.56410  0.17000  0.63730  Biso   1.000  C
  C10      1.0000 0.56410  0.67000  0.13730  Biso   1.000  C
  C11      1.0000 0.06410  0.17000  0.13730  Biso   1.000  C
  C12      1.0000 0.06410  0.67000  0.63730  Biso   1.000  C
  C13      1.0000 0.18590  0.92000  0.88730  Biso   1.000  C
  C14      1.0000 0.18590  0.42000  0.38730  Biso   1.000  C
  C15      1.0000 0.68590  0.92000  0.38730  Biso   1.000  C
  C16      1.0000 0.68590  0.42000  0.88730  Biso   1.000  C
  C17      1.0000 0.29680  0.04820  0.34180  Biso   1.000  C
  C18      1.0000 0.29680  0.54820  0.84180  Biso   1.000  C
  C19      1.0000 0.79680  0.04820  0.84180  Biso   1.000  C
  C20      1.0000 0.79680  0.54820  0.34180  Biso   1.000  C
  C21      1.0000 0.95320  0.29820  0.59180  Biso   1.000  C
  C22      1.0000 0.95320  0.79820  0.09180  Biso   1.000  C
  C23      1.0000 0.45320  0.29820  0.09180  Biso   1.000  C
  C24      1.0000 0.45320  0.79820  0.59180  Biso   1.000  C
  C25      1.0000 0.54680  0.20180  0.59180  Biso   1.000  C
  C26      1.0000 0.54680  0.70180  0.09180  Biso   1.000  C
  C27      1.0000 0.04680  0.20180  0.09180  Biso   1.000  C
  C28      1.0000 0.04680  0.70180  0.59180  Biso   1.000  C
  C29      1.0000 0.20320  0.95180  0.84180  Biso   1.000  C
  C30      1.0000 0.20320  0.45180  0.34180  Biso   1.000  C
  C31      1.0000 0.70320  0.95180  0.34180  Biso   1.000  C
  C32      1.0000 0.70320  0.45180  0.84180  Biso   1.000  C
  C33      1.0000 0.22100  0.04300  0.17370  Biso   1.000  C
  C34      1.0000 0.22100  0.54300  0.67370  Biso   1.000  C
  C35      1.0000 0.72100  0.04300  0.67370  Biso   1.000  C
  C36      1.0000 0.72100  0.54300  0.17370  Biso   1.000  C
  C37      1.0000 0.02900  0.29300  0.42370  Biso   1.000  C
  C38      1.0000 0.02900  0.79300  0.92370  Biso   1.000  C
  C39      1.0000 0.52900  0.29300  0.92370  Biso   1.000  C
  C40      1.0000 0.52900  0.79300  0.42370  Biso   1.000  C
  C41      1.0000 0.47100  0.20700  0.42370  Biso   1.000  C
  C42      1.0000 0.47100  0.70700  0.92370  Biso   1.000  C
  C43      1.0000 0.97100  0.20700  0.92370  Biso   1.000  C
  C44      1.0000 0.97100  0.70700  0.42370  Biso   1.000  C
  C45      1.0000 0.27900  0.95700  0.67370  Biso   1.000  C
  C46      1.0000 0.27900  0.45700  0.17370  Biso   1.000  C
  C47      1.0000 0.77900  0.95700  0.17370  Biso   1.000  C
  C48      1.0000 0.77900  0.45700  0.67370  Biso   1.000  C
  C49      1.0000 0.19090  0.08830  0.11080  Biso   1.000  C
  C50      1.0000 0.19090  0.58830  0.61080  Biso   1.000  C
  C51      1.0000 0.69090  0.08830  0.61080  Biso   1.000  C
  C52      1.0000 0.69090  0.58830  0.11080  Biso   1.000  C
  C53      1.0000 0.05910  0.33830  0.36080  Biso   1.000  C
  C54      1.0000 0.05910  0.83830  0.86080  Biso   1.000  C
  C55      1.0000 0.55910  0.33830  0.86080  Biso   1.000  C
  C56      1.0000 0.55910  0.83830  0.36080  Biso   1.000  C
  C57      1.0000 0.44090  0.16170  0.36080  Biso   1.000  C
  C58      1.0000 0.44090  0.66170  0.86080  Biso   1.000  C
  C59      1.0000 0.94090  0.16170  0.86080  Biso   1.000  C
  C60      1.0000 0.94090  0.66170  0.36080  Biso   1.000  C
  C61      1.0000 0.30910  0.91170  0.61080  Biso   1.000  C
  C62      1.0000 0.30910  0.41170  0.11080  Biso   1.000  C
  C63      1.0000 0.80910  0.91170  0.11080  Biso   1.000  C
  C64      1.0000 0.80910  0.41170  0.61080  Biso   1.000  C
  C65      1.0000 0.20650  0.14070  0.13850  Biso   1.000  C
  C66      1.0000 0.20650  0.64070  0.63850  Biso   1.000  C
  C67      1.0000 0.70650  0.14070  0.63850  Biso   1.000  C
  C68      1.0000 0.70650  0.64070  0.13850  Biso   1.000  C
  C69      1.0000 0.04350  0.39070  0.38850  Biso   1.000  C
  C70      1.0000 0.04350  0.89070  0.88850  Biso   1.000  C
  C71      1.0000 0.54350  0.39070  0.88850  Biso   1.000  C
  C72      1.0000 0.54350  0.89070  0.38850  Biso   1.000  C
  C73      1.0000 0.45650  0.10930  0.38850  Biso   1.000  C
  C74      1.0000 0.45650  0.60930  0.88850  Biso   1.000  C
  C75      1.0000 0.95650  0.10930  0.88850  Biso   1.000  C
  C76      1.0000 0.95650  0.60930  0.38850  Biso   1.000  C
  C77      1.0000 0.29350  0.85930  0.63850  Biso   1.000  C
  C78      1.0000 0.29350  0.35930  0.13850  Biso   1.000  C
  C79      1.0000 0.79350  0.85930  0.13850  Biso   1.000  C
  C80      1.0000 0.79350  0.35930  0.63850  Biso   1.000  C
  C81      1.0000 0.26140  0.12510  0.27010  Biso   1.000  C
  C82      1.0000 0.26140  0.62510  0.77010  Biso   1.000  C
  C83      1.0000 0.76140  0.12510  0.77010  Biso   1.000  C
  C84      1.0000 0.76140  0.62510  0.27010  Biso   1.000  C
  C85      1.0000 0.98860  0.37510  0.52010  Biso   1.000  C
  C86      1.0000 0.98860  0.87510  0.02010  Biso   1.000  C
  C87      1.0000 0.48860  0.37510  0.02010  Biso   1.000  C
  C88      1.0000 0.48860  0.87510  0.52010  Biso   1.000  C
  C89      1.0000 0.51140  0.12490  0.52010  Biso   1.000  C
  C90      1.0000 0.51140  0.62490  0.02010  Biso   1.000  C
  C91      1.0000 0.01140  0.12490  0.02010  Biso   1.000  C
  C92      1.0000 0.01140  0.62490  0.52010  Biso   1.000  C
  C93      1.0000 0.23860  0.87490  0.77010  Biso   1.000  C
  C94      1.0000 0.23860  0.37490  0.27010  Biso   1.000  C
  C95      1.0000 0.73860  0.87490  0.27010  Biso   1.000  C
  C96      1.0000 0.73860  0.37490  0.77010  Biso   1.000  C
  C97      1.0000 0.26420  0.06250  0.26980  Biso   1.000  C
  C98      1.0000 0.26420  0.56250  0.76980  Biso   1.000  C
  C99      1.0000 0.76420  0.06250  0.76980  Biso   1.000  C
  C100     1.0000 0.76420  0.56250  0.26980  Biso   1.000  C
  C101     1.0000 0.98580  0.31250  0.51980  Biso   1.000  C
  C102     1.0000 0.98580  0.81250  0.01980  Biso   1.000  C
  C103     1.0000 0.48580  0.31250  0.01980  Biso   1.000  C
  C104     1.0000 0.48580  0.81250  0.51980  Biso   1.000  C
  C105     1.0000 0.51420  0.18750  0.51980  Biso   1.000  C
  C106     1.0000 0.51420  0.68750  0.01980  Biso   1.000  C
  C107     1.0000 0.01420  0.18750  0.01980  Biso   1.000  C
  C108     1.0000 0.01420  0.68750  0.51980  Biso   1.000  C
  C109     1.0000 0.23580  0.93750  0.76980  Biso   1.000  C
  C110     1.0000 0.23580  0.43750  0.26980  Biso   1.000  C
  C111     1.0000 0.73580  0.93750  0.26980  Biso   1.000  C
  C112     1.0000 0.73580  0.43750  0.76980  Biso   1.000  C
  N33      1.0000 0.26320  0.16000  0.25930  Biso   1.000  N
  N34      1.0000 0.26320  0.66000  0.75930  Biso   1.000  N
  N35      1.0000 0.76320  0.16000  0.75930  Biso   1.000  N
  N36      1.0000 0.76320  0.66000  0.25930  Biso   1.000  N
  N37      1.0000 0.98680  0.41000  0.50930  Biso   1.000  N
  N38      1.0000 0.98680  0.91000  0.00930  Biso   1.000  N
  N39      1.0000 0.48680  0.41000  0.00930  Biso   1.000  N
  N40      1.0000 0.48680  0.91000  0.50930  Biso   1.000  N
  N41      1.0000 0.51320  0.09000  0.50930  Biso   1.000  N
  N42      1.0000 0.51320  0.59000  0.00930  Biso   1.000  N
  N43      1.0000 0.01320  0.09000  0.00930  Biso   1.000  N
  N44      1.0000 0.01320  0.59000  0.50930  Biso   1.000  N
  N45      1.0000 0.23680  0.84000  0.75930  Biso   1.000  N
  N46      1.0000 0.23680  0.34000  0.25930  Biso   1.000  N
  N47      1.0000 0.73680  0.84000  0.25930  Biso   1.000  N
  N48      1.0000 0.73680  0.34000  0.75930  Biso   1.000  N
  C113     1.0000 0.28290  0.04540  0.30920  Biso   1.000  C
  C114     1.0000 0.28290  0.54540  0.80920  Biso   1.000  C
  C115     1.0000 0.78290  0.04540  0.80920  Biso   1.000  C
  C116     1.0000 0.78290  0.54540  0.30920  Biso   1.000  C
  C117     1.0000 0.96710  0.29540  0.55920  Biso   1.000  C
  C118     1.0000 0.96710  0.79540  0.05920  Biso   1.000  C
  C119     1.0000 0.46710  0.29540  0.05920  Biso   1.000  C
  C120     1.0000 0.46710  0.79540  0.55920  Biso   1.000  C
  C121     1.0000 0.53290  0.20460  0.55920  Biso   1.000  C
  C122     1.0000 0.53290  0.70460  0.05920  Biso   1.000  C
  C123     1.0000 0.03290  0.20460  0.05920  Biso   1.000  C
  C124     1.0000 0.03290  0.70460  0.55920  Biso   1.000  C
  C125     1.0000 0.21710  0.95460  0.80920  Biso   1.000  C
  C126     1.0000 0.21710  0.45460  0.30920  Biso   1.000  C
  C127     1.0000 0.71710  0.95460  0.30920  Biso   1.000  C
  C128     1.0000 0.71710  0.45460  0.80920  Biso   1.000  C
  C129     1.0000 0.29770  0.08410  0.36010  Biso   1.000  C
  C130     1.0000 0.29770  0.58410  0.86010  Biso   1.000  C
  C131     1.0000 0.79770  0.08410  0.86010  Biso   1.000  C
  C132     1.0000 0.79770  0.58410  0.36010  Biso   1.000  C
  C133     1.0000 0.95230  0.33410  0.61010  Biso   1.000  C
  C134     1.0000 0.95230  0.83410  0.11010  Biso   1.000  C
  C135     1.0000 0.45230  0.33410  0.11010  Biso   1.000  C
  C136     1.0000 0.45230  0.83410  0.61010  Biso   1.000  C
  C137     1.0000 0.54770  0.16590  0.61010  Biso   1.000  C
  C138     1.0000 0.54770  0.66590  0.11010  Biso   1.000  C
  C139     1.0000 0.04770  0.16590  0.11010  Biso   1.000  C
  C140     1.0000 0.04770  0.66590  0.61010  Biso   1.000  C
  C141     1.0000 0.20230  0.91590  0.86010  Biso   1.000  C
  C142     1.0000 0.20230  0.41590  0.36010  Biso   1.000  C
  C143     1.0000 0.70230  0.91590  0.36010  Biso   1.000  C
  C144     1.0000 0.70230  0.41590  0.86010  Biso   1.000  C
  C145     1.0000 0.23580  0.12340  0.20600  Biso   1.000  C
  C146     1.0000 0.23580  0.62340  0.70600  Biso   1.000  C
  C147     1.0000 0.73580  0.12340  0.70600  Biso   1.000  C
  C148     1.0000 0.73580  0.62340  0.20600  Biso   1.000  C
  C149     1.0000 0.01420  0.37340  0.45600  Biso   1.000  C
  C150     1.0000 0.01420  0.87340  0.95600  Biso   1.000  C
  C151     1.0000 0.51420  0.37340  0.95600  Biso   1.000  C
  C152     1.0000 0.51420  0.87340  0.45600  Biso   1.000  C
  C153     1.0000 0.48580  0.12660  0.45600  Biso   1.000  C
  C154     1.0000 0.48580  0.62660  0.95600  Biso   1.000  C
  C155     1.0000 0.98580  0.12660  0.95600  Biso   1.000  C
  C156     1.0000 0.98580  0.62660  0.45600  Biso   1.000  C
  C157     1.0000 0.26420  0.87660  0.70600  Biso   1.000  C
  C158     1.0000 0.26420  0.37660  0.20600  Biso   1.000  C
  C159     1.0000 0.76420  0.87660  0.20600  Biso   1.000  C
  C160     1.0000 0.76420  0.37660  0.70600  Biso   1.000  C
  C161     1.0000 0.24860  0.06640  0.23480  Biso   1.000  C
  C162     1.0000 0.24860  0.56640  0.73480  Biso   1.000  C
  C163     1.0000 0.74860  0.06640  0.73480  Biso   1.000  C
  C164     1.0000 0.74860  0.56640  0.23480  Biso   1.000  C
  C165     1.0000 0.00140  0.31640  0.48480  Biso   1.000  C
  C166     1.0000 0.00140  0.81640  0.98480  Biso   1.000  C
  C167     1.0000 0.50140  0.31640  0.98480  Biso   1.000  C
  C168     1.0000 0.50140  0.81640  0.48480  Biso   1.000  C
  C169     1.0000 0.49860  0.18360  0.48480  Biso   1.000  C
  C170     1.0000 0.49860  0.68360  0.98480  Biso   1.000  C
  C171     1.0000 0.99860  0.18360  0.98480  Biso   1.000  C
  C172     1.0000 0.99860  0.68360  0.48480  Biso   1.000  C
  C173     1.0000 0.25140  0.93360  0.73480  Biso   1.000  C
  C174     1.0000 0.25140  0.43360  0.23480  Biso   1.000  C
  C175     1.0000 0.75140  0.93360  0.23480  Biso   1.000  C
  C176     1.0000 0.75140  0.43360  0.73480  Biso   1.000  C
  N49      1.0000 0.21880  0.13330  0.59350  Biso   1.000  N
  N50      1.0000 0.21880  0.63330  0.09350  Biso   1.000  N
  N51      1.0000 0.71880  0.13330  0.09350  Biso   1.000  N
  N52      1.0000 0.71880  0.63330  0.59350  Biso   1.000  N
  N53      1.0000 0.03120  0.38330  0.84350  Biso   1.000  N
  N54      1.0000 0.03120  0.88330  0.34350  Biso   1.000  N
  N55      1.0000 0.53120  0.38330  0.34350  Biso   1.000  N
  N56      1.0000 0.53120  0.88330  0.84350  Biso   1.000  N
  N57      1.0000 0.46880  0.11670  0.84350  Biso   1.000  N
  N58      1.0000 0.46880  0.61670  0.34350  Biso   1.000  N
  N59      1.0000 0.96880  0.11670  0.34350  Biso   1.000  N
  N60      1.0000 0.96880  0.61670  0.84350  Biso   1.000  N
  N61      1.0000 0.28120  0.86670  0.09350  Biso   1.000  N
  N62      1.0000 0.28120  0.36670  0.59350  Biso   1.000  N
  N63      1.0000 0.78120  0.86670  0.59350  Biso   1.000  N
  N64      1.0000 0.78120  0.36670  0.09350  Biso   1.000  N
  N65      1.0000 0.19760  0.19270  0.74570  Biso   1.000  N
  N66      1.0000 0.19760  0.69270  0.24570  Biso   1.000  N
  N67      1.0000 0.69760  0.19270  0.24570  Biso   1.000  N
  N68      1.0000 0.69760  0.69270  0.74570  Biso   1.000  N
  N69      1.0000 0.05240  0.44270  0.99570  Biso   1.000  N
  N70      1.0000 0.05240  0.94270  0.49570  Biso   1.000  N
  N71      1.0000 0.55240  0.44270  0.49570  Biso   1.000  N
  N72      1.0000 0.55240  0.94270  0.99570  Biso   1.000  N
  N73      1.0000 0.44760  0.05730  0.99570  Biso   1.000  N
  N74      1.0000 0.44760  0.55730  0.49570  Biso   1.000  N
  N75      1.0000 0.94760  0.05730  0.49570  Biso   1.000  N
  N76      1.0000 0.94760  0.55730  0.99570  Biso   1.000  N
  N77      1.0000 0.30240  0.80730  0.24570  Biso   1.000  N
  N78      1.0000 0.30240  0.30730  0.74570  Biso   1.000  N
  N79      1.0000 0.80240  0.80730  0.74570  Biso   1.000  N
  N80      1.0000 0.80240  0.30730  0.24570  Biso   1.000  N
  C177     1.0000 0.20920  0.08190  0.55310  Biso   1.000  C
  C178     1.0000 0.20920  0.58190  0.05310  Biso   1.000  C
  C179     1.0000 0.70920  0.08190  0.05310  Biso   1.000  C
  C180     1.0000 0.70920  0.58190  0.55310  Biso   1.000  C
  C181     1.0000 0.04080  0.33190  0.80310  Biso   1.000  C
  C182     1.0000 0.04080  0.83190  0.30310  Biso   1.000  C
  C183     1.0000 0.54080  0.33190  0.30310  Biso   1.000  C
  C184     1.0000 0.54080  0.83190  0.80310  Biso   1.000  C
  C185     1.0000 0.45920  0.16810  0.80310  Biso   1.000  C
  C186     1.0000 0.45920  0.66810  0.30310  Biso   1.000  C
  C187     1.0000 0.95920  0.16810  0.30310  Biso   1.000  C
  C188     1.0000 0.95920  0.66810  0.80310  Biso   1.000  C
  C189     1.0000 0.29080  0.91810  0.05310  Biso   1.000  C
  C190     1.0000 0.29080  0.41810  0.55310  Biso   1.000  C
  C191     1.0000 0.79080  0.91810  0.55310  Biso   1.000  C
  C192     1.0000 0.79080  0.41810  0.05310  Biso   1.000  C
  C193     1.0000 0.17530  0.05360  0.62490  Biso   1.000  C
  C194     1.0000 0.17530  0.55360  0.12490  Biso   1.000  C
  C195     1.0000 0.67530  0.05360  0.12490  Biso   1.000  C
  C196     1.0000 0.67530  0.55360  0.62490  Biso   1.000  C
  C197     1.0000 0.07470  0.30360  0.87490  Biso   1.000  C
  C198     1.0000 0.07470  0.80360  0.37490  Biso   1.000  C
  C199     1.0000 0.57470  0.30360  0.37490  Biso   1.000  C
  C200     1.0000 0.57470  0.80360  0.87490  Biso   1.000  C
  C201     1.0000 0.42530  0.19640  0.87490  Biso   1.000  C
  C202     1.0000 0.42530  0.69640  0.37490  Biso   1.000  C
  C203     1.0000 0.92530  0.19640  0.37490  Biso   1.000  C
  C204     1.0000 0.92530  0.69640  0.87490  Biso   1.000  C
  C205     1.0000 0.32470  0.94640  0.12490  Biso   1.000  C
  C206     1.0000 0.32470  0.44640  0.62490  Biso   1.000  C
  C207     1.0000 0.82470  0.94640  0.62490  Biso   1.000  C
  C208     1.0000 0.82470  0.44640  0.12490  Biso   1.000  C
  C209     1.0000 0.13510  0.09530  0.79180  Biso   1.000  C
  C210     1.0000 0.13510  0.59530  0.29180  Biso   1.000  C
  C211     1.0000 0.63510  0.09530  0.29180  Biso   1.000  C
  C212     1.0000 0.63510  0.59530  0.79180  Biso   1.000  C
  C213     1.0000 0.11490  0.34530  0.04180  Biso   1.000  C
  C214     1.0000 0.11490  0.84530  0.54180  Biso   1.000  C
  C215     1.0000 0.61490  0.34530  0.54180  Biso   1.000  C
  C216     1.0000 0.61490  0.84530  0.04180  Biso   1.000  C
  C217     1.0000 0.38510  0.15470  0.04180  Biso   1.000  C
  C218     1.0000 0.38510  0.65470  0.54180  Biso   1.000  C
  C219     1.0000 0.88510  0.15470  0.54180  Biso   1.000  C
  C220     1.0000 0.88510  0.65470  0.04180  Biso   1.000  C
  C221     1.0000 0.36490  0.90470  0.29180  Biso   1.000  C
  C222     1.0000 0.36490  0.40470  0.79180  Biso   1.000  C
  C223     1.0000 0.86490  0.90470  0.79180  Biso   1.000  C
  C224     1.0000 0.86490  0.40470  0.29180  Biso   1.000  C
  C225     1.0000 0.13480  0.14000  0.85680  Biso   1.000  C
  C226     1.0000 0.13480  0.64000  0.35680  Biso   1.000  C
  C227     1.0000 0.63480  0.14000  0.35680  Biso   1.000  C
  C228     1.0000 0.63480  0.64000  0.85680  Biso   1.000  C
  C229     1.0000 0.11520  0.39000  0.10680  Biso   1.000  C
  C230     1.0000 0.11520  0.89000  0.60680  Biso   1.000  C
  C231     1.0000 0.61520  0.39000  0.60680  Biso   1.000  C
  C232     1.0000 0.61520  0.89000  0.10680  Biso   1.000  C
  C233     1.0000 0.38480  0.11000  0.10680  Biso   1.000  C
  C234     1.0000 0.38480  0.61000  0.60680  Biso   1.000  C
  C235     1.0000 0.88480  0.11000  0.60680  Biso   1.000  C
  C236     1.0000 0.88480  0.61000  0.10680  Biso   1.000  C
  C237     1.0000 0.36520  0.86000  0.35680  Biso   1.000  C
  C238     1.0000 0.36520  0.36000  0.85680  Biso   1.000  C
  C239     1.0000 0.86520  0.86000  0.85680  Biso   1.000  C
  C240     1.0000 0.86520  0.36000  0.35680  Biso   1.000  C
  C241     1.0000 0.16520  0.18910  0.83170  Biso   1.000  C
  C242     1.0000 0.16520  0.68910  0.33170  Biso   1.000  C
  C243     1.0000 0.66520  0.18910  0.33170  Biso   1.000  C
  C244     1.0000 0.66520  0.68910  0.83170  Biso   1.000  C
  C245     1.0000 0.08480  0.43910  0.08170  Biso   1.000  C
  C246     1.0000 0.08480  0.93910  0.58170  Biso   1.000  C
  C247     1.0000 0.58480  0.43910  0.58170  Biso   1.000  C
  C248     1.0000 0.58480  0.93910  0.08170  Biso   1.000  C
  C249     1.0000 0.41520  0.06090  0.08170  Biso   1.000  C
  C250     1.0000 0.41520  0.56090  0.58170  Biso   1.000  C
  C251     1.0000 0.91520  0.06090  0.58170  Biso   1.000  C
  C252     1.0000 0.91520  0.56090  0.08170  Biso   1.000  C
  C253     1.0000 0.33480  0.81090  0.33170  Biso   1.000  C
  C254     1.0000 0.33480  0.31090  0.83170  Biso   1.000  C
  C255     1.0000 0.83480  0.81090  0.83170  Biso   1.000  C
  C256     1.0000 0.83480  0.31090  0.33170  Biso   1.000  C
  C257     1.0000 0.19200  0.14190  0.68520  Biso   1.000  C
  C258     1.0000 0.19200  0.64190  0.18520  Biso   1.000  C
  C259     1.0000 0.69200  0.14190  0.18520  Biso   1.000  C
  C260     1.0000 0.69200  0.64190  0.68520  Biso   1.000  C
  C261     1.0000 0.05800  0.39190  0.93520  Biso   1.000  C
  C262     1.0000 0.05800  0.89190  0.43520  Biso   1.000  C
  C263     1.0000 0.55800  0.39190  0.43520  Biso   1.000  C
  C264     1.0000 0.55800  0.89190  0.93520  Biso   1.000  C
  C265     1.0000 0.44200  0.10810  0.93520  Biso   1.000  C
  C266     1.0000 0.44200  0.60810  0.43520  Biso   1.000  C
  C267     1.0000 0.94200  0.10810  0.43520  Biso   1.000  C
  C268     1.0000 0.94200  0.60810  0.93520  Biso   1.000  C
  C269     1.0000 0.30800  0.85810  0.18520  Biso   1.000  C
  C270     1.0000 0.30800  0.35810  0.68520  Biso   1.000  C
  C271     1.0000 0.80800  0.85810  0.68520  Biso   1.000  C
  C272     1.0000 0.80800  0.35810  0.18520  Biso   1.000  C
  C273     1.0000 0.16530  0.09880  0.70860  Biso   1.000  C
  C274     1.0000 0.16530  0.59880  0.20860  Biso   1.000  C
  C275     1.0000 0.66530  0.09880  0.20860  Biso   1.000  C
  C276     1.0000 0.66530  0.59880  0.70860  Biso   1.000  C
  C277     1.0000 0.08470  0.34880  0.95860  Biso   1.000  C
  C278     1.0000 0.08470  0.84880  0.45860  Biso   1.000  C
  C279     1.0000 0.58470  0.34880  0.45860  Biso   1.000  C
  C280     1.0000 0.58470  0.84880  0.95860  Biso   1.000  C
  C281     1.0000 0.41530  0.15120  0.95860  Biso   1.000  C
  C282     1.0000 0.41530  0.65120  0.45860  Biso   1.000  C
  C283     1.0000 0.91530  0.15120  0.45860  Biso   1.000  C
  C284     1.0000 0.91530  0.65120  0.95860  Biso   1.000  C
  C285     1.0000 0.33470  0.90120  0.20860  Biso   1.000  C
  C286     1.0000 0.33470  0.40120  0.70860  Biso   1.000  C
  C287     1.0000 0.83470  0.90120  0.70860  Biso   1.000  C
  C288     1.0000 0.83470  0.40120  0.20860  Biso   1.000  C
  N81      1.0000 0.27940  0.13700  0.88370  Biso   1.000  N
  N82      1.0000 0.27940  0.63700  0.38370  Biso   1.000  N
  N83      1.0000 0.77940  0.13700  0.38370  Biso   1.000  N
  N84      1.0000 0.77940  0.63700  0.88370  Biso   1.000  N
  N85      1.0000 0.97060  0.38700  0.13370  Biso   1.000  N
  N86      1.0000 0.97060  0.88700  0.63370  Biso   1.000  N
  N87      1.0000 0.47060  0.38700  0.63370  Biso   1.000  N
  N88      1.0000 0.47060  0.88700  0.13370  Biso   1.000  N
  N89      1.0000 0.52940  0.11300  0.13370  Biso   1.000  N
  N90      1.0000 0.52940  0.61300  0.63370  Biso   1.000  N
  N91      1.0000 0.02940  0.11300  0.63370  Biso   1.000  N
  N92      1.0000 0.02940  0.61300  0.13370  Biso   1.000  N
  N93      1.0000 0.22060  0.86300  0.38370  Biso   1.000  N
  N94      1.0000 0.22060  0.36300  0.88370  Biso   1.000  N
  N95      1.0000 0.72060  0.86300  0.88370  Biso   1.000  N
  N96      1.0000 0.72060  0.36300  0.38370  Biso   1.000  N
  N97      1.0000 0.30580  0.18660  0.73700  Biso   1.000  N
  N98      1.0000 0.30580  0.68660  0.23700  Biso   1.000  N
  N99      1.0000 0.80580  0.18660  0.23700  Biso   1.000  N
  N100     1.0000 0.80580  0.68660  0.73700  Biso   1.000  N
  N101     1.0000 0.94420  0.43660  0.98700  Biso   1.000  N
  N102     1.0000 0.94420  0.93660  0.48700  Biso   1.000  N
  N103     1.0000 0.44420  0.43660  0.48700  Biso   1.000  N
  N104     1.0000 0.44420  0.93660  0.98700  Biso   1.000  N
  N105     1.0000 0.55580  0.06340  0.98700  Biso   1.000  N
  N106     1.0000 0.55580  0.56340  0.48700  Biso   1.000  N
  N107     1.0000 0.05580  0.06340  0.48700  Biso   1.000  N
  N108     1.0000 0.05580  0.56340  0.98700  Biso   1.000  N
  N109     1.0000 0.19420  0.81340  0.23700  Biso   1.000  N
  N110     1.0000 0.19420  0.31340  0.73700  Biso   1.000  N
  N111     1.0000 0.69420  0.81340  0.73700  Biso   1.000  N
  N112     1.0000 0.69420  0.31340  0.23700  Biso   1.000  N
  C289     1.0000 0.29240  0.08070  0.91890  Biso   1.000  C
  C290     1.0000 0.29240  0.58070  0.41890  Biso   1.000  C
  C291     1.0000 0.79240  0.08070  0.41890  Biso   1.000  C
  C292     1.0000 0.79240  0.58070  0.91890  Biso   1.000  C
  C293     1.0000 0.95760  0.33070  0.16890  Biso   1.000  C
  C294     1.0000 0.95760  0.83070  0.66890  Biso   1.000  C
  C295     1.0000 0.45760  0.33070  0.66890  Biso   1.000  C
  C296     1.0000 0.45760  0.83070  0.16890  Biso   1.000  C
  C297     1.0000 0.54240  0.16930  0.16890  Biso   1.000  C
  C298     1.0000 0.54240  0.66930  0.66890  Biso   1.000  C
  C299     1.0000 0.04240  0.16930  0.66890  Biso   1.000  C
  C300     1.0000 0.04240  0.66930  0.16890  Biso   1.000  C
  C301     1.0000 0.20760  0.91930  0.41890  Biso   1.000  C
  C302     1.0000 0.20760  0.41930  0.91890  Biso   1.000  C
  C303     1.0000 0.70760  0.91930  0.91890  Biso   1.000  C
  C304     1.0000 0.70760  0.41930  0.41890  Biso   1.000  C
  C305     1.0000 0.32250  0.05840  0.85870  Biso   1.000  C
  C306     1.0000 0.32250  0.55840  0.35870  Biso   1.000  C
  C307     1.0000 0.82250  0.05840  0.35870  Biso   1.000  C
  C308     1.0000 0.82250  0.55840  0.85870  Biso   1.000  C
  C309     1.0000 0.92750  0.30840  0.10870  Biso   1.000  C
  C310     1.0000 0.92750  0.80840  0.60870  Biso   1.000  C
  C311     1.0000 0.42750  0.30840  0.60870  Biso   1.000  C
  C312     1.0000 0.42750  0.80840  0.10870  Biso   1.000  C
  C313     1.0000 0.57250  0.19160  0.10870  Biso   1.000  C
  C314     1.0000 0.57250  0.69160  0.60870  Biso   1.000  C
  C315     1.0000 0.07250  0.19160  0.60870  Biso   1.000  C
  C316     1.0000 0.07250  0.69160  0.10870  Biso   1.000  C
  C317     1.0000 0.17750  0.94160  0.35870  Biso   1.000  C
  C318     1.0000 0.17750  0.44160  0.85870  Biso   1.000  C
  C319     1.0000 0.67750  0.94160  0.85870  Biso   1.000  C
  C320     1.0000 0.67750  0.44160  0.35870  Biso   1.000  C
  C321     1.0000 0.36310  0.09420  0.68110  Biso   1.000  C
  C322     1.0000 0.36310  0.59420  0.18110  Biso   1.000  C
  C323     1.0000 0.86310  0.09420  0.18110  Biso   1.000  C
  C324     1.0000 0.86310  0.59420  0.68110  Biso   1.000  C
  C325     1.0000 0.88690  0.34420  0.93110  Biso   1.000  C
  C326     1.0000 0.88690  0.84420  0.43110  Biso   1.000  C
  C327     1.0000 0.38690  0.34420  0.43110  Biso   1.000  C
  C328     1.0000 0.38690  0.84420  0.93110  Biso   1.000  C
  C329     1.0000 0.61310  0.15580  0.93110  Biso   1.000  C
  C330     1.0000 0.61310  0.65580  0.43110  Biso   1.000  C
  C331     1.0000 0.11310  0.15580  0.43110  Biso   1.000  C
  C332     1.0000 0.11310  0.65580  0.93110  Biso   1.000  C
  C333     1.0000 0.13690  0.90580  0.18110  Biso   1.000  C
  C334     1.0000 0.13690  0.40580  0.68110  Biso   1.000  C
  C335     1.0000 0.63690  0.90580  0.68110  Biso   1.000  C
  C336     1.0000 0.63690  0.40580  0.18110  Biso   1.000  C
  C337     1.0000 0.36510  0.14490  0.62580  Biso   1.000  C
  C338     1.0000 0.36510  0.64490  0.12580  Biso   1.000  C
  C339     1.0000 0.86510  0.14490  0.12580  Biso   1.000  C
  C340     1.0000 0.86510  0.64490  0.62580  Biso   1.000  C
  C341     1.0000 0.88490  0.39490  0.87580  Biso   1.000  C
  C342     1.0000 0.88490  0.89490  0.37580  Biso   1.000  C
  C343     1.0000 0.38490  0.39490  0.37580  Biso   1.000  C
  C344     1.0000 0.38490  0.89490  0.87580  Biso   1.000  C
  C345     1.0000 0.61510  0.10510  0.87580  Biso   1.000  C
  C346     1.0000 0.61510  0.60510  0.37580  Biso   1.000  C
  C347     1.0000 0.11510  0.10510  0.37580  Biso   1.000  C
  C348     1.0000 0.11510  0.60510  0.87580  Biso   1.000  C
  C349     1.0000 0.13490  0.85510  0.12580  Biso   1.000  C
  C350     1.0000 0.13490  0.35510  0.62580  Biso   1.000  C
  C351     1.0000 0.63490  0.85510  0.62580  Biso   1.000  C
  C352     1.0000 0.63490  0.35510  0.12580  Biso   1.000  C
  C353     1.0000 0.33420  0.18680  0.65260  Biso   1.000  C
  C354     1.0000 0.33420  0.68680  0.15260  Biso   1.000  C
  C355     1.0000 0.83420  0.18680  0.15260  Biso   1.000  C
  C356     1.0000 0.83420  0.68680  0.65260  Biso   1.000  C
  C357     1.0000 0.91580  0.43680  0.90260  Biso   1.000  C
  C358     1.0000 0.91580  0.93680  0.40260  Biso   1.000  C
  C359     1.0000 0.41580  0.43680  0.40260  Biso   1.000  C
  C360     1.0000 0.41580  0.93680  0.90260  Biso   1.000  C
  C361     1.0000 0.58420  0.06320  0.90260  Biso   1.000  C
  C362     1.0000 0.58420  0.56320  0.40260  Biso   1.000  C
  C363     1.0000 0.08420  0.06320  0.40260  Biso   1.000  C
  C364     1.0000 0.08420  0.56320  0.90260  Biso   1.000  C
  C365     1.0000 0.16580  0.81320  0.15260  Biso   1.000  C
  C366     1.0000 0.16580  0.31320  0.65260  Biso   1.000  C
  C367     1.0000 0.66580  0.81320  0.65260  Biso   1.000  C
  C368     1.0000 0.66580  0.31320  0.15260  Biso   1.000  C
  C369     1.0000 0.30330  0.14500  0.79460  Biso   1.000  C
  C370     1.0000 0.30330  0.64500  0.29460  Biso   1.000  C
  C371     1.0000 0.80330  0.14500  0.29460  Biso   1.000  C
  C372     1.0000 0.80330  0.64500  0.79460  Biso   1.000  C
  C373     1.0000 0.94670  0.39500  0.04460  Biso   1.000  C
  C374     1.0000 0.94670  0.89500  0.54460  Biso   1.000  C
  C375     1.0000 0.44670  0.39500  0.54460  Biso   1.000  C
  C376     1.0000 0.44670  0.89500  0.04460  Biso   1.000  C
  C377     1.0000 0.55330  0.10500  0.04460  Biso   1.000  C
  C378     1.0000 0.55330  0.60500  0.54460  Biso   1.000  C
  C379     1.0000 0.05330  0.10500  0.54460  Biso   1.000  C
  C380     1.0000 0.05330  0.60500  0.04460  Biso   1.000  C
  C381     1.0000 0.19670  0.85500  0.29460  Biso   1.000  C
  C382     1.0000 0.19670  0.35500  0.79460  Biso   1.000  C
  C383     1.0000 0.69670  0.85500  0.79460  Biso   1.000  C
  C384     1.0000 0.69670  0.35500  0.29460  Biso   1.000  C
  C385     1.0000 0.33420  0.08980  0.77330  Biso   1.000  C
  C386     1.0000 0.33420  0.58980  0.27330  Biso   1.000  C
  C387     1.0000 0.83420  0.08980  0.27330  Biso   1.000  C
  C388     1.0000 0.83420  0.58980  0.77330  Biso   1.000  C
  C389     1.0000 0.91580  0.33980  0.02330  Biso   1.000  C
  C390     1.0000 0.91580  0.83980  0.52330  Biso   1.000  C
  C391     1.0000 0.41580  0.33980  0.52330  Biso   1.000  C
  C392     1.0000 0.41580  0.83980  0.02330  Biso   1.000  C
  C393     1.0000 0.58420  0.16020  0.02330  Biso   1.000  C
  C394     1.0000 0.58420  0.66020  0.52330  Biso   1.000  C
  C395     1.0000 0.08420  0.16020  0.52330  Biso   1.000  C
  C396     1.0000 0.08420  0.66020  0.02330  Biso   1.000  C
  C397     1.0000 0.16580  0.91020  0.27330  Biso   1.000  C
  C398     1.0000 0.16580  0.41020  0.77330  Biso   1.000  C
  C399     1.0000 0.66580  0.91020  0.77330  Biso   1.000  C
  C400     1.0000 0.66580  0.41020  0.27330  Biso   1.000  C
  H1       1.0000 0.30530  0.16940  0.36840  Biso   1.000  H
  H2       1.0000 0.30530  0.66940  0.86840  Biso   1.000  H
  H3       1.0000 0.80530  0.16940  0.86840  Biso   1.000  H
  H4       1.0000 0.80530  0.66940  0.36840  Biso   1.000  H
  H5       1.0000 0.94470  0.41940  0.61840  Biso   1.000  H
  H6       1.0000 0.94470  0.91940  0.11840  Biso   1.000  H
  H7       1.0000 0.44470  0.41940  0.11840  Biso   1.000  H
  H8       1.0000 0.44470  0.91940  0.61840  Biso   1.000  H
  H9       1.0000 0.55530  0.08060  0.61840  Biso   1.000  H
  H10      1.0000 0.55530  0.58060  0.11840  Biso   1.000  H
  H11      1.0000 0.05530  0.08060  0.11840  Biso   1.000  H
  H12      1.0000 0.05530  0.58060  0.61840  Biso   1.000  H
  H13      1.0000 0.19470  0.83060  0.86840  Biso   1.000  H
  H14      1.0000 0.19470  0.33060  0.36840  Biso   1.000  H
  H15      1.0000 0.69470  0.83060  0.36840  Biso   1.000  H
  H16      1.0000 0.69470  0.33060  0.86840  Biso   1.000  H
  H17      1.0000 0.33700  0.07410  0.44360  Biso   1.000  H
  H18      1.0000 0.33700  0.57410  0.94360  Biso   1.000  H
  H19      1.0000 0.83700  0.07410  0.94360  Biso   1.000  H
  H20      1.0000 0.83700  0.57410  0.44360  Biso   1.000  H
  H21      1.0000 0.91300  0.32410  0.69360  Biso   1.000  H
  H22      1.0000 0.91300  0.82410  0.19360  Biso   1.000  H
  H23      1.0000 0.41300  0.32410  0.19360  Biso   1.000  H
  H24      1.0000 0.41300  0.82410  0.69360  Biso   1.000  H
  H25      1.0000 0.58700  0.17590  0.69360  Biso   1.000  H
  H26      1.0000 0.58700  0.67590  0.19360  Biso   1.000  H
  H27      1.0000 0.08700  0.17590  0.19360  Biso   1.000  H
  H28      1.0000 0.08700  0.67590  0.69360  Biso   1.000  H
  H29      1.0000 0.16300  0.92590  0.94360  Biso   1.000  H
  H30      1.0000 0.16300  0.42590  0.44360  Biso   1.000  H
  H31      1.0000 0.66300  0.92590  0.44360  Biso   1.000  H
  H32      1.0000 0.66300  0.42590  0.94360  Biso   1.000  H
  H33      1.0000 0.30500  0.00980  0.35310  Biso   1.000  H
  H34      1.0000 0.30500  0.50980  0.85310  Biso   1.000  H
  H35      1.0000 0.80500  0.00980  0.85310  Biso   1.000  H
  H36      1.0000 0.80500  0.50980  0.35310  Biso   1.000  H
  H37      1.0000 0.94500  0.25980  0.60310  Biso   1.000  H
  H38      1.0000 0.94500  0.75980  0.10310  Biso   1.000  H
  H39      1.0000 0.44500  0.25980  0.10310  Biso   1.000  H
  H40      1.0000 0.44500  0.75980  0.60310  Biso   1.000  H
  H41      1.0000 0.55500  0.24020  0.60310  Biso   1.000  H
  H42      1.0000 0.55500  0.74020  0.10310  Biso   1.000  H
  H43      1.0000 0.05500  0.24020  0.10310  Biso   1.000  H
  H44      1.0000 0.05500  0.74020  0.60310  Biso   1.000  H
  H45      1.0000 0.19500  0.99020  0.85310  Biso   1.000  H
  H46      1.0000 0.19500  0.49020  0.35310  Biso   1.000  H
  H47      1.0000 0.69500  0.99020  0.35310  Biso   1.000  H
  H48      1.0000 0.69500  0.49020  0.85310  Biso   1.000  H
  H49      1.0000 0.21560  0.00420  0.15920  Biso   1.000  H
  H50      1.0000 0.21560  0.50420  0.65920  Biso   1.000  H
  H51      1.0000 0.71560  0.00420  0.65920  Biso   1.000  H
  H52      1.0000 0.71560  0.50420  0.15920  Biso   1.000  H
  H53      1.0000 0.03440  0.25420  0.40920  Biso   1.000  H
  H54      1.0000 0.03440  0.75420  0.90920  Biso   1.000  H
  H55      1.0000 0.53440  0.25420  0.90920  Biso   1.000  H
  H56      1.0000 0.53440  0.75420  0.40920  Biso   1.000  H
  H57      1.0000 0.46560  0.24580  0.40920  Biso   1.000  H
  H58      1.0000 0.46560  0.74580  0.90920  Biso   1.000  H
  H59      1.0000 0.96560  0.24580  0.90920  Biso   1.000  H
  H60      1.0000 0.96560  0.74580  0.40920  Biso   1.000  H
  H61      1.0000 0.28440  0.99580  0.65920  Biso   1.000  H
  H62      1.0000 0.28440  0.49580  0.15920  Biso   1.000  H
  H63      1.0000 0.78440  0.99580  0.15920  Biso   1.000  H
  H64      1.0000 0.78440  0.49580  0.65920  Biso   1.000  H
  H65      1.0000 0.16540  0.08040  0.06050  Biso   1.000  H
  H66      1.0000 0.16540  0.58040  0.56050  Biso   1.000  H
  H67      1.0000 0.66540  0.08040  0.56050  Biso   1.000  H
  H68      1.0000 0.66540  0.58040  0.06050  Biso   1.000  H
  H69      1.0000 0.08460  0.33040  0.31050  Biso   1.000  H
  H70      1.0000 0.08460  0.83040  0.81050  Biso   1.000  H
  H71      1.0000 0.58460  0.33040  0.81050  Biso   1.000  H
  H72      1.0000 0.58460  0.83040  0.31050  Biso   1.000  H
  H73      1.0000 0.41540  0.16960  0.31050  Biso   1.000  H
  H74      1.0000 0.41540  0.66960  0.81050  Biso   1.000  H
  H75      1.0000 0.91540  0.16960  0.81050  Biso   1.000  H
  H76      1.0000 0.91540  0.66960  0.31050  Biso   1.000  H
  H77      1.0000 0.33460  0.91960  0.56050  Biso   1.000  H
  H78      1.0000 0.33460  0.41960  0.06050  Biso   1.000  H
  H79      1.0000 0.83460  0.91960  0.06050  Biso   1.000  H
  H80      1.0000 0.83460  0.41960  0.56050  Biso   1.000  H
  H81      1.0000 0.19150  0.16820  0.09440  Biso   1.000  H
  H82      1.0000 0.19150  0.66820  0.59440  Biso   1.000  H
  H83      1.0000 0.69150  0.16820  0.59440  Biso   1.000  H
  H84      1.0000 0.69150  0.66820  0.09440  Biso   1.000  H
  H85      1.0000 0.05850  0.41820  0.34440  Biso   1.000  H
  H86      1.0000 0.05850  0.91820  0.84440  Biso   1.000  H
  H87      1.0000 0.55850  0.41820  0.84440  Biso   1.000  H
  H88      1.0000 0.55850  0.91820  0.34440  Biso   1.000  H
  H89      1.0000 0.44150  0.08180  0.34440  Biso   1.000  H
  H90      1.0000 0.44150  0.58180  0.84440  Biso   1.000  H
  H91      1.0000 0.94150  0.08180  0.84440  Biso   1.000  H
  H92      1.0000 0.94150  0.58180  0.34440  Biso   1.000  H
  H93      1.0000 0.30850  0.83180  0.59440  Biso   1.000  H
  H94      1.0000 0.30850  0.33180  0.09440  Biso   1.000  H
  H95      1.0000 0.80850  0.83180  0.09440  Biso   1.000  H
  H96      1.0000 0.80850  0.33180  0.59440  Biso   1.000  H
  H97      1.0000 0.23860  0.15730  0.56620  Biso   1.000  H
  H98      1.0000 0.23860  0.65730  0.06620  Biso   1.000  H
  H99      1.0000 0.73860  0.15730  0.06620  Biso   1.000  H
  H100     1.0000 0.73860  0.65730  0.56620  Biso   1.000  H
  H101     1.0000 0.01140  0.40730  0.81620  Biso   1.000  H
  H102     1.0000 0.01140  0.90730  0.31620  Biso   1.000  H
  H103     1.0000 0.51140  0.40730  0.31620  Biso   1.000  H
  H104     1.0000 0.51140  0.90730  0.81620  Biso   1.000  H
  H105     1.0000 0.48860  0.09270  0.81620  Biso   1.000  H
  H106     1.0000 0.48860  0.59270  0.31620  Biso   1.000  H
  H107     1.0000 0.98860  0.09270  0.31620  Biso   1.000  H
  H108     1.0000 0.98860  0.59270  0.81620  Biso   1.000  H
  H109     1.0000 0.26140  0.84270  0.06620  Biso   1.000  H
  H110     1.0000 0.26140  0.34270  0.56620  Biso   1.000  H
  H111     1.0000 0.76140  0.84270  0.56620  Biso   1.000  H
  H112     1.0000 0.76140  0.34270  0.06620  Biso   1.000  H
  H113     1.0000 0.22230  0.06700  0.48940  Biso   1.000  H
  H114     1.0000 0.22230  0.56700  0.98940  Biso   1.000  H
  H115     1.0000 0.72230  0.06700  0.98940  Biso   1.000  H
  H116     1.0000 0.72230  0.56700  0.48940  Biso   1.000  H
  H117     1.0000 0.02770  0.31700  0.73940  Biso   1.000  H
  H118     1.0000 0.02770  0.81700  0.23940  Biso   1.000  H
  H119     1.0000 0.52770  0.31700  0.23940  Biso   1.000  H
  H120     1.0000 0.52770  0.81700  0.73940  Biso   1.000  H
  H121     1.0000 0.47230  0.18300  0.73940  Biso   1.000  H
  H122     1.0000 0.47230  0.68300  0.23940  Biso   1.000  H
  H123     1.0000 0.97230  0.18300  0.23940  Biso   1.000  H
  H124     1.0000 0.97230  0.68300  0.73940  Biso   1.000  H
  H125     1.0000 0.27770  0.93300  0.98940  Biso   1.000  H
  H126     1.0000 0.27770  0.43300  0.48940  Biso   1.000  H
  H127     1.0000 0.77770  0.93300  0.48940  Biso   1.000  H
  H128     1.0000 0.77770  0.43300  0.98940  Biso   1.000  H
  H129     1.0000 0.16240  0.01640  0.62120  Biso   1.000  H
  H130     1.0000 0.16240  0.51640  0.12120  Biso   1.000  H
  H131     1.0000 0.66240  0.01640  0.12120  Biso   1.000  H
  H132     1.0000 0.66240  0.51640  0.62120  Biso   1.000  H
  H133     1.0000 0.08760  0.26640  0.87120  Biso   1.000  H
  H134     1.0000 0.08760  0.76640  0.37120  Biso   1.000  H
  H135     1.0000 0.58760  0.26640  0.37120  Biso   1.000  H
  H136     1.0000 0.58760  0.76640  0.87120  Biso   1.000  H
  H137     1.0000 0.41240  0.23360  0.87120  Biso   1.000  H
  H138     1.0000 0.41240  0.73360  0.37120  Biso   1.000  H
  H139     1.0000 0.91240  0.23360  0.37120  Biso   1.000  H
  H140     1.0000 0.91240  0.73360  0.87120  Biso   1.000  H
  H141     1.0000 0.33760  0.98360  0.12120  Biso   1.000  H
  H142     1.0000 0.33760  0.48360  0.62120  Biso   1.000  H
  H143     1.0000 0.83760  0.98360  0.62120  Biso   1.000  H
  H144     1.0000 0.83760  0.48360  0.12120  Biso   1.000  H
  H145     1.0000 0.11490  0.06300  0.80460  Biso   1.000  H
  H146     1.0000 0.11490  0.56300  0.30460  Biso   1.000  H
  H147     1.0000 0.61490  0.06300  0.30460  Biso   1.000  H
  H148     1.0000 0.61490  0.56300  0.80460  Biso   1.000  H
  H149     1.0000 0.13510  0.31300  0.05460  Biso   1.000  H
  H150     1.0000 0.13510  0.81300  0.55460  Biso   1.000  H
  H151     1.0000 0.63510  0.31300  0.55460  Biso   1.000  H
  H152     1.0000 0.63510  0.81300  0.05460  Biso   1.000  H
  H153     1.0000 0.36490  0.18700  0.05460  Biso   1.000  H
  H154     1.0000 0.36490  0.68700  0.55460  Biso   1.000  H
  H155     1.0000 0.86490  0.18700  0.55460  Biso   1.000  H
  H156     1.0000 0.86490  0.68700  0.05460  Biso   1.000  H
  H157     1.0000 0.38510  0.93700  0.30460  Biso   1.000  H
  H158     1.0000 0.38510  0.43700  0.80460  Biso   1.000  H
  H159     1.0000 0.88510  0.93700  0.80460  Biso   1.000  H
  H160     1.0000 0.88510  0.43700  0.30460  Biso   1.000  H
  H161     1.0000 0.11490  0.13950  0.91880  Biso   1.000  H
  H162     1.0000 0.11490  0.63950  0.41880  Biso   1.000  H
  H163     1.0000 0.61490  0.13950  0.41880  Biso   1.000  H
  H164     1.0000 0.61490  0.63950  0.91880  Biso   1.000  H
  H165     1.0000 0.13510  0.38950  0.16880  Biso   1.000  H
  H166     1.0000 0.13510  0.88950  0.66880  Biso   1.000  H
  H167     1.0000 0.63510  0.38950  0.66880  Biso   1.000  H
  H168     1.0000 0.63510  0.88950  0.16880  Biso   1.000  H
  H169     1.0000 0.36490  0.11050  0.16880  Biso   1.000  H
  H170     1.0000 0.36490  0.61050  0.66880  Biso   1.000  H
  H171     1.0000 0.86490  0.11050  0.66880  Biso   1.000  H
  H172     1.0000 0.86490  0.61050  0.16880  Biso   1.000  H
  H173     1.0000 0.38510  0.86050  0.41880  Biso   1.000  H
  H174     1.0000 0.38510  0.36050  0.91880  Biso   1.000  H
  H175     1.0000 0.88510  0.86050  0.91880  Biso   1.000  H
  H176     1.0000 0.88510  0.36050  0.41880  Biso   1.000  H
  H177     1.0000 0.16280  0.22090  0.87680  Biso   1.000  H
  H178     1.0000 0.16280  0.72090  0.37680  Biso   1.000  H
  H179     1.0000 0.66280  0.22090  0.37680  Biso   1.000  H
  H180     1.0000 0.66280  0.72090  0.87680  Biso   1.000  H
  H181     1.0000 0.08720  0.47090  0.12680  Biso   1.000  H
  H182     1.0000 0.08720  0.97090  0.62680  Biso   1.000  H
  H183     1.0000 0.58720  0.47090  0.62680  Biso   1.000  H
  H184     1.0000 0.58720  0.97090  0.12680  Biso   1.000  H
  H185     1.0000 0.41280  0.02910  0.12680  Biso   1.000  H
  H186     1.0000 0.41280  0.52910  0.62680  Biso   1.000  H
  H187     1.0000 0.91280  0.02910  0.62680  Biso   1.000  H
  H188     1.0000 0.91280  0.52910  0.12680  Biso   1.000  H
  H189     1.0000 0.33720  0.77910  0.37680  Biso   1.000  H
  H190     1.0000 0.33720  0.27910  0.87680  Biso   1.000  H
  H191     1.0000 0.83720  0.77910  0.87680  Biso   1.000  H
  H192     1.0000 0.83720  0.27910  0.37680  Biso   1.000  H
  H193     1.0000 0.26000  0.16020  0.91460  Biso   1.000  H
  H194     1.0000 0.26000  0.66020  0.41460  Biso   1.000  H
  H195     1.0000 0.76000  0.16020  0.41460  Biso   1.000  H
  H196     1.0000 0.76000  0.66020  0.91460  Biso   1.000  H
  H197     1.0000 0.99000  0.41020  0.16460  Biso   1.000  H
  H198     1.0000 0.99000  0.91020  0.66460  Biso   1.000  H
  H199     1.0000 0.49000  0.41020  0.66460  Biso   1.000  H
  H200     1.0000 0.49000  0.91020  0.16460  Biso   1.000  H
  H201     1.0000 0.51000  0.08980  0.16460  Biso   1.000  H
  H202     1.0000 0.51000  0.58980  0.66460  Biso   1.000  H
  H203     1.0000 0.01000  0.08980  0.66460  Biso   1.000  H
  H204     1.0000 0.01000  0.58980  0.16460  Biso   1.000  H
  H205     1.0000 0.24000  0.83980  0.41460  Biso   1.000  H
  H206     1.0000 0.24000  0.33980  0.91460  Biso   1.000  H
  H207     1.0000 0.74000  0.83980  0.91460  Biso   1.000  H
  H208     1.0000 0.74000  0.33980  0.41460  Biso   1.000  H
  H209     1.0000 0.27930  0.06350  0.98040  Biso   1.000  H
  H210     1.0000 0.27930  0.56350  0.48040  Biso   1.000  H
  H211     1.0000 0.77930  0.06350  0.48040  Biso   1.000  H
  H212     1.0000 0.77930  0.56350  0.98040  Biso   1.000  H
  H213     1.0000 0.97070  0.31350  0.23040  Biso   1.000  H
  H214     1.0000 0.97070  0.81350  0.73040  Biso   1.000  H
  H215     1.0000 0.47070  0.31350  0.73040  Biso   1.000  H
  H216     1.0000 0.47070  0.81350  0.23040  Biso   1.000  H
  H217     1.0000 0.52930  0.18650  0.23040  Biso   1.000  H
  H218     1.0000 0.52930  0.68650  0.73040  Biso   1.000  H
  H219     1.0000 0.02930  0.18650  0.73040  Biso   1.000  H
  H220     1.0000 0.02930  0.68650  0.23040  Biso   1.000  H
  H221     1.0000 0.22070  0.93650  0.48040  Biso   1.000  H
  H222     1.0000 0.22070  0.43650  0.98040  Biso   1.000  H
  H223     1.0000 0.72070  0.93650  0.98040  Biso   1.000  H
  H224     1.0000 0.72070  0.43650  0.48040  Biso   1.000  H
  H225     1.0000 0.33640  0.02210  0.87090  Biso   1.000  H
  H226     1.0000 0.33640  0.52210  0.37090  Biso   1.000  H
  H227     1.0000 0.83640  0.02210  0.37090  Biso   1.000  H
  H228     1.0000 0.83640  0.52210  0.87090  Biso   1.000  H
  H229     1.0000 0.91360  0.27210  0.12090  Biso   1.000  H
  H230     1.0000 0.91360  0.77210  0.62090  Biso   1.000  H
  H231     1.0000 0.41360  0.27210  0.62090  Biso   1.000  H
  H232     1.0000 0.41360  0.77210  0.12090  Biso   1.000  H
  H233     1.0000 0.58640  0.22790  0.12090  Biso   1.000  H
  H234     1.0000 0.58640  0.72790  0.62090  Biso   1.000  H
  H235     1.0000 0.08640  0.22790  0.62090  Biso   1.000  H
  H236     1.0000 0.08640  0.72790  0.12090  Biso   1.000  H
  H237     1.0000 0.16360  0.97790  0.37090  Biso   1.000  H
  H238     1.0000 0.16360  0.47790  0.87090  Biso   1.000  H
  H239     1.0000 0.66360  0.97790  0.87090  Biso   1.000  H
  H240     1.0000 0.66360  0.47790  0.37090  Biso   1.000  H
  H241     1.0000 0.38130  0.06240  0.65630  Biso   1.000  H
  H242     1.0000 0.38130  0.56240  0.15630  Biso   1.000  H
  H243     1.0000 0.88130  0.06240  0.15630  Biso   1.000  H
  H244     1.0000 0.88130  0.56240  0.65630  Biso   1.000  H
  H245     1.0000 0.86870  0.31240  0.90630  Biso   1.000  H
  H246     1.0000 0.86870  0.81240  0.40630  Biso   1.000  H
  H247     1.0000 0.36870  0.31240  0.40630  Biso   1.000  H
  H248     1.0000 0.36870  0.81240  0.90630  Biso   1.000  H
  H249     1.0000 0.63130  0.18760  0.90630  Biso   1.000  H
  H250     1.0000 0.63130  0.68760  0.40630  Biso   1.000  H
  H251     1.0000 0.13130  0.18760  0.40630  Biso   1.000  H
  H252     1.0000 0.13130  0.68760  0.90630  Biso   1.000  H
  H253     1.0000 0.11870  0.93760  0.15630  Biso   1.000  H
  H254     1.0000 0.11870  0.43760  0.65630  Biso   1.000  H
  H255     1.0000 0.61870  0.93760  0.65630  Biso   1.000  H
  H256     1.0000 0.61870  0.43760  0.15630  Biso   1.000  H
  H257     1.0000 0.38820  0.14940  0.56950  Biso   1.000  H
  H258     1.0000 0.38820  0.64940  0.06950  Biso   1.000  H
  H259     1.0000 0.88820  0.14940  0.06950  Biso   1.000  H
  H260     1.0000 0.88820  0.64940  0.56950  Biso   1.000  H
  H261     1.0000 0.86180  0.39940  0.81950  Biso   1.000  H
  H262     1.0000 0.86180  0.89940  0.31950  Biso   1.000  H
  H263     1.0000 0.36180  0.39940  0.31950  Biso   1.000  H
  H264     1.0000 0.36180  0.89940  0.81950  Biso   1.000  H
  H265     1.0000 0.63820  0.10060  0.81950  Biso   1.000  H
  H266     1.0000 0.63820  0.60060  0.31950  Biso   1.000  H
  H267     1.0000 0.13820  0.10060  0.31950  Biso   1.000  H
  H268     1.0000 0.13820  0.60060  0.81950  Biso   1.000  H
  H269     1.0000 0.11180  0.85060  0.06950  Biso   1.000  H
  H270     1.0000 0.11180  0.35060  0.56950  Biso   1.000  H
  H271     1.0000 0.61180  0.85060  0.56950  Biso   1.000  H
  H272     1.0000 0.61180  0.35060  0.06950  Biso   1.000  H
  H273     1.0000 0.33270  0.21880  0.60790  Biso   1.000  H
  H274     1.0000 0.33270  0.71880  0.10790  Biso   1.000  H
  H275     1.0000 0.83270  0.21880  0.10790  Biso   1.000  H
  H276     1.0000 0.83270  0.71880  0.60790  Biso   1.000  H
  H277     1.0000 0.91730  0.46880  0.85790  Biso   1.000  H
  H278     1.0000 0.91730  0.96880  0.35790  Biso   1.000  H
  H279     1.0000 0.41730  0.46880  0.35790  Biso   1.000  H
  H280     1.0000 0.41730  0.96880  0.85790  Biso   1.000  H
  H281     1.0000 0.58270  0.03120  0.85790  Biso   1.000  H
  H282     1.0000 0.58270  0.53120  0.35790  Biso   1.000  H
  H283     1.0000 0.08270  0.03120  0.35790  Biso   1.000  H
  H284     1.0000 0.08270  0.53120  0.85790  Biso   1.000  H
  H285     1.0000 0.16730  0.78120  0.10790  Biso   1.000  H
  H286     1.0000 0.16730  0.28120  0.60790  Biso   1.000  H
  H287     1.0000 0.66730  0.78120  0.60790  Biso   1.000  H
  H288     1.0000 0.66730  0.28120  0.10790  Biso   1.000  H
  H289     1.0000 0.19890  0.17350  0.11700  Biso   1.000  H
  H290     1.0000 0.19890  0.67350  0.61700  Biso   1.000  H
  H291     1.0000 0.69890  0.17350  0.61700  Biso   1.000  H
  H292     1.0000 0.69890  0.67350  0.11700  Biso   1.000  H
  H293     1.0000 0.05110  0.42350  0.36700  Biso   1.000  H
  H294     1.0000 0.05110  0.92350  0.86700  Biso   1.000  H
  H295     1.0000 0.55110  0.42350  0.86700  Biso   1.000  H
  H296     1.0000 0.55110  0.92350  0.36700  Biso   1.000  H
  H297     1.0000 0.44890  0.07650  0.36700  Biso   1.000  H
  H298     1.0000 0.44890  0.57650  0.86700  Biso   1.000  H
  H299     1.0000 0.94890  0.07650  0.86700  Biso   1.000  H
  H300     1.0000 0.94890  0.57650  0.36700  Biso   1.000  H
  H301     1.0000 0.30110  0.82650  0.61700  Biso   1.000  H
  H302     1.0000 0.30110  0.32650  0.11700  Biso   1.000  H
  H303     1.0000 0.80110  0.82650  0.11700  Biso   1.000  H
  H304     1.0000 0.80110  0.32650  0.61700  Biso   1.000  H
  H305     1.0000 0.21800  0.00340  0.16520  Biso   1.000  H
  H306     1.0000 0.21800  0.50340  0.66520  Biso   1.000  H
  H307     1.0000 0.71800  0.00340  0.66520  Biso   1.000  H
  H308     1.0000 0.71800  0.50340  0.16520  Biso   1.000  H
  H309     1.0000 0.03200  0.25340  0.41520  Biso   1.000  H
  H310     1.0000 0.03200  0.75340  0.91520  Biso   1.000  H
  H311     1.0000 0.53200  0.25340  0.91520  Biso   1.000  H
  H312     1.0000 0.53200  0.75340  0.41520  Biso   1.000  H
  H313     1.0000 0.46800  0.24660  0.41520  Biso   1.000  H
  H314     1.0000 0.46800  0.74660  0.91520  Biso   1.000  H
  H315     1.0000 0.96800  0.24660  0.91520  Biso   1.000  H
  H316     1.0000 0.96800  0.74660  0.41520  Biso   1.000  H
  H317     1.0000 0.28200  0.99660  0.66520  Biso   1.000  H
  H318     1.0000 0.28200  0.49660  0.16520  Biso   1.000  H
  H319     1.0000 0.78200  0.99660  0.16520  Biso   1.000  H
  H320     1.0000 0.78200  0.49660  0.66520  Biso   1.000  H
  H321     1.0000 0.29260  0.00710  0.31750  Biso   1.000  H
  H322     1.0000 0.29260  0.50710  0.81750  Biso   1.000  H
  H323     1.0000 0.79260  0.00710  0.81750  Biso   1.000  H
  H324     1.0000 0.79260  0.50710  0.31750  Biso   1.000  H
  H325     1.0000 0.95740  0.25710  0.56750  Biso   1.000  H
  H326     1.0000 0.95740  0.75710  0.06750  Biso   1.000  H
  H327     1.0000 0.45740  0.25710  0.06750  Biso   1.000  H
  H328     1.0000 0.45740  0.75710  0.56750  Biso   1.000  H
  H329     1.0000 0.54260  0.24290  0.56750  Biso   1.000  H
  H330     1.0000 0.54260  0.74290  0.06750  Biso   1.000  H
  H331     1.0000 0.04260  0.24290  0.06750  Biso   1.000  H
  H332     1.0000 0.04260  0.74290  0.56750  Biso   1.000  H
  H333     1.0000 0.20740  0.99290  0.81750  Biso   1.000  H
  H334     1.0000 0.20740  0.49290  0.31750  Biso   1.000  H
  H335     1.0000 0.70740  0.99290  0.31750  Biso   1.000  H
  H336     1.0000 0.70740  0.49290  0.81750  Biso   1.000  H
  H337     1.0000 0.31410  0.07310  0.42320  Biso   1.000  H
  H338     1.0000 0.31410  0.57310  0.92320  Biso   1.000  H
  H339     1.0000 0.81410  0.07310  0.92320  Biso   1.000  H
  H340     1.0000 0.81410  0.57310  0.42320  Biso   1.000  H
  H341     1.0000 0.93590  0.32310  0.67320  Biso   1.000  H
  H342     1.0000 0.93590  0.82310  0.17320  Biso   1.000  H
  H343     1.0000 0.43590  0.32310  0.17320  Biso   1.000  H
  H344     1.0000 0.43590  0.82310  0.67320  Biso   1.000  H
  H345     1.0000 0.56410  0.17690  0.67320  Biso   1.000  H
  H346     1.0000 0.56410  0.67690  0.17320  Biso   1.000  H
  H347     1.0000 0.06410  0.17690  0.17320  Biso   1.000  H
  H348     1.0000 0.06410  0.67690  0.67320  Biso   1.000  H
  H349     1.0000 0.18590  0.92690  0.92320  Biso   1.000  H
  H350     1.0000 0.18590  0.42690  0.42320  Biso   1.000  H
  H351     1.0000 0.68590  0.92690  0.42320  Biso   1.000  H
  H352     1.0000 0.68590  0.42690  0.92320  Biso   1.000  H
  H353     1.0000 0.31460  0.16160  0.39160  Biso   1.000  H
  H354     1.0000 0.31460  0.66160  0.89160  Biso   1.000  H
  H355     1.0000 0.81460  0.16160  0.89160  Biso   1.000  H
  H356     1.0000 0.81460  0.66160  0.39160  Biso   1.000  H
  H357     1.0000 0.93540  0.41160  0.64160  Biso   1.000  H
  H358     1.0000 0.93540  0.91160  0.14160  Biso   1.000  H
  H359     1.0000 0.43540  0.41160  0.14160  Biso   1.000  H
  H360     1.0000 0.43540  0.91160  0.64160  Biso   1.000  H
  H361     1.0000 0.56460  0.08840  0.64160  Biso   1.000  H
  H362     1.0000 0.56460  0.58840  0.14160  Biso   1.000  H
  H363     1.0000 0.06460  0.08840  0.14160  Biso   1.000  H
  H364     1.0000 0.06460  0.58840  0.64160  Biso   1.000  H
  H365     1.0000 0.18540  0.83840  0.89160  Biso   1.000  H
  H366     1.0000 0.18540  0.33840  0.39160  Biso   1.000  H
  H367     1.0000 0.68540  0.83840  0.39160  Biso   1.000  H
  H368     1.0000 0.68540  0.33840  0.89160  Biso   1.000  H
