data_image0
_cell_length_a       27.6862
_cell_length_b       27.7671
_cell_length_c       13.9934
_cell_angle_alpha    90
_cell_angle_beta     90
_cell_angle_gamma    90

_symmetry_space_group_name_H-M    "P 1"
_symmetry_int_tables_number       1

loop_
  _symmetry_equiv_pos_as_xyz
  'x, y, z'

loop_
  _atom_site_label
  _atom_site_occupancy
  _atom_site_fract_x
  _atom_site_fract_y
  _atom_site_fract_z
  _atom_site_thermal_displace_type
  _atom_site_B_iso_or_equiv
  _atom_site_type_symbol
  Cu1      1.0000 0.63042  0.30608  0.50518  Biso   1.000  Cu
  Cu2      1.0000 0.36958  0.69392  0.50518  Biso   1.000  Cu
  Cu3      1.0000 0.63042  0.69392  0.00518  Biso   1.000  Cu
  Cu4      1.0000 0.36958  0.30608  0.00518  Biso   1.000  Cu
  Cu5      1.0000 0.63016  0.19722  0.49344  Biso   1.000  Cu
  Cu6      1.0000 0.36984  0.80278  0.49344  Biso   1.000  Cu
  Cu7      1.0000 0.63016  0.80278  0.99344  Biso   1.000  Cu
  Cu8      1.0000 0.36984  0.19722  0.99344  Biso   1.000  Cu
  Cu9      1.0000 0.67435  0.24714  0.68479  Biso   1.000  Cu
  Cu10     1.0000 0.32565  0.75286  0.68479  Biso   1.000  Cu
  Cu11     1.0000 0.67435  0.75286  0.18479  Biso   1.000  Cu
  Cu12     1.0000 0.32565  0.24714  0.18479  Biso   1.000  Cu
  Cu13     1.0000 0.14527  0.30246  0.65637  Biso   1.000  Cu
  Cu14     1.0000 0.85473  0.69754  0.65637  Biso   1.000  Cu
  Cu15     1.0000 0.14527  0.69754  0.15637  Biso   1.000  Cu
  Cu16     1.0000 0.85473  0.30246  0.15637  Biso   1.000  Cu
  Cu17     1.0000 0.14392  0.19389  0.64577  Biso   1.000  Cu
  Cu18     1.0000 0.85608  0.80611  0.64577  Biso   1.000  Cu
  Cu19     1.0000 0.14392  0.80611  0.14577  Biso   1.000  Cu
  Cu20     1.0000 0.85608  0.19389  0.14577  Biso   1.000  Cu
  Cu21     1.0000 0.10019  0.25147  0.46624  Biso   1.000  Cu
  Cu22     1.0000 0.89981  0.74853  0.46624  Biso   1.000  Cu
  Cu23     1.0000 0.10019  0.74853  0.96624  Biso   1.000  Cu
  Cu24     1.0000 0.89981  0.25147  0.96624  Biso   1.000  Cu
  I1       1.0000 0.49415  0.42870  0.53330  Biso   1.000  I
  I2       1.0000 0.50585  0.57130  0.53330  Biso   1.000  I
  I3       1.0000 0.49415  0.57130  0.03330  Biso   1.000  I
  I4       1.0000 0.50585  0.42870  0.03330  Biso   1.000  I
  I5       1.0000 0.39814  0.41966  0.58850  Biso   1.000  I
  I6       1.0000 0.60186  0.58034  0.58850  Biso   1.000  I
  I7       1.0000 0.39814  0.58034  0.08850  Biso   1.000  I
  I8       1.0000 0.60186  0.41966  0.08850  Biso   1.000  I
  I9       1.0000 0.29366  0.40739  0.64534  Biso   1.000  I
  I10      1.0000 0.70634  0.59261  0.64534  Biso   1.000  I
  I11      1.0000 0.29366  0.59261  0.14534  Biso   1.000  I
  I12      1.0000 0.70634  0.40739  0.14534  Biso   1.000  I
  I13      1.0000 0.25017  0.50052  0.63997  Biso   1.000  I
  I14      1.0000 0.74983  0.49948  0.63997  Biso   1.000  I
  I15      1.0000 0.25017  0.49948  0.13997  Biso   1.000  I
  I16      1.0000 0.74983  0.50052  0.13997  Biso   1.000  I
  I17      1.0000 0.20093  0.59320  0.62831  Biso   1.000  I
  I18      1.0000 0.79907  0.40680  0.62831  Biso   1.000  I
  I19      1.0000 0.20093  0.40680  0.12831  Biso   1.000  I
  I20      1.0000 0.79907  0.59320  0.12831  Biso   1.000  I
  I21      1.0000 0.34912  0.08613  0.56074  Biso   1.000  I
  I22      1.0000 0.65088  0.91387  0.56074  Biso   1.000  I
  I23      1.0000 0.34912  0.91387  0.06074  Biso   1.000  I
  I24      1.0000 0.65088  0.08613  0.06074  Biso   1.000  I
  I25      1.0000 0.28410  0.00769  0.56893  Biso   1.000  I
  I26      1.0000 0.71590  0.99231  0.56893  Biso   1.000  I
  I27      1.0000 0.28410  0.99231  0.06893  Biso   1.000  I
  I28      1.0000 0.71590  0.00769  0.06893  Biso   1.000  I
  I29      1.0000 0.22006  0.92087  0.56800  Biso   1.000  I
  I30      1.0000 0.77994  0.07913  0.56800  Biso   1.000  I
  I31      1.0000 0.22006  0.07913  0.06800  Biso   1.000  I
  I32      1.0000 0.77994  0.92087  0.06800  Biso   1.000  I
  I33      1.0000 0.10817  0.92584  0.55673  Biso   1.000  I
  I34      1.0000 0.89183  0.07416  0.55673  Biso   1.000  I
  I35      1.0000 0.10817  0.07416  0.05673  Biso   1.000  I
  I36      1.0000 0.89183  0.92584  0.05673  Biso   1.000  I
  I37      1.0000 0.00805  0.92432  0.55120  Biso   1.000  I
  I38      1.0000 0.99195  0.07568  0.55120  Biso   1.000  I
  I39      1.0000 0.00805  0.07568  0.05120  Biso   1.000  I
  I40      1.0000 0.99195  0.92432  0.05120  Biso   1.000  I
  I41      1.0000 0.09034  0.57971  0.55824  Biso   1.000  I
  I42      1.0000 0.90966  0.42029  0.55824  Biso   1.000  I
  I43      1.0000 0.09034  0.42029  0.05824  Biso   1.000  I
  I44      1.0000 0.90966  0.57971  0.05824  Biso   1.000  I
  I45      1.0000 0.99536  0.57504  0.50000  Biso   1.000  I
  I46      1.0000 0.00464  0.42496  0.50000  Biso   1.000  I
  I47      1.0000 0.99536  0.42496  0.00000  Biso   1.000  I
  I48      1.0000 0.00464  0.57504  0.00000  Biso   1.000  I
  O1       1.0000 0.61540  0.34520  0.62690  Biso   1.000  O
  O2       1.0000 0.38460  0.65480  0.62690  Biso   1.000  O
  O3       1.0000 0.61540  0.65480  0.12690  Biso   1.000  O
  O4       1.0000 0.38460  0.34520  0.12690  Biso   1.000  O
  O5       1.0000 0.66930  0.31250  0.73000  Biso   1.000  O
  O6       1.0000 0.33070  0.68750  0.73000  Biso   1.000  O
  O7       1.0000 0.66930  0.68750  0.23000  Biso   1.000  O
  O8       1.0000 0.33070  0.31250  0.23000  Biso   1.000  O
  O9       1.0000 0.56520  0.29260  0.44570  Biso   1.000  O
  O10      1.0000 0.43480  0.70740  0.44570  Biso   1.000  O
  O11      1.0000 0.56520  0.70740  0.94570  Biso   1.000  O
  O12      1.0000 0.43480  0.29260  0.94570  Biso   1.000  O
  O13      1.0000 0.56500  0.21120  0.44290  Biso   1.000  O
  O14      1.0000 0.43500  0.78880  0.44290  Biso   1.000  O
  O15      1.0000 0.56500  0.78880  0.94290  Biso   1.000  O
  O16      1.0000 0.43500  0.21120  0.94290  Biso   1.000  O
  O17      1.0000 0.61240  0.15220  0.60950  Biso   1.000  O
  O18      1.0000 0.38760  0.84780  0.60950  Biso   1.000  O
  O19      1.0000 0.61240  0.84780  0.10950  Biso   1.000  O
  O20      1.0000 0.38760  0.15220  0.10950  Biso   1.000  O
  O21      1.0000 0.66900  0.17970  0.71190  Biso   1.000  O
  O22      1.0000 0.33100  0.82030  0.71190  Biso   1.000  O
  O23      1.0000 0.66900  0.82030  0.21190  Biso   1.000  O
  O24      1.0000 0.33100  0.17970  0.21190  Biso   1.000  O
  O25      1.0000 0.70000  0.21180  0.47450  Biso   1.000  O
  O26      1.0000 0.30000  0.78820  0.47450  Biso   1.000  O
  O27      1.0000 0.70000  0.78820  0.97450  Biso   1.000  O
  O28      1.0000 0.30000  0.21180  0.97450  Biso   1.000  O
  O29      1.0000 0.70090  0.29130  0.48520  Biso   1.000  O
  O30      1.0000 0.29910  0.70870  0.48520  Biso   1.000  O
  O31      1.0000 0.70090  0.70870  0.98520  Biso   1.000  O
  O32      1.0000 0.29910  0.29130  0.98520  Biso   1.000  O
  O33      1.0000 0.07300  0.28980  0.66800  Biso   1.000  O
  O34      1.0000 0.92700  0.71020  0.66800  Biso   1.000  O
  O35      1.0000 0.07300  0.71020  0.16800  Biso   1.000  O
  O36      1.0000 0.92700  0.28980  0.16800  Biso   1.000  O
  O37      1.0000 0.07550  0.20790  0.66930  Biso   1.000  O
  O38      1.0000 0.92450  0.79210  0.66930  Biso   1.000  O
  O39      1.0000 0.07550  0.79210  0.16930  Biso   1.000  O
  O40      1.0000 0.92450  0.20790  0.16930  Biso   1.000  O
  O41      1.0000 0.15780  0.34820  0.54110  Biso   1.000  O
  O42      1.0000 0.84220  0.65180  0.54110  Biso   1.000  O
  O43      1.0000 0.15780  0.65180  0.04110  Biso   1.000  O
  O44      1.0000 0.84220  0.34820  0.04110  Biso   1.000  O
  O45      1.0000 0.10640  0.31950  0.42950  Biso   1.000  O
  O46      1.0000 0.89360  0.68050  0.42950  Biso   1.000  O
  O47      1.0000 0.10640  0.68050  0.92950  Biso   1.000  O
  O48      1.0000 0.89360  0.31950  0.92950  Biso   1.000  O
  O49      1.0000 0.20900  0.28440  0.71580  Biso   1.000  O
  O50      1.0000 0.79100  0.71560  0.71580  Biso   1.000  O
  O51      1.0000 0.20900  0.71560  0.21580  Biso   1.000  O
  O52      1.0000 0.79100  0.28440  0.21580  Biso   1.000  O
  O53      1.0000 0.21060  0.20550  0.70060  Biso   1.000  O
  O54      1.0000 0.78940  0.79450  0.70060  Biso   1.000  O
  O55      1.0000 0.21060  0.79450  0.20060  Biso   1.000  O
  O56      1.0000 0.78940  0.20550  0.20060  Biso   1.000  O
  O57      1.0000 0.16500  0.15470  0.52370  Biso   1.000  O
  O58      1.0000 0.83500  0.84530  0.52370  Biso   1.000  O
  O59      1.0000 0.16500  0.84530  0.02370  Biso   1.000  O
  O60      1.0000 0.83500  0.15470  0.02370  Biso   1.000  O
  O61      1.0000 0.10430  0.18350  0.42650  Biso   1.000  O
  O62      1.0000 0.89570  0.81650  0.42650  Biso   1.000  O
  O63      1.0000 0.10430  0.81650  0.92650  Biso   1.000  O
  O64      1.0000 0.89570  0.18350  0.92650  Biso   1.000  O
  O65      1.0000 0.62470  0.24970  0.58420  Biso   1.000  O
  O66      1.0000 0.37530  0.75030  0.58420  Biso   1.000  O
  O67      1.0000 0.62470  0.75030  0.08420  Biso   1.000  O
  O68      1.0000 0.37530  0.24970  0.08420  Biso   1.000  O
  H1       1.0000 0.59690  0.24910  0.61000  Biso   1.000  H
  H2       1.0000 0.40310  0.75090  0.61000  Biso   1.000  H
  H3       1.0000 0.59690  0.75090  0.11000  Biso   1.000  H
  H4       1.0000 0.40310  0.24910  0.11000  Biso   1.000  H
  O69      1.0000 0.14910  0.25010  0.56600  Biso   1.000  O
  O70      1.0000 0.85090  0.74990  0.56600  Biso   1.000  O
  O71      1.0000 0.14910  0.74990  0.06600  Biso   1.000  O
  O72      1.0000 0.85090  0.25010  0.06600  Biso   1.000  O
  H5       1.0000 0.18240  0.25040  0.53500  Biso   1.000  H
  H6       1.0000 0.81760  0.74960  0.53500  Biso   1.000  H
  H7       1.0000 0.18240  0.74960  0.03500  Biso   1.000  H
  H8       1.0000 0.81760  0.25040  0.03500  Biso   1.000  H
  N1       1.0000 0.63620  0.63020  0.94170  Biso   1.000  N
  N2       1.0000 0.36380  0.36980  0.94170  Biso   1.000  N
  N3       1.0000 0.63620  0.36980  0.44170  Biso   1.000  N
  N4       1.0000 0.36380  0.63020  0.44170  Biso   1.000  N
  N5       1.0000 0.23600  0.25280  0.48240  Biso   1.000  N
  N6       1.0000 0.76400  0.74720  0.48240  Biso   1.000  N
  N7       1.0000 0.23600  0.74720  0.98240  Biso   1.000  N
  N8       1.0000 0.76400  0.25280  0.98240  Biso   1.000  N
  N9       1.0000 0.63390  0.86170  0.91440  Biso   1.000  N
  N10      1.0000 0.36610  0.13830  0.91440  Biso   1.000  N
  N11      1.0000 0.63390  0.13830  0.41440  Biso   1.000  N
  N12      1.0000 0.36610  0.86170  0.41440  Biso   1.000  N
  N13      1.0000 0.74380  0.24510  0.71370  Biso   1.000  N
  N14      1.0000 0.25620  0.75490  0.71370  Biso   1.000  N
  N15      1.0000 0.74380  0.75490  0.21370  Biso   1.000  N
  N16      1.0000 0.25620  0.24510  0.21370  Biso   1.000  N
  N17      1.0000 0.02940  0.25170  0.43700  Biso   1.000  N
  N18      1.0000 0.97060  0.74830  0.43700  Biso   1.000  N
  N19      1.0000 0.02940  0.74830  0.93700  Biso   1.000  N
  N20      1.0000 0.97060  0.25170  0.93700  Biso   1.000  N
  N21      1.0000 0.13880  0.63930  0.23730  Biso   1.000  N
  N22      1.0000 0.86120  0.36070  0.23730  Biso   1.000  N
  N23      1.0000 0.13880  0.36070  0.73730  Biso   1.000  N
  N24      1.0000 0.86120  0.63930  0.73730  Biso   1.000  N
  N25      1.0000 0.53920  0.24960  0.66330  Biso   1.000  N
  N26      1.0000 0.46080  0.75040  0.66330  Biso   1.000  N
  N27      1.0000 0.53920  0.75040  0.16330  Biso   1.000  N
  N28      1.0000 0.46080  0.24960  0.16330  Biso   1.000  N
  N29      1.0000 0.13920  0.86940  0.21190  Biso   1.000  N
  N30      1.0000 0.86080  0.13060  0.21190  Biso   1.000  N
  N31      1.0000 0.13920  0.13060  0.71190  Biso   1.000  N
  N32      1.0000 0.86080  0.86940  0.71190  Biso   1.000  N
  C1       1.0000 0.59700  0.60800  0.90700  Biso   1.000  C
  C2       1.0000 0.40300  0.39200  0.90700  Biso   1.000  C
  C3       1.0000 0.59700  0.39200  0.40700  Biso   1.000  C
  C4       1.0000 0.40300  0.60800  0.40700  Biso   1.000  C
  H9       1.0000 0.56900  0.62610  0.89880  Biso   1.000  H
  H10      1.0000 0.43100  0.37390  0.89880  Biso   1.000  H
  H11      1.0000 0.56900  0.37390  0.39880  Biso   1.000  H
  H12      1.0000 0.43100  0.62610  0.39880  Biso   1.000  H
  C5       1.0000 0.59570  0.56040  0.88300  Biso   1.000  C
  C6       1.0000 0.40430  0.43960  0.88300  Biso   1.000  C
  C7       1.0000 0.59570  0.43960  0.38300  Biso   1.000  C
  C8       1.0000 0.40430  0.56040  0.38300  Biso   1.000  C
  H13      1.0000 0.56650  0.54510  0.87010  Biso   1.000  H
  H14      1.0000 0.43350  0.45490  0.87010  Biso   1.000  H
  H15      1.0000 0.56650  0.45490  0.37010  Biso   1.000  H
  H16      1.0000 0.43350  0.54510  0.37010  Biso   1.000  H
  C9       1.0000 0.64040  0.53470  0.87690  Biso   1.000  C
  C10      1.0000 0.35960  0.46530  0.87690  Biso   1.000  C
  C11      1.0000 0.64040  0.46530  0.37690  Biso   1.000  C
  C12      1.0000 0.35960  0.53470  0.37690  Biso   1.000  C
  C13      1.0000 0.67970  0.55940  0.91200  Biso   1.000  C
  C14      1.0000 0.32030  0.44060  0.91200  Biso   1.000  C
  C15      1.0000 0.67970  0.44060  0.41200  Biso   1.000  C
  C16      1.0000 0.32030  0.55940  0.41200  Biso   1.000  C
  H17      1.0000 0.70910  0.54340  0.91650  Biso   1.000  H
  H18      1.0000 0.29090  0.45660  0.91650  Biso   1.000  H
  H19      1.0000 0.70910  0.45660  0.41650  Biso   1.000  H
  H20      1.0000 0.29090  0.54340  0.41650  Biso   1.000  H
  C17      1.0000 0.67730  0.60590  0.94100  Biso   1.000  C
  C18      1.0000 0.32270  0.39410  0.94100  Biso   1.000  C
  C19      1.0000 0.67730  0.39410  0.44100  Biso   1.000  C
  C20      1.0000 0.32270  0.60590  0.44100  Biso   1.000  C
  H21      1.0000 0.70540  0.62130  0.96100  Biso   1.000  H
  H22      1.0000 0.29460  0.37870  0.96100  Biso   1.000  H
  H23      1.0000 0.70540  0.37870  0.46100  Biso   1.000  H
  H24      1.0000 0.29460  0.62130  0.46100  Biso   1.000  H
  C21      1.0000 0.64080  0.48550  0.83830  Biso   1.000  C
  C22      1.0000 0.35920  0.51450  0.83830  Biso   1.000  C
  C23      1.0000 0.64080  0.51450  0.33830  Biso   1.000  C
  C24      1.0000 0.35920  0.48550  0.33830  Biso   1.000  C
  C25      1.0000 0.60500  0.47050  0.76600  Biso   1.000  C
  C26      1.0000 0.39500  0.52950  0.76600  Biso   1.000  C
  C27      1.0000 0.60500  0.52950  0.26600  Biso   1.000  C
  C28      1.0000 0.39500  0.47050  0.26600  Biso   1.000  C
  H25      1.0000 0.57990  0.49100  0.74830  Biso   1.000  H
  H26      1.0000 0.42010  0.50900  0.74830  Biso   1.000  H
  H27      1.0000 0.57990  0.50900  0.24830  Biso   1.000  H
  H28      1.0000 0.42010  0.49100  0.24830  Biso   1.000  H
  C29      1.0000 0.60900  0.42840  0.72600  Biso   1.000  C
  C30      1.0000 0.39100  0.57160  0.72600  Biso   1.000  C
  C31      1.0000 0.60900  0.57160  0.22600  Biso   1.000  C
  C32      1.0000 0.39100  0.42840  0.22600  Biso   1.000  C
  H29      1.0000 0.58800  0.42110  0.67660  Biso   1.000  H
  H30      1.0000 0.41200  0.57890  0.67660  Biso   1.000  H
  H31      1.0000 0.58800  0.57890  0.17660  Biso   1.000  H
  H32      1.0000 0.41200  0.42110  0.17660  Biso   1.000  H
  C33      1.0000 0.64270  0.39290  0.75300  Biso   1.000  C
  C34      1.0000 0.35730  0.60710  0.75300  Biso   1.000  C
  C35      1.0000 0.64270  0.60710  0.25300  Biso   1.000  C
  C36      1.0000 0.35730  0.39290  0.25300  Biso   1.000  C
  C37      1.0000 0.67410  0.40550  0.82330  Biso   1.000  C
  C38      1.0000 0.32590  0.59450  0.82330  Biso   1.000  C
  C39      1.0000 0.67410  0.59450  0.32330  Biso   1.000  C
  C40      1.0000 0.32590  0.40550  0.32330  Biso   1.000  C
  H33      1.0000 0.69660  0.38270  0.84340  Biso   1.000  H
  H34      1.0000 0.30340  0.61730  0.84340  Biso   1.000  H
  H35      1.0000 0.69660  0.61730  0.34340  Biso   1.000  H
  H36      1.0000 0.30340  0.38270  0.34340  Biso   1.000  H
  C41      1.0000 0.67470  0.45010  0.86690  Biso   1.000  C
  C42      1.0000 0.32530  0.54990  0.86690  Biso   1.000  C
  C43      1.0000 0.67470  0.54990  0.36690  Biso   1.000  C
  C44      1.0000 0.32530  0.45010  0.36690  Biso   1.000  C
  H37      1.0000 0.69710  0.45690  0.91450  Biso   1.000  H
  H38      1.0000 0.30290  0.54310  0.91450  Biso   1.000  H
  H39      1.0000 0.69710  0.54310  0.41450  Biso   1.000  H
  H40      1.0000 0.30290  0.45690  0.41450  Biso   1.000  H
  C45      1.0000 0.64230  0.34860  0.70020  Biso   1.000  C
  C46      1.0000 0.35770  0.65140  0.70020  Biso   1.000  C
  C47      1.0000 0.64230  0.65140  0.20020  Biso   1.000  C
  C48      1.0000 0.35770  0.34860  0.20020  Biso   1.000  C
  C49      1.0000 0.46530  0.29550  0.41680  Biso   1.000  C
  C50      1.0000 0.53470  0.70450  0.41680  Biso   1.000  C
  C51      1.0000 0.46530  0.70450  0.91680  Biso   1.000  C
  C52      1.0000 0.53470  0.29550  0.91680  Biso   1.000  C
  H41      1.0000 0.48170  0.32430  0.40680  Biso   1.000  H
  H42      1.0000 0.51830  0.67570  0.40680  Biso   1.000  H
  H43      1.0000 0.48170  0.67570  0.90680  Biso   1.000  H
  H44      1.0000 0.51830  0.32430  0.90680  Biso   1.000  H
  C53      1.0000 0.41530  0.29480  0.41930  Biso   1.000  C
  C54      1.0000 0.58470  0.70520  0.41930  Biso   1.000  C
  C55      1.0000 0.41530  0.70520  0.91930  Biso   1.000  C
  C56      1.0000 0.58470  0.29480  0.91930  Biso   1.000  C
  H45      1.0000 0.39850  0.32370  0.41300  Biso   1.000  H
  H46      1.0000 0.60150  0.67630  0.41300  Biso   1.000  H
  H47      1.0000 0.39850  0.67630  0.91300  Biso   1.000  H
  H48      1.0000 0.60150  0.32370  0.91300  Biso   1.000  H
  C57      1.0000 0.38980  0.25230  0.43100  Biso   1.000  C
  C58      1.0000 0.61020  0.74770  0.43100  Biso   1.000  C
  C59      1.0000 0.38980  0.74770  0.93100  Biso   1.000  C
  C60      1.0000 0.61020  0.25230  0.93100  Biso   1.000  C
  C61      1.0000 0.41460  0.20970  0.44130  Biso   1.000  C
  C62      1.0000 0.58540  0.79030  0.44130  Biso   1.000  C
  C63      1.0000 0.41460  0.79030  0.94130  Biso   1.000  C
  C64      1.0000 0.58540  0.20970  0.94130  Biso   1.000  C
  H49      1.0000 0.39810  0.18090  0.45000  Biso   1.000  H
  H50      1.0000 0.60190  0.81910  0.45000  Biso   1.000  H
  H51      1.0000 0.39810  0.81910  0.95000  Biso   1.000  H
  H52      1.0000 0.60190  0.18090  0.95000  Biso   1.000  H
  C65      1.0000 0.46500  0.21030  0.43870  Biso   1.000  C
  C66      1.0000 0.53500  0.78970  0.43870  Biso   1.000  C
  C67      1.0000 0.46500  0.78970  0.93870  Biso   1.000  C
  C68      1.0000 0.53500  0.21030  0.93870  Biso   1.000  C
  H53      1.0000 0.48150  0.18130  0.44340  Biso   1.000  H
  H54      1.0000 0.51850  0.81870  0.44340  Biso   1.000  H
  H55      1.0000 0.48150  0.81870  0.94340  Biso   1.000  H
  H56      1.0000 0.51850  0.18130  0.94340  Biso   1.000  H
  C69      1.0000 0.33610  0.25340  0.44450  Biso   1.000  C
  C70      1.0000 0.66390  0.74660  0.44450  Biso   1.000  C
  C71      1.0000 0.33610  0.74660  0.94450  Biso   1.000  C
  C72      1.0000 0.66390  0.25340  0.94450  Biso   1.000  C
  C73      1.0000 0.31150  0.29200  0.48070  Biso   1.000  C
  C74      1.0000 0.68850  0.70800  0.48070  Biso   1.000  C
  C75      1.0000 0.31150  0.70800  0.98070  Biso   1.000  C
  C76      1.0000 0.68850  0.29200  0.98070  Biso   1.000  C
  H57      1.0000 0.32850  0.31990  0.49510  Biso   1.000  H
  H58      1.0000 0.67150  0.68010  0.49510  Biso   1.000  H
  H59      1.0000 0.32850  0.68010  0.99510  Biso   1.000  H
  H60      1.0000 0.67150  0.31990  0.99510  Biso   1.000  H
  C77      1.0000 0.26170  0.29110  0.49690  Biso   1.000  C
  C78      1.0000 0.73830  0.70890  0.49690  Biso   1.000  C
  C79      1.0000 0.26170  0.70890  0.99690  Biso   1.000  C
  C80      1.0000 0.73830  0.29110  0.99690  Biso   1.000  C
  H61      1.0000 0.24650  0.31890  0.51870  Biso   1.000  H
  H62      1.0000 0.75350  0.68110  0.51870  Biso   1.000  H
  H63      1.0000 0.24650  0.68110  0.01870  Biso   1.000  H
  H64      1.0000 0.75350  0.31890  0.01870  Biso   1.000  H
  C81      1.0000 0.25840  0.21340  0.45270  Biso   1.000  C
  C82      1.0000 0.74160  0.78660  0.45270  Biso   1.000  C
  C83      1.0000 0.25840  0.78660  0.95270  Biso   1.000  C
  C84      1.0000 0.74160  0.21340  0.95270  Biso   1.000  C
  H65      1.0000 0.24060  0.18520  0.44520  Biso   1.000  H
  H66      1.0000 0.75940  0.81480  0.44520  Biso   1.000  H
  H67      1.0000 0.24060  0.81480  0.94520  Biso   1.000  H
  H68      1.0000 0.75940  0.18520  0.94520  Biso   1.000  H
  C85      1.0000 0.30810  0.21260  0.43190  Biso   1.000  C
  C86      1.0000 0.69190  0.78740  0.43190  Biso   1.000  C
  C87      1.0000 0.30810  0.78740  0.93190  Biso   1.000  C
  C88      1.0000 0.69190  0.21260  0.93190  Biso   1.000  C
  H69      1.0000 0.32230  0.18440  0.40960  Biso   1.000  H
  H70      1.0000 0.67770  0.81560  0.40960  Biso   1.000  H
  H71      1.0000 0.32230  0.81560  0.90960  Biso   1.000  H
  H72      1.0000 0.67770  0.18440  0.90960  Biso   1.000  H
  C89      1.0000 0.54260  0.25310  0.43760  Biso   1.000  C
  C90      1.0000 0.45740  0.74690  0.43760  Biso   1.000  C
  C91      1.0000 0.54260  0.74690  0.93760  Biso   1.000  C
  C92      1.0000 0.45740  0.25310  0.93760  Biso   1.000  C
  C93      1.0000 0.63840  0.10010  0.72550  Biso   1.000  C
  C94      1.0000 0.36160  0.89990  0.72550  Biso   1.000  C
  C95      1.0000 0.63840  0.89990  0.22550  Biso   1.000  C
  C96      1.0000 0.36160  0.10010  0.22550  Biso   1.000  C
  C97      1.0000 0.67740  0.08260  0.78030  Biso   1.000  C
  C98      1.0000 0.32260  0.91740  0.78030  Biso   1.000  C
  C99      1.0000 0.67740  0.91740  0.28030  Biso   1.000  C
  C100     1.0000 0.32260  0.08260  0.28030  Biso   1.000  C
  H73      1.0000 0.70300  0.10310  0.79430  Biso   1.000  H
  H74      1.0000 0.29700  0.89690  0.79430  Biso   1.000  H
  H75      1.0000 0.70300  0.89690  0.29430  Biso   1.000  H
  H76      1.0000 0.29700  0.10310  0.29430  Biso   1.000  H
  C101     1.0000 0.67840  0.03470  0.81450  Biso   1.000  C
  C102     1.0000 0.32160  0.96530  0.81450  Biso   1.000  C
  C103     1.0000 0.67840  0.96530  0.31450  Biso   1.000  C
  C104     1.0000 0.32160  0.03470  0.31450  Biso   1.000  C
  H77      1.0000 0.70540  0.02350  0.84700  Biso   1.000  H
  H78      1.0000 0.29460  0.97650  0.84700  Biso   1.000  H
  H79      1.0000 0.70540  0.97650  0.34700  Biso   1.000  H
  H80      1.0000 0.29460  0.02350  0.34700  Biso   1.000  H
  C105     1.0000 0.63900  0.00420  0.79980  Biso   1.000  C
  C106     1.0000 0.36100  0.99580  0.79980  Biso   1.000  C
  C107     1.0000 0.63900  0.99580  0.29980  Biso   1.000  C
  C108     1.0000 0.36100  0.00420  0.29980  Biso   1.000  C
  C109     1.0000 0.59980  0.02300  0.74460  Biso   1.000  C
  C110     1.0000 0.40020  0.97700  0.74460  Biso   1.000  C
  C111     1.0000 0.59980  0.97700  0.24460  Biso   1.000  C
  C112     1.0000 0.40020  0.02300  0.24460  Biso   1.000  C
  H81      1.0000 0.57280  0.00390  0.73370  Biso   1.000  H
  H82      1.0000 0.42720  0.99610  0.73370  Biso   1.000  H
  H83      1.0000 0.57280  0.99610  0.23370  Biso   1.000  H
  H84      1.0000 0.42720  0.00390  0.23370  Biso   1.000  H
  C113     1.0000 0.60150  0.06790  0.70800  Biso   1.000  C
  C114     1.0000 0.39850  0.93210  0.70800  Biso   1.000  C
  C115     1.0000 0.60150  0.93210  0.20800  Biso   1.000  C
  C116     1.0000 0.39850  0.06790  0.20800  Biso   1.000  C
  H85      1.0000 0.57630  0.07780  0.66890  Biso   1.000  H
  H86      1.0000 0.42370  0.92220  0.66890  Biso   1.000  H
  H87      1.0000 0.57630  0.92220  0.16890  Biso   1.000  H
  H88      1.0000 0.42370  0.07780  0.16890  Biso   1.000  H
  C117     1.0000 0.63860  0.95400  0.83550  Biso   1.000  C
  C118     1.0000 0.36140  0.04600  0.83550  Biso   1.000  C
  C119     1.0000 0.63860  0.04600  0.33550  Biso   1.000  C
  C120     1.0000 0.36140  0.95400  0.33550  Biso   1.000  C
  C121     1.0000 0.59330  0.93350  0.86380  Biso   1.000  C
  C122     1.0000 0.40670  0.06650  0.86380  Biso   1.000  C
  C123     1.0000 0.59330  0.06650  0.36380  Biso   1.000  C
  C124     1.0000 0.40670  0.93350  0.36380  Biso   1.000  C
  H89      1.0000 0.56480  0.95110  0.85910  Biso   1.000  H
  H90      1.0000 0.43520  0.04890  0.85910  Biso   1.000  H
  H91      1.0000 0.56480  0.04890  0.35910  Biso   1.000  H
  H92      1.0000 0.43520  0.95110  0.35910  Biso   1.000  H
  C125     1.0000 0.59300  0.88700  0.89820  Biso   1.000  C
  C126     1.0000 0.40700  0.11300  0.89820  Biso   1.000  C
  C127     1.0000 0.59300  0.11300  0.39820  Biso   1.000  C
  C128     1.0000 0.40700  0.88700  0.39820  Biso   1.000  C
  H93      1.0000 0.56350  0.87240  0.91090  Biso   1.000  H
  H94      1.0000 0.43650  0.12760  0.91090  Biso   1.000  H
  H95      1.0000 0.56350  0.12760  0.41090  Biso   1.000  H
  H96      1.0000 0.43650  0.87240  0.41090  Biso   1.000  H
  C129     1.0000 0.67620  0.88270  0.88620  Biso   1.000  C
  C130     1.0000 0.32380  0.11730  0.88620  Biso   1.000  C
  C131     1.0000 0.67620  0.11730  0.38620  Biso   1.000  C
  C132     1.0000 0.32380  0.88270  0.38620  Biso   1.000  C
  H97      1.0000 0.70470  0.86510  0.89140  Biso   1.000  H
  H98      1.0000 0.29530  0.13490  0.89140  Biso   1.000  H
  H99      1.0000 0.70470  0.13490  0.39140  Biso   1.000  H
  H100     1.0000 0.29530  0.86510  0.39140  Biso   1.000  H
  C133     1.0000 0.67830  0.92770  0.85130  Biso   1.000  C
  C134     1.0000 0.32170  0.07230  0.85130  Biso   1.000  C
  C135     1.0000 0.67830  0.07230  0.35130  Biso   1.000  C
  C136     1.0000 0.32170  0.92770  0.35130  Biso   1.000  C
  H101     1.0000 0.70830  0.94100  0.83770  Biso   1.000  H
  H102     1.0000 0.29170  0.05900  0.83770  Biso   1.000  H
  H103     1.0000 0.70830  0.05900  0.33770  Biso   1.000  H
  H104     1.0000 0.29170  0.94100  0.33770  Biso   1.000  H
  C137     1.0000 0.63900  0.14580  0.67880  Biso   1.000  C
  C138     1.0000 0.36100  0.85420  0.67880  Biso   1.000  C
  C139     1.0000 0.63900  0.85420  0.17880  Biso   1.000  C
  C140     1.0000 0.36100  0.14580  0.17880  Biso   1.000  C
  C141     1.0000 0.00130  0.24730  0.69000  Biso   1.000  C
  C142     1.0000 0.99870  0.75270  0.69000  Biso   1.000  C
  C143     1.0000 0.00130  0.75270  0.19000  Biso   1.000  C
  C144     1.0000 0.99870  0.24730  0.19000  Biso   1.000  C
  C145     1.0000 0.97320  0.29170  0.68510  Biso   1.000  C
  C146     1.0000 0.02680  0.70830  0.68510  Biso   1.000  C
  C147     1.0000 0.97320  0.70830  0.18510  Biso   1.000  C
  C148     1.0000 0.02680  0.29170  0.18510  Biso   1.000  C
  H105     1.0000 0.98880  0.32130  0.68090  Biso   1.000  H
  H106     1.0000 0.01120  0.67870  0.68090  Biso   1.000  H
  H107     1.0000 0.98880  0.67870  0.18090  Biso   1.000  H
  H108     1.0000 0.01120  0.32130  0.18090  Biso   1.000  H
  C149     1.0000 0.92230  0.28970  0.68660  Biso   1.000  C
  C150     1.0000 0.07770  0.71030  0.68660  Biso   1.000  C
  C151     1.0000 0.92230  0.71030  0.18660  Biso   1.000  C
  C152     1.0000 0.07770  0.28970  0.18660  Biso   1.000  C
  H109     1.0000 0.90460  0.31740  0.67450  Biso   1.000  H
  H110     1.0000 0.09540  0.68260  0.67450  Biso   1.000  H
  H111     1.0000 0.90460  0.68260  0.17450  Biso   1.000  H
  H112     1.0000 0.09540  0.31740  0.17450  Biso   1.000  H
  C153     1.0000 0.89810  0.24610  0.70620  Biso   1.000  C
  C154     1.0000 0.10190  0.75390  0.70620  Biso   1.000  C
  C155     1.0000 0.89810  0.75390  0.20620  Biso   1.000  C
  C156     1.0000 0.10190  0.24610  0.20620  Biso   1.000  C
  C157     1.0000 0.92740  0.20350  0.71060  Biso   1.000  C
  C158     1.0000 0.07260  0.79650  0.71060  Biso   1.000  C
  C159     1.0000 0.92740  0.79650  0.21060  Biso   1.000  C
  C160     1.0000 0.07260  0.20350  0.21060  Biso   1.000  C
  H113     1.0000 0.91200  0.17410  0.71880  Biso   1.000  H
  H114     1.0000 0.08800  0.82590  0.71880  Biso   1.000  H
  H115     1.0000 0.91200  0.82590  0.21880  Biso   1.000  H
  H116     1.0000 0.08800  0.17410  0.21880  Biso   1.000  H
  C161     1.0000 0.49140  0.25250  0.42930  Biso   1.000  C
  C162     1.0000 0.50860  0.74750  0.42930  Biso   1.000  C
  C163     1.0000 0.49140  0.74750  0.92930  Biso   1.000  C
  C164     1.0000 0.50860  0.25250  0.92930  Biso   1.000  C
  C165     1.0000 0.84650  0.24490  0.71350  Biso   1.000  C
  C166     1.0000 0.15350  0.75510  0.71350  Biso   1.000  C
  C167     1.0000 0.84650  0.75510  0.21350  Biso   1.000  C
  C168     1.0000 0.15350  0.24490  0.21350  Biso   1.000  C
  C169     1.0000 0.81980  0.28480  0.74530  Biso   1.000  C
  C170     1.0000 0.18020  0.71520  0.74530  Biso   1.000  C
  C171     1.0000 0.81980  0.71520  0.24530  Biso   1.000  C
  C172     1.0000 0.18020  0.28480  0.24530  Biso   1.000  C
  H117     1.0000 0.83540  0.31170  0.77000  Biso   1.000  H
  H118     1.0000 0.16460  0.68830  0.77000  Biso   1.000  H
  H119     1.0000 0.83540  0.68830  0.27000  Biso   1.000  H
  H120     1.0000 0.16460  0.31170  0.27000  Biso   1.000  H
  C173     1.0000 0.76950  0.28370  0.73950  Biso   1.000  C
  C174     1.0000 0.23050  0.71630  0.73950  Biso   1.000  C
  C175     1.0000 0.76950  0.71630  0.23950  Biso   1.000  C
  C176     1.0000 0.23050  0.28370  0.23950  Biso   1.000  C
  H121     1.0000 0.75270  0.31170  0.75460  Biso   1.000  H
  H122     1.0000 0.24730  0.68830  0.75460  Biso   1.000  H
  H123     1.0000 0.75270  0.68830  0.25460  Biso   1.000  H
  H124     1.0000 0.24730  0.31170  0.25460  Biso   1.000  H
  C177     1.0000 0.76880  0.20480  0.68560  Biso   1.000  C
  C178     1.0000 0.23120  0.79520  0.68560  Biso   1.000  C
  C179     1.0000 0.76880  0.79520  0.18560  Biso   1.000  C
  C180     1.0000 0.23120  0.20480  0.18560  Biso   1.000  C
  H125     1.0000 0.75180  0.17750  0.66680  Biso   1.000  H
  H126     1.0000 0.24820  0.82250  0.66680  Biso   1.000  H
  H127     1.0000 0.75180  0.82250  0.16680  Biso   1.000  H
  H128     1.0000 0.24820  0.17750  0.16680  Biso   1.000  H
  C181     1.0000 0.81870  0.20390  0.68460  Biso   1.000  C
  C182     1.0000 0.18130  0.79610  0.68460  Biso   1.000  C
  C183     1.0000 0.81870  0.79610  0.18460  Biso   1.000  C
  C184     1.0000 0.18130  0.20390  0.18460  Biso   1.000  C
  H129     1.0000 0.83460  0.17610  0.66480  Biso   1.000  H
  H130     1.0000 0.16540  0.82390  0.66480  Biso   1.000  H
  H131     1.0000 0.83460  0.82390  0.16480  Biso   1.000  H
  H132     1.0000 0.16540  0.17610  0.16480  Biso   1.000  H
  C185     1.0000 0.05210  0.24930  0.67440  Biso   1.000  C
  C186     1.0000 0.94790  0.75070  0.67440  Biso   1.000  C
  C187     1.0000 0.05210  0.75070  0.17440  Biso   1.000  C
  C188     1.0000 0.94790  0.24930  0.17440  Biso   1.000  C
  C189     1.0000 0.77460  0.25190  0.45770  Biso   1.000  C
  C190     1.0000 0.22540  0.74810  0.45770  Biso   1.000  C
  C191     1.0000 0.77460  0.74810  0.95770  Biso   1.000  C
  C192     1.0000 0.22540  0.25190  0.95770  Biso   1.000  C
  C193     1.0000 0.80040  0.29300  0.47130  Biso   1.000  C
  C194     1.0000 0.19960  0.70700  0.47130  Biso   1.000  C
  C195     1.0000 0.80040  0.70700  0.97130  Biso   1.000  C
  C196     1.0000 0.19960  0.29300  0.97130  Biso   1.000  C
  H133     1.0000 0.78470  0.32160  0.48650  Biso   1.000  H
  H134     1.0000 0.21530  0.67840  0.48650  Biso   1.000  H
  H135     1.0000 0.78470  0.67840  0.98650  Biso   1.000  H
  H136     1.0000 0.21530  0.32160  0.98650  Biso   1.000  H
  C197     1.0000 0.85050  0.29230  0.46220  Biso   1.000  C
  C198     1.0000 0.14950  0.70770  0.46220  Biso   1.000  C
  C199     1.0000 0.85050  0.70770  0.96220  Biso   1.000  C
  C200     1.0000 0.14950  0.29230  0.96220  Biso   1.000  C
  H137     1.0000 0.86800  0.32050  0.47150  Biso   1.000  H
  H138     1.0000 0.13200  0.67950  0.47150  Biso   1.000  H
  H139     1.0000 0.86800  0.67950  0.97150  Biso   1.000  H
  H140     1.0000 0.13200  0.32050  0.97150  Biso   1.000  H
  C201     1.0000 0.87460  0.25030  0.43980  Biso   1.000  C
  C202     1.0000 0.12540  0.74970  0.43980  Biso   1.000  C
  C203     1.0000 0.87460  0.74970  0.93980  Biso   1.000  C
  C204     1.0000 0.12540  0.25030  0.93980  Biso   1.000  C
  C205     1.0000 0.84860  0.20800  0.42350  Biso   1.000  C
  C206     1.0000 0.15140  0.79200  0.42350  Biso   1.000  C
  C207     1.0000 0.84860  0.79200  0.92350  Biso   1.000  C
  C208     1.0000 0.15140  0.20800  0.92350  Biso   1.000  C
  H141     1.0000 0.86430  0.17960  0.40670  Biso   1.000  H
  H142     1.0000 0.13570  0.82040  0.40670  Biso   1.000  H
  H143     1.0000 0.86430  0.82040  0.90670  Biso   1.000  H
  H144     1.0000 0.13570  0.17960  0.90670  Biso   1.000  H
  C209     1.0000 0.79800  0.20960  0.43330  Biso   1.000  C
  C210     1.0000 0.20200  0.79040  0.43330  Biso   1.000  C
  C211     1.0000 0.79800  0.79040  0.93330  Biso   1.000  C
  C212     1.0000 0.20200  0.20960  0.93330  Biso   1.000  C
  H145     1.0000 0.78000  0.18170  0.42320  Biso   1.000  H
  H146     1.0000 0.22000  0.81830  0.42320  Biso   1.000  H
  H147     1.0000 0.78000  0.81830  0.92320  Biso   1.000  H
  H148     1.0000 0.22000  0.18170  0.92320  Biso   1.000  H
  C213     1.0000 0.92800  0.25070  0.43330  Biso   1.000  C
  C214     1.0000 0.07200  0.74930  0.43330  Biso   1.000  C
  C215     1.0000 0.92800  0.74930  0.93330  Biso   1.000  C
  C216     1.0000 0.07200  0.25070  0.93330  Biso   1.000  C
  C217     1.0000 0.95490  0.20780  0.45210  Biso   1.000  C
  C218     1.0000 0.04510  0.79220  0.45210  Biso   1.000  C
  C219     1.0000 0.95490  0.79220  0.95210  Biso   1.000  C
  C220     1.0000 0.04510  0.20780  0.95210  Biso   1.000  C
  H149     1.0000 0.93940  0.17860  0.46280  Biso   1.000  H
  H150     1.0000 0.06060  0.82140  0.46280  Biso   1.000  H
  H151     1.0000 0.93940  0.82140  0.96280  Biso   1.000  H
  H152     1.0000 0.06060  0.17860  0.96280  Biso   1.000  H
  C221     1.0000 0.00460  0.21130  0.45380  Biso   1.000  C
  C222     1.0000 0.99540  0.78870  0.45380  Biso   1.000  C
  C223     1.0000 0.00460  0.78870  0.95380  Biso   1.000  C
  C224     1.0000 0.99540  0.21130  0.95380  Biso   1.000  C
  H153     1.0000 0.02200  0.18360  0.46770  Biso   1.000  H
  H154     1.0000 0.97800  0.81640  0.46770  Biso   1.000  H
  H155     1.0000 0.02200  0.81640  0.96770  Biso   1.000  H
  H156     1.0000 0.97800  0.18360  0.96770  Biso   1.000  H
  C225     1.0000 0.00430  0.29180  0.41810  Biso   1.000  C
  C226     1.0000 0.99570  0.70820  0.41810  Biso   1.000  C
  C227     1.0000 0.00430  0.70820  0.91810  Biso   1.000  C
  C228     1.0000 0.99570  0.29180  0.91810  Biso   1.000  C
  H157     1.0000 0.02090  0.32020  0.40550  Biso   1.000  H
  H158     1.0000 0.97910  0.67980  0.40550  Biso   1.000  H
  H159     1.0000 0.02090  0.67980  0.90550  Biso   1.000  H
  H160     1.0000 0.97910  0.32020  0.90550  Biso   1.000  H
  C229     1.0000 0.95420  0.29200  0.41680  Biso   1.000  C
  C230     1.0000 0.04580  0.70800  0.41680  Biso   1.000  C
  C231     1.0000 0.95420  0.70800  0.91680  Biso   1.000  C
  C232     1.0000 0.04580  0.29200  0.91680  Biso   1.000  C
  H161     1.0000 0.93790  0.32060  0.40450  Biso   1.000  H
  H162     1.0000 0.06210  0.67940  0.40450  Biso   1.000  H
  H163     1.0000 0.93790  0.67940  0.90450  Biso   1.000  H
  H164     1.0000 0.06210  0.32060  0.90450  Biso   1.000  H
  C233     1.0000 0.72100  0.25130  0.47250  Biso   1.000  C
  C234     1.0000 0.27900  0.74870  0.47250  Biso   1.000  C
  C235     1.0000 0.72100  0.74870  0.97250  Biso   1.000  C
  C236     1.0000 0.27900  0.25130  0.97250  Biso   1.000  C
  C237     1.0000 0.09990  0.61130  0.22200  Biso   1.000  C
  C238     1.0000 0.90010  0.38870  0.22200  Biso   1.000  C
  C239     1.0000 0.09990  0.38870  0.72200  Biso   1.000  C
  C240     1.0000 0.90010  0.61130  0.72200  Biso   1.000  C
  H165     1.0000 0.07470  0.62250  0.18360  Biso   1.000  H
  H166     1.0000 0.92530  0.37750  0.18360  Biso   1.000  H
  H167     1.0000 0.07470  0.37750  0.68360  Biso   1.000  H
  H168     1.0000 0.92530  0.62250  0.68360  Biso   1.000  H
  C241     1.0000 0.09710  0.56510  0.26200  Biso   1.000  C
  C242     1.0000 0.90290  0.43490  0.26200  Biso   1.000  C
  C243     1.0000 0.09710  0.43490  0.76200  Biso   1.000  C
  C244     1.0000 0.90290  0.56510  0.76200  Biso   1.000  C
  H169     1.0000 0.06800  0.54850  0.25900  Biso   1.000  H
  H170     1.0000 0.93200  0.45150  0.25900  Biso   1.000  H
  H171     1.0000 0.06800  0.45150  0.75900  Biso   1.000  H
  H172     1.0000 0.93200  0.54850  0.75900  Biso   1.000  H
  C245     1.0000 0.13620  0.54280  0.30820  Biso   1.000  C
  C246     1.0000 0.86380  0.45720  0.30820  Biso   1.000  C
  C247     1.0000 0.13620  0.45720  0.80820  Biso   1.000  C
  C248     1.0000 0.86380  0.54280  0.80820  Biso   1.000  C
  C249     1.0000 0.17510  0.57440  0.32000  Biso   1.000  C
  C250     1.0000 0.82490  0.42560  0.32000  Biso   1.000  C
  C251     1.0000 0.17510  0.42560  0.82000  Biso   1.000  C
  C252     1.0000 0.82490  0.57440  0.82000  Biso   1.000  C
  H173     1.0000 0.20200  0.56380  0.35360  Biso   1.000  H
  H174     1.0000 0.79800  0.43620  0.35360  Biso   1.000  H
  H175     1.0000 0.20200  0.43620  0.85360  Biso   1.000  H
  H176     1.0000 0.79800  0.56380  0.85360  Biso   1.000  H
  C253     1.0000 0.17550  0.62050  0.28300  Biso   1.000  C
  C254     1.0000 0.82450  0.37950  0.28300  Biso   1.000  C
  C255     1.0000 0.17550  0.37950  0.78300  Biso   1.000  C
  C256     1.0000 0.82450  0.62050  0.78300  Biso   1.000  C
  H177     1.0000 0.20310  0.63920  0.29210  Biso   1.000  H
  H178     1.0000 0.79690  0.36080  0.29210  Biso   1.000  H
  H179     1.0000 0.20310  0.36080  0.79210  Biso   1.000  H
  H180     1.0000 0.79690  0.63920  0.79210  Biso   1.000  H
  C257     1.0000 0.13290  0.49480  0.34660  Biso   1.000  C
  C258     1.0000 0.86710  0.50520  0.34660  Biso   1.000  C
  C259     1.0000 0.13290  0.50520  0.84660  Biso   1.000  C
  C260     1.0000 0.86710  0.49480  0.84660  Biso   1.000  C
  C261     1.0000 0.10270  0.46080  0.31110  Biso   1.000  C
  C262     1.0000 0.89730  0.53920  0.31110  Biso   1.000  C
  C263     1.0000 0.10270  0.53920  0.81110  Biso   1.000  C
  C264     1.0000 0.89730  0.46080  0.81110  Biso   1.000  C
  H181     1.0000 0.08230  0.46880  0.26070  Biso   1.000  H
  H182     1.0000 0.91770  0.53120  0.26070  Biso   1.000  H
  H183     1.0000 0.08230  0.53120  0.76070  Biso   1.000  H
  H184     1.0000 0.91770  0.46880  0.76070  Biso   1.000  H
  C265     1.0000 0.10140  0.41360  0.34870  Biso   1.000  C
  C266     1.0000 0.89860  0.58640  0.34870  Biso   1.000  C
  C267     1.0000 0.10140  0.58640  0.84870  Biso   1.000  C
  C268     1.0000 0.89860  0.41360  0.84870  Biso   1.000  C
  H185     1.0000 0.07900  0.39130  0.32650  Biso   1.000  H
  H186     1.0000 0.92100  0.60870  0.32650  Biso   1.000  H
  H187     1.0000 0.07900  0.60870  0.82650  Biso   1.000  H
  H188     1.0000 0.92100  0.39130  0.82650  Biso   1.000  H
  C269     1.0000 0.13370  0.40140  0.41850  Biso   1.000  C
  C270     1.0000 0.86630  0.59860  0.41850  Biso   1.000  C
  C271     1.0000 0.13370  0.59860  0.91850  Biso   1.000  C
  C272     1.0000 0.86630  0.40140  0.91850  Biso   1.000  C
  C273     1.0000 0.16380  0.43460  0.45600  Biso   1.000  C
  C274     1.0000 0.83620  0.56540  0.45600  Biso   1.000  C
  C275     1.0000 0.16380  0.56540  0.95600  Biso   1.000  C
  C276     1.0000 0.83620  0.43460  0.95600  Biso   1.000  C
  H189     1.0000 0.18380  0.42660  0.50740  Biso   1.000  H
  H190     1.0000 0.81620  0.57340  0.50740  Biso   1.000  H
  H191     1.0000 0.18380  0.57340  0.00740  Biso   1.000  H
  H192     1.0000 0.81620  0.42660  0.00740  Biso   1.000  H
  C277     1.0000 0.16450  0.48210  0.41700  Biso   1.000  C
  C278     1.0000 0.83550  0.51790  0.41700  Biso   1.000  C
  C279     1.0000 0.16450  0.51790  0.91700  Biso   1.000  C
  C280     1.0000 0.83550  0.48210  0.91700  Biso   1.000  C
  H193     1.0000 0.18650  0.50450  0.44020  Biso   1.000  H
  H194     1.0000 0.81350  0.49550  0.44020  Biso   1.000  H
  H195     1.0000 0.18650  0.49550  0.94020  Biso   1.000  H
  H196     1.0000 0.81350  0.50450  0.94020  Biso   1.000  H
  C281     1.0000 0.13280  0.35080  0.46660  Biso   1.000  C
  C282     1.0000 0.86720  0.64920  0.46660  Biso   1.000  C
  C283     1.0000 0.13280  0.64920  0.96660  Biso   1.000  C
  C284     1.0000 0.86720  0.35080  0.96660  Biso   1.000  C
  C285     1.0000 0.28410  0.24550  0.71880  Biso   1.000  C
  C286     1.0000 0.71590  0.75450  0.71880  Biso   1.000  C
  C287     1.0000 0.28410  0.75450  0.21880  Biso   1.000  C
  C288     1.0000 0.71590  0.24550  0.21880  Biso   1.000  C
  C289     1.0000 0.31000  0.28480  0.74420  Biso   1.000  C
  C290     1.0000 0.69000  0.71520  0.74420  Biso   1.000  C
  C291     1.0000 0.31000  0.71520  0.24420  Biso   1.000  C
  C292     1.0000 0.69000  0.28480  0.24420  Biso   1.000  C
  H197     1.0000 0.29340  0.31250  0.76140  Biso   1.000  H
  H198     1.0000 0.70660  0.68750  0.76140  Biso   1.000  H
  H199     1.0000 0.29340  0.68750  0.26140  Biso   1.000  H
  H200     1.0000 0.70660  0.31250  0.26140  Biso   1.000  H
  C293     1.0000 0.35880  0.28590  0.74600  Biso   1.000  C
  C294     1.0000 0.64120  0.71410  0.74600  Biso   1.000  C
  C295     1.0000 0.35880  0.71410  0.24600  Biso   1.000  C
  C296     1.0000 0.64120  0.28590  0.24600  Biso   1.000  C
  H201     1.0000 0.37490  0.31310  0.76780  Biso   1.000  H
  H202     1.0000 0.62510  0.68690  0.76780  Biso   1.000  H
  H203     1.0000 0.37490  0.68690  0.26780  Biso   1.000  H
  H204     1.0000 0.62510  0.31310  0.26780  Biso   1.000  H
  C297     1.0000 0.38400  0.24680  0.71580  Biso   1.000  C
  C298     1.0000 0.61600  0.75320  0.71580  Biso   1.000  C
  C299     1.0000 0.38400  0.75320  0.21580  Biso   1.000  C
  C300     1.0000 0.61600  0.24680  0.21580  Biso   1.000  C
  C301     1.0000 0.36040  0.20410  0.69000  Biso   1.000  C
  C302     1.0000 0.63960  0.79590  0.69000  Biso   1.000  C
  C303     1.0000 0.36040  0.79590  0.19000  Biso   1.000  C
  C304     1.0000 0.63960  0.20410  0.19000  Biso   1.000  C
  H205     1.0000 0.37790  0.17730  0.66970  Biso   1.000  H
  H206     1.0000 0.62210  0.82270  0.66970  Biso   1.000  H
  H207     1.0000 0.37790  0.82270  0.16970  Biso   1.000  H
  H208     1.0000 0.62210  0.17730  0.16970  Biso   1.000  H
  C305     1.0000 0.30960  0.20270  0.69570  Biso   1.000  C
  C306     1.0000 0.69040  0.79730  0.69570  Biso   1.000  C
  C307     1.0000 0.30960  0.79730  0.19570  Biso   1.000  C
  C308     1.0000 0.69040  0.20270  0.19570  Biso   1.000  C
  H209     1.0000 0.29300  0.17410  0.68450  Biso   1.000  H
  H210     1.0000 0.70700  0.82590  0.68450  Biso   1.000  H
  H211     1.0000 0.29300  0.82590  0.18450  Biso   1.000  H
  H212     1.0000 0.70700  0.17410  0.18450  Biso   1.000  H
  C309     1.0000 0.43870  0.24680  0.70470  Biso   1.000  C
  C310     1.0000 0.56130  0.75320  0.70470  Biso   1.000  C
  C311     1.0000 0.43870  0.75320  0.20470  Biso   1.000  C
  C312     1.0000 0.56130  0.24680  0.20470  Biso   1.000  C
  C313     1.0000 0.46380  0.29260  0.67690  Biso   1.000  C
  C314     1.0000 0.53620  0.70740  0.67690  Biso   1.000  C
  C315     1.0000 0.46380  0.70740  0.17690  Biso   1.000  C
  C316     1.0000 0.53620  0.29260  0.17690  Biso   1.000  C
  H213     1.0000 0.44710  0.32150  0.67050  Biso   1.000  H
  H214     1.0000 0.55290  0.67850  0.67050  Biso   1.000  H
  H215     1.0000 0.44710  0.67850  0.17050  Biso   1.000  H
  H216     1.0000 0.55290  0.32150  0.17050  Biso   1.000  H
  C317     1.0000 0.51130  0.28980  0.66180  Biso   1.000  C
  C318     1.0000 0.48870  0.71020  0.66180  Biso   1.000  C
  C319     1.0000 0.51130  0.71020  0.16180  Biso   1.000  C
  C320     1.0000 0.48870  0.28980  0.16180  Biso   1.000  C
  H217     1.0000 0.52710  0.31860  0.64880  Biso   1.000  H
  H218     1.0000 0.47290  0.68140  0.64880  Biso   1.000  H
  H219     1.0000 0.52710  0.68140  0.14880  Biso   1.000  H
  H220     1.0000 0.47290  0.31860  0.14880  Biso   1.000  H
  C321     1.0000 0.51390  0.20790  0.68670  Biso   1.000  C
  C322     1.0000 0.48610  0.79210  0.68670  Biso   1.000  C
  C323     1.0000 0.51390  0.79210  0.18670  Biso   1.000  C
  C324     1.0000 0.48610  0.20790  0.18670  Biso   1.000  C
  H221     1.0000 0.53110  0.17910  0.68800  Biso   1.000  H
  H222     1.0000 0.46890  0.82090  0.68800  Biso   1.000  H
  H223     1.0000 0.53110  0.82090  0.18800  Biso   1.000  H
  H224     1.0000 0.46890  0.17910  0.18800  Biso   1.000  H
  C325     1.0000 0.46730  0.20610  0.70710  Biso   1.000  C
  C326     1.0000 0.53270  0.79390  0.70710  Biso   1.000  C
  C327     1.0000 0.46730  0.79390  0.20710  Biso   1.000  C
  C328     1.0000 0.53270  0.20610  0.20710  Biso   1.000  C
  H225     1.0000 0.45350  0.17670  0.72360  Biso   1.000  H
  H226     1.0000 0.54650  0.82330  0.72360  Biso   1.000  H
  H227     1.0000 0.45350  0.82330  0.22360  Biso   1.000  H
  H228     1.0000 0.54650  0.17670  0.22360  Biso   1.000  H
  C329     1.0000 0.22940  0.24520  0.71230  Biso   1.000  C
  C330     1.0000 0.77060  0.75480  0.71230  Biso   1.000  C
  C331     1.0000 0.22940  0.75480  0.21230  Biso   1.000  C
  C332     1.0000 0.77060  0.24520  0.21230  Biso   1.000  C
  C333     1.0000 0.13310  0.10390  0.40510  Biso   1.000  C
  C334     1.0000 0.86690  0.89610  0.40510  Biso   1.000  C
  C335     1.0000 0.13310  0.89610  0.90510  Biso   1.000  C
  C336     1.0000 0.86690  0.10390  0.90510  Biso   1.000  C
  C337     1.0000 0.17390  0.07310  0.41400  Biso   1.000  C
  C338     1.0000 0.82610  0.92690  0.41400  Biso   1.000  C
  C339     1.0000 0.17390  0.92690  0.91400  Biso   1.000  C
  C340     1.0000 0.82610  0.07310  0.91400  Biso   1.000  C
  H229     1.0000 0.20130  0.08330  0.44710  Biso   1.000  H
  H230     1.0000 0.79870  0.91670  0.44710  Biso   1.000  H
  H231     1.0000 0.20130  0.91670  0.94710  Biso   1.000  H
  H232     1.0000 0.79870  0.08330  0.94710  Biso   1.000  H
  C341     1.0000 0.17200  0.02860  0.37430  Biso   1.000  C
  C342     1.0000 0.82800  0.97140  0.37430  Biso   1.000  C
  C343     1.0000 0.17200  0.97140  0.87430  Biso   1.000  C
  C344     1.0000 0.82800  0.02860  0.87430  Biso   1.000  C
  H233     1.0000 0.19830  0.00810  0.38100  Biso   1.000  H
  H234     1.0000 0.80170  0.99190  0.38100  Biso   1.000  H
  H235     1.0000 0.19830  0.99190  0.88100  Biso   1.000  H
  H236     1.0000 0.80170  0.00810  0.88100  Biso   1.000  H
  C345     1.0000 0.13210  0.01300  0.32380  Biso   1.000  C
  C346     1.0000 0.86790  0.98700  0.32380  Biso   1.000  C
  C347     1.0000 0.13210  0.98700  0.82380  Biso   1.000  C
  C348     1.0000 0.86790  0.01300  0.82380  Biso   1.000  C
  C349     1.0000 0.09370  0.04210  0.31380  Biso   1.000  C
  C350     1.0000 0.90630  0.95790  0.31380  Biso   1.000  C
  C351     1.0000 0.09370  0.95790  0.81380  Biso   1.000  C
  C352     1.0000 0.90630  0.04210  0.81380  Biso   1.000  C
  H237     1.0000 0.06680  0.03120  0.28040  Biso   1.000  H
  H238     1.0000 0.93320  0.96880  0.28040  Biso   1.000  H
  H239     1.0000 0.06680  0.96880  0.78040  Biso   1.000  H
  H240     1.0000 0.93320  0.03120  0.78040  Biso   1.000  H
  C353     1.0000 0.09310  0.08870  0.35270  Biso   1.000  C
  C354     1.0000 0.90690  0.91130  0.35270  Biso   1.000  C
  C355     1.0000 0.09310  0.91130  0.85270  Biso   1.000  C
  C356     1.0000 0.90690  0.08870  0.85270  Biso   1.000  C
  H241     1.0000 0.06680  0.10890  0.34360  Biso   1.000  H
  H242     1.0000 0.93320  0.89110  0.34360  Biso   1.000  H
  H243     1.0000 0.06680  0.89110  0.84360  Biso   1.000  H
  H244     1.0000 0.93320  0.10890  0.84360  Biso   1.000  H
  C357     1.0000 0.13580  0.96400  0.28080  Biso   1.000  C
  C358     1.0000 0.86420  0.03600  0.28080  Biso   1.000  C
  C359     1.0000 0.13580  0.03600  0.78080  Biso   1.000  C
  C360     1.0000 0.86420  0.96400  0.78080  Biso   1.000  C
  C361     1.0000 0.17570  0.94520  0.24300  Biso   1.000  C
  C362     1.0000 0.82430  0.05480  0.24300  Biso   1.000  C
  C363     1.0000 0.17570  0.05480  0.74300  Biso   1.000  C
  C364     1.0000 0.82430  0.94520  0.74300  Biso   1.000  C
  H245     1.0000 0.20360  0.96370  0.24110  Biso   1.000  H
  H246     1.0000 0.79640  0.03630  0.24110  Biso   1.000  H
  H247     1.0000 0.20360  0.03630  0.74110  Biso   1.000  H
  H248     1.0000 0.79640  0.96370  0.74110  Biso   1.000  H
  C365     1.0000 0.17680  0.89890  0.20770  Biso   1.000  C
  C366     1.0000 0.82320  0.10110  0.20770  Biso   1.000  C
  C367     1.0000 0.17680  0.10110  0.70770  Biso   1.000  C
  C368     1.0000 0.82320  0.89890  0.70770  Biso   1.000  C
  H249     1.0000 0.20520  0.88790  0.17960  Biso   1.000  H
  H250     1.0000 0.79480  0.11210  0.17960  Biso   1.000  H
  H251     1.0000 0.20520  0.11210  0.67960  Biso   1.000  H
  H252     1.0000 0.79480  0.88790  0.67960  Biso   1.000  H
  C369     1.0000 0.09690  0.88770  0.24970  Biso   1.000  C
  C370     1.0000 0.90310  0.11230  0.24970  Biso   1.000  C
  C371     1.0000 0.09690  0.11230  0.74970  Biso   1.000  C
  C372     1.0000 0.90310  0.88770  0.74970  Biso   1.000  C
  H253     1.0000 0.06990  0.86780  0.25360  Biso   1.000  H
  H254     1.0000 0.93010  0.13220  0.25360  Biso   1.000  H
  H255     1.0000 0.06990  0.13220  0.75360  Biso   1.000  H
  H256     1.0000 0.93010  0.86780  0.75360  Biso   1.000  H
  C373     1.0000 0.09370  0.93330  0.28100  Biso   1.000  C
  C374     1.0000 0.90630  0.06670  0.28100  Biso   1.000  C
  C375     1.0000 0.09370  0.06670  0.78100  Biso   1.000  C
  C376     1.0000 0.90630  0.93330  0.78100  Biso   1.000  C
  H257     1.0000 0.06430  0.94520  0.30260  Biso   1.000  H
  H258     1.0000 0.93570  0.05480  0.30260  Biso   1.000  H
  H259     1.0000 0.06430  0.05480  0.80260  Biso   1.000  H
  H260     1.0000 0.93570  0.94520  0.80260  Biso   1.000  H
  C377     1.0000 0.13490  0.15270  0.45820  Biso   1.000  C
  C378     1.0000 0.86510  0.84730  0.45820  Biso   1.000  C
  C379     1.0000 0.13490  0.84730  0.95820  Biso   1.000  C
  C380     1.0000 0.86510  0.15270  0.95820  Biso   1.000  C
  C381     1.0000 0.97530  0.20350  0.70370  Biso   1.000  C
  C382     1.0000 0.02470  0.79650  0.70370  Biso   1.000  C
  C383     1.0000 0.97530  0.79650  0.20370  Biso   1.000  C
  C384     1.0000 0.02470  0.20350  0.20370  Biso   1.000  C
  H261     1.0000 0.99210  0.17460  0.70790  Biso   1.000  H
  H262     1.0000 0.00790  0.82540  0.70790  Biso   1.000  H
  H263     1.0000 0.99210  0.82540  0.20790  Biso   1.000  H
  H264     1.0000 0.00790  0.17460  0.20790  Biso   1.000  H
