data_image0
_cell_length_a       30.0968
_cell_length_b       30.0968
_cell_length_c       30.0968
_cell_angle_alpha    90
_cell_angle_beta     90
_cell_angle_gamma    90

_symmetry_space_group_name_H-M    "P 1"
_symmetry_int_tables_number       1

loop_
  _symmetry_equiv_pos_as_xyz
  'x, y, z'

loop_
  _atom_site_label
  _atom_site_occupancy
  _atom_site_fract_x
  _atom_site_fract_y
  _atom_site_fract_z
  _atom_site_thermal_displace_type
  _atom_site_B_iso_or_equiv
  _atom_site_type_symbol
  Cl1      1.0000 0.03794  0.71206  0.53794  Biso   1.000  Cl
  Cl2      1.0000 0.53794  0.03794  0.71206  Biso   1.000  Cl
  Cl3      1.0000 0.71206  0.53794  0.03794  Biso   1.000  Cl
  Cl4      1.0000 0.46206  0.28794  0.46206  Biso   1.000  Cl
  Cl5      1.0000 0.96206  0.96206  0.28794  Biso   1.000  Cl
  Cl6      1.0000 0.28794  0.78794  0.78794  Biso   1.000  Cl
  Cl7      1.0000 0.78794  0.78794  0.28794  Biso   1.000  Cl
  Cl8      1.0000 0.96206  0.28794  0.96206  Biso   1.000  Cl
  Cl9      1.0000 0.28794  0.46206  0.46206  Biso   1.000  Cl
  Cl10     1.0000 0.28794  0.96206  0.96206  Biso   1.000  Cl
  Cl11     1.0000 0.78794  0.28794  0.78794  Biso   1.000  Cl
  Cl12     1.0000 0.46206  0.46206  0.28794  Biso   1.000  Cl
  Cl13     1.0000 0.03794  0.21206  0.03794  Biso   1.000  Cl
  Cl14     1.0000 0.21206  0.53794  0.53794  Biso   1.000  Cl
  Cl15     1.0000 0.53794  0.53794  0.21206  Biso   1.000  Cl
  Cl16     1.0000 0.71206  0.21206  0.71206  Biso   1.000  Cl
  Cl17     1.0000 0.71206  0.03794  0.53794  Biso   1.000  Cl
  Cl18     1.0000 0.53794  0.71206  0.03794  Biso   1.000  Cl
  Cl19     1.0000 0.96206  0.46206  0.78794  Biso   1.000  Cl
  Cl20     1.0000 0.28794  0.28794  0.28794  Biso   1.000  Cl
  Cl21     1.0000 0.96206  0.78794  0.46206  Biso   1.000  Cl
  Cl22     1.0000 0.46206  0.96206  0.78794  Biso   1.000  Cl
  Cl23     1.0000 0.03794  0.53794  0.71206  Biso   1.000  Cl
  Cl24     1.0000 0.03794  0.03794  0.21206  Biso   1.000  Cl
  Cl25     1.0000 0.53794  0.21206  0.53794  Biso   1.000  Cl
  Cl26     1.0000 0.71206  0.71206  0.21206  Biso   1.000  Cl
  Cl27     1.0000 0.78794  0.46206  0.96206  Biso   1.000  Cl
  Cl28     1.0000 0.78794  0.96206  0.46206  Biso   1.000  Cl
  Cl29     1.0000 0.21206  0.71206  0.71206  Biso   1.000  Cl
  Cl30     1.0000 0.21206  0.03794  0.03794  Biso   1.000  Cl
  Cl31     1.0000 0.46206  0.78794  0.96206  Biso   1.000  Cl
  Cl32     1.0000 0.21206  0.21206  0.21206  Biso   1.000  Cl
  Cl33     1.0000 0.96206  0.28794  0.46206  Biso   1.000  Cl
  Cl34     1.0000 0.46206  0.96206  0.28794  Biso   1.000  Cl
  Cl35     1.0000 0.28794  0.46206  0.96206  Biso   1.000  Cl
  Cl36     1.0000 0.03794  0.21206  0.53794  Biso   1.000  Cl
  Cl37     1.0000 0.53794  0.03794  0.21206  Biso   1.000  Cl
  Cl38     1.0000 0.71206  0.71206  0.71206  Biso   1.000  Cl
  Cl39     1.0000 0.21206  0.53794  0.03794  Biso   1.000  Cl
  Cl40     1.0000 0.96206  0.78794  0.96206  Biso   1.000  Cl
  Cl41     1.0000 0.28794  0.96206  0.46206  Biso   1.000  Cl
  Cl42     1.0000 0.46206  0.46206  0.78794  Biso   1.000  Cl
  Cl43     1.0000 0.78794  0.28794  0.28794  Biso   1.000  Cl
  Cl44     1.0000 0.53794  0.53794  0.71206  Biso   1.000  Cl
  Cl45     1.0000 0.71206  0.21206  0.21206  Biso   1.000  Cl
  Cl46     1.0000 0.03794  0.71206  0.03794  Biso   1.000  Cl
  Cl47     1.0000 0.21206  0.03794  0.53794  Biso   1.000  Cl
  Cl48     1.0000 0.46206  0.28794  0.96206  Biso   1.000  Cl
  Cl49     1.0000 0.96206  0.96206  0.78794  Biso   1.000  Cl
  Cl50     1.0000 0.78794  0.46206  0.46206  Biso   1.000  Cl
  Cl51     1.0000 0.28794  0.78794  0.28794  Biso   1.000  Cl
  Cl52     1.0000 0.53794  0.21206  0.03794  Biso   1.000  Cl
  Cl53     1.0000 0.03794  0.03794  0.71206  Biso   1.000  Cl
  Cl54     1.0000 0.21206  0.71206  0.21206  Biso   1.000  Cl
  Cl55     1.0000 0.71206  0.53794  0.53794  Biso   1.000  Cl
  Cl56     1.0000 0.46206  0.78794  0.46206  Biso   1.000  Cl
  Cl57     1.0000 0.28794  0.28794  0.78794  Biso   1.000  Cl
  Cl58     1.0000 0.96206  0.46206  0.28794  Biso   1.000  Cl
  Cl59     1.0000 0.78794  0.96206  0.96206  Biso   1.000  Cl
  Cl60     1.0000 0.53794  0.71206  0.53794  Biso   1.000  Cl
  Cl61     1.0000 0.21206  0.21206  0.71206  Biso   1.000  Cl
  Cl62     1.0000 0.71206  0.03794  0.03794  Biso   1.000  Cl
  Cl63     1.0000 0.03794  0.53794  0.21206  Biso   1.000  Cl
  Cl64     1.0000 0.78794  0.78794  0.78794  Biso   1.000  Cl
  O1       1.0000 0.00000  0.75000  0.50000  Biso   1.000  O
  O2       1.0000 0.50000  0.00000  0.75000  Biso   1.000  O
  O3       1.0000 0.75000  0.50000  0.00000  Biso   1.000  O
  O4       1.0000 0.50000  0.25000  0.50000  Biso   1.000  O
  O5       1.0000 0.00000  0.00000  0.25000  Biso   1.000  O
  O6       1.0000 0.25000  0.75000  0.75000  Biso   1.000  O
  O7       1.0000 0.75000  0.75000  0.25000  Biso   1.000  O
  O8       1.0000 0.00000  0.25000  0.00000  Biso   1.000  O
  O9       1.0000 0.25000  0.50000  0.50000  Biso   1.000  O
  O10      1.0000 0.25000  0.00000  0.00000  Biso   1.000  O
  O11      1.0000 0.75000  0.25000  0.75000  Biso   1.000  O
  O12      1.0000 0.50000  0.50000  0.25000  Biso   1.000  O
  O13      1.0000 0.75000  0.00000  0.50000  Biso   1.000  O
  O14      1.0000 0.50000  0.75000  0.00000  Biso   1.000  O
  O15      1.0000 0.00000  0.50000  0.75000  Biso   1.000  O
  O16      1.0000 0.25000  0.25000  0.25000  Biso   1.000  O
  O17      1.0000 0.00000  0.25000  0.50000  Biso   1.000  O
  O18      1.0000 0.50000  0.00000  0.25000  Biso   1.000  O
  O19      1.0000 0.25000  0.50000  0.00000  Biso   1.000  O
  O20      1.0000 0.75000  0.75000  0.75000  Biso   1.000  O
  O21      1.0000 0.00000  0.75000  0.00000  Biso   1.000  O
  O22      1.0000 0.25000  0.00000  0.50000  Biso   1.000  O
  O23      1.0000 0.50000  0.50000  0.75000  Biso   1.000  O
  O24      1.0000 0.75000  0.25000  0.25000  Biso   1.000  O
  O25      1.0000 0.50000  0.25000  0.00000  Biso   1.000  O
  O26      1.0000 0.00000  0.00000  0.75000  Biso   1.000  O
  O27      1.0000 0.75000  0.50000  0.50000  Biso   1.000  O
  O28      1.0000 0.25000  0.75000  0.25000  Biso   1.000  O
  O29      1.0000 0.50000  0.75000  0.50000  Biso   1.000  O
  O30      1.0000 0.25000  0.25000  0.75000  Biso   1.000  O
  O31      1.0000 0.00000  0.50000  0.25000  Biso   1.000  O
  O32      1.0000 0.75000  0.00000  0.00000  Biso   1.000  O
  Cu1      1.0000 0.04574  0.57552  0.48487  Biso   1.000  Cu
  Cu2      1.0000 0.48487  0.04574  0.57552  Biso   1.000  Cu
  Cu3      1.0000 0.57552  0.48487  0.04574  Biso   1.000  Cu
  Cu4      1.0000 0.32552  0.29574  0.51513  Biso   1.000  Cu
  Cu5      1.0000 0.82552  0.95426  0.23487  Biso   1.000  Cu
  Cu6      1.0000 0.42448  0.79574  0.73487  Biso   1.000  Cu
  Cu7      1.0000 0.79574  0.73487  0.42448  Biso   1.000  Cu
  Cu8      1.0000 0.95426  0.23487  0.82552  Biso   1.000  Cu
  Cu9      1.0000 0.29574  0.51513  0.32552  Biso   1.000  Cu
  Cu10     1.0000 0.23487  0.82552  0.95426  Biso   1.000  Cu
  Cu11     1.0000 0.73487  0.42448  0.79574  Biso   1.000  Cu
  Cu12     1.0000 0.51513  0.32552  0.29574  Biso   1.000  Cu
  Cu13     1.0000 0.04574  0.07552  0.98487  Biso   1.000  Cu
  Cu14     1.0000 0.20426  0.67448  0.48487  Biso   1.000  Cu
  Cu15     1.0000 0.48487  0.54574  0.07552  Biso   1.000  Cu
  Cu16     1.0000 0.76513  0.20426  0.57552  Biso   1.000  Cu
  Cu17     1.0000 0.57552  0.98487  0.54574  Biso   1.000  Cu
  Cu18     1.0000 0.67448  0.76513  0.04574  Biso   1.000  Cu
  Cu19     1.0000 0.82552  0.45426  0.73487  Biso   1.000  Cu
  Cu20     1.0000 0.42448  0.29574  0.23487  Biso   1.000  Cu
  Cu21     1.0000 0.95426  0.73487  0.32552  Biso   1.000  Cu
  Cu22     1.0000 0.29574  0.01513  0.82552  Biso   1.000  Cu
  Cu23     1.0000 0.73487  0.92448  0.29574  Biso   1.000  Cu
  Cu24     1.0000 0.51513  0.82552  0.79574  Biso   1.000  Cu
  Cu25     1.0000 0.54574  0.57552  0.98487  Biso   1.000  Cu
  Cu26     1.0000 0.04574  0.67448  0.76513  Biso   1.000  Cu
  Cu27     1.0000 0.98487  0.04574  0.07552  Biso   1.000  Cu
  Cu28     1.0000 0.48487  0.20426  0.67448  Biso   1.000  Cu
  Cu29     1.0000 0.07552  0.48487  0.54574  Biso   1.000  Cu
  Cu30     1.0000 0.57552  0.76513  0.20426  Biso   1.000  Cu
  Cu31     1.0000 0.82552  0.29574  0.01513  Biso   1.000  Cu
  Cu32     1.0000 0.32552  0.95426  0.73487  Biso   1.000  Cu
  Cu33     1.0000 0.29574  0.73487  0.92448  Biso   1.000  Cu
  Cu34     1.0000 0.79574  0.51513  0.82552  Biso   1.000  Cu
  Cu35     1.0000 0.73487  0.82552  0.45426  Biso   1.000  Cu
  Cu36     1.0000 0.23487  0.42448  0.29574  Biso   1.000  Cu
  Cu37     1.0000 0.54574  0.07552  0.48487  Biso   1.000  Cu
  Cu38     1.0000 0.20426  0.57552  0.76513  Biso   1.000  Cu
  Cu39     1.0000 0.98487  0.54574  0.57552  Biso   1.000  Cu
  Cu40     1.0000 0.76513  0.04574  0.67448  Biso   1.000  Cu
  Cu41     1.0000 0.07552  0.98487  0.04574  Biso   1.000  Cu
  Cu42     1.0000 0.67448  0.48487  0.20426  Biso   1.000  Cu
  Cu43     1.0000 0.82552  0.79574  0.51513  Biso   1.000  Cu
  Cu44     1.0000 0.92448  0.29574  0.73487  Biso   1.000  Cu
  Cu45     1.0000 0.29574  0.23487  0.42448  Biso   1.000  Cu
  Cu46     1.0000 0.45426  0.73487  0.82552  Biso   1.000  Cu
  Cu47     1.0000 0.73487  0.32552  0.95426  Biso   1.000  Cu
  Cu48     1.0000 0.01513  0.82552  0.29574  Biso   1.000  Cu
  Cu49     1.0000 0.20426  0.17448  0.98487  Biso   1.000  Cu
  Cu50     1.0000 0.70426  0.07552  0.76513  Biso   1.000  Cu
  Cu51     1.0000 0.54574  0.67448  0.26513  Biso   1.000  Cu
  Cu52     1.0000 0.98487  0.20426  0.17448  Biso   1.000  Cu
  Cu53     1.0000 0.76513  0.70426  0.07552  Biso   1.000  Cu
  Cu54     1.0000 0.26513  0.54574  0.67448  Biso   1.000  Cu
  Cu55     1.0000 0.17448  0.98487  0.20426  Biso   1.000  Cu
  Cu56     1.0000 0.07552  0.76513  0.70426  Biso   1.000  Cu
  Cu57     1.0000 0.67448  0.26513  0.54574  Biso   1.000  Cu
  Cu58     1.0000 0.92448  0.45426  0.01513  Biso   1.000  Cu
  Cu59     1.0000 0.45426  0.01513  0.92448  Biso   1.000  Cu
  Cu60     1.0000 0.01513  0.92448  0.45426  Biso   1.000  Cu
  Cu61     1.0000 0.70426  0.57552  0.26513  Biso   1.000  Cu
  Cu62     1.0000 0.54574  0.17448  0.76513  Biso   1.000  Cu
  Cu63     1.0000 0.98487  0.70426  0.67448  Biso   1.000  Cu
  Cu64     1.0000 0.26513  0.04574  0.17448  Biso   1.000  Cu
  Cu65     1.0000 0.17448  0.48487  0.70426  Biso   1.000  Cu
  Cu66     1.0000 0.07552  0.26513  0.20426  Biso   1.000  Cu
  Cu67     1.0000 0.32552  0.79574  0.01513  Biso   1.000  Cu
  Cu68     1.0000 0.92448  0.95426  0.51513  Biso   1.000  Cu
  Cu69     1.0000 0.79574  0.23487  0.92448  Biso   1.000  Cu
  Cu70     1.0000 0.45426  0.51513  0.42448  Biso   1.000  Cu
  Cu71     1.0000 0.23487  0.32552  0.45426  Biso   1.000  Cu
  Cu72     1.0000 0.01513  0.42448  0.95426  Biso   1.000  Cu
  Cu73     1.0000 0.70426  0.17448  0.48487  Biso   1.000  Cu
  Cu74     1.0000 0.20426  0.07552  0.26513  Biso   1.000  Cu
  Cu75     1.0000 0.26513  0.70426  0.57552  Biso   1.000  Cu
  Cu76     1.0000 0.76513  0.54574  0.17448  Biso   1.000  Cu
  Cu77     1.0000 0.67448  0.98487  0.70426  Biso   1.000  Cu
  Cu78     1.0000 0.17448  0.26513  0.04574  Biso   1.000  Cu
  Cu79     1.0000 0.42448  0.45426  0.51513  Biso   1.000  Cu
  Cu80     1.0000 0.92448  0.79574  0.23487  Biso   1.000  Cu
  Cu81     1.0000 0.45426  0.23487  0.32552  Biso   1.000  Cu
  Cu82     1.0000 0.95426  0.01513  0.42448  Biso   1.000  Cu
  Cu83     1.0000 0.01513  0.32552  0.79574  Biso   1.000  Cu
  Cu84     1.0000 0.51513  0.92448  0.95426  Biso   1.000  Cu
  Cu85     1.0000 0.70426  0.67448  0.98487  Biso   1.000  Cu
  Cu86     1.0000 0.04574  0.17448  0.26513  Biso   1.000  Cu
  Cu87     1.0000 0.48487  0.70426  0.17448  Biso   1.000  Cu
  Cu88     1.0000 0.26513  0.20426  0.07552  Biso   1.000  Cu
  Cu89     1.0000 0.57552  0.26513  0.70426  Biso   1.000  Cu
  Cu90     1.0000 0.17448  0.76513  0.54574  Biso   1.000  Cu
  Cu91     1.0000 0.42448  0.95426  0.01513  Biso   1.000  Cu
  Cu92     1.0000 0.32552  0.45426  0.23487  Biso   1.000  Cu
  Cu93     1.0000 0.95426  0.51513  0.92448  Biso   1.000  Cu
  Cu94     1.0000 0.79574  0.01513  0.32552  Biso   1.000  Cu
  Cu95     1.0000 0.23487  0.92448  0.79574  Biso   1.000  Cu
  Cu96     1.0000 0.51513  0.42448  0.45426  Biso   1.000  Cu
  Cu97     1.0000 0.95426  0.42448  0.51513  Biso   1.000  Cu
  Cu98     1.0000 0.51513  0.95426  0.42448  Biso   1.000  Cu
  Cu99     1.0000 0.42448  0.51513  0.95426  Biso   1.000  Cu
  Cu100    1.0000 0.17448  0.20426  0.48487  Biso   1.000  Cu
  Cu101    1.0000 0.67448  0.04574  0.26513  Biso   1.000  Cu
  Cu102    1.0000 0.57552  0.70426  0.76513  Biso   1.000  Cu
  Cu103    1.0000 0.70426  0.76513  0.57552  Biso   1.000  Cu
  Cu104    1.0000 0.04574  0.26513  0.67448  Biso   1.000  Cu
  Cu105    1.0000 0.20426  0.48487  0.17448  Biso   1.000  Cu
  Cu106    1.0000 0.26513  0.67448  0.04574  Biso   1.000  Cu
  Cu107    1.0000 0.76513  0.57552  0.70426  Biso   1.000  Cu
  Cu108    1.0000 0.48487  0.17448  0.20426  Biso   1.000  Cu
  Cu109    1.0000 0.95426  0.92448  0.01513  Biso   1.000  Cu
  Cu110    1.0000 0.29574  0.82552  0.51513  Biso   1.000  Cu
  Cu111    1.0000 0.51513  0.45426  0.92448  Biso   1.000  Cu
  Cu112    1.0000 0.73487  0.29574  0.42448  Biso   1.000  Cu
  Cu113    1.0000 0.42448  0.01513  0.45426  Biso   1.000  Cu
  Cu114    1.0000 0.82552  0.73487  0.95426  Biso   1.000  Cu
  Cu115    1.0000 0.67448  0.54574  0.76513  Biso   1.000  Cu
  Cu116    1.0000 0.57552  0.20426  0.26513  Biso   1.000  Cu
  Cu117    1.0000 0.04574  0.76513  0.17448  Biso   1.000  Cu
  Cu118    1.0000 0.20426  0.98487  0.67448  Biso   1.000  Cu
  Cu119    1.0000 0.76513  0.07552  0.20426  Biso   1.000  Cu
  Cu120    1.0000 0.48487  0.67448  0.70426  Biso   1.000  Cu
  Cu121    1.0000 0.45426  0.42448  0.01513  Biso   1.000  Cu
  Cu122    1.0000 0.95426  0.82552  0.73487  Biso   1.000  Cu
  Cu123    1.0000 0.01513  0.95426  0.92448  Biso   1.000  Cu
  Cu124    1.0000 0.51513  0.29574  0.82552  Biso   1.000  Cu
  Cu125    1.0000 0.92448  0.51513  0.45426  Biso   1.000  Cu
  Cu126    1.0000 0.42448  0.73487  0.29574  Biso   1.000  Cu
  Cu127    1.0000 0.67448  0.20426  0.98487  Biso   1.000  Cu
  Cu128    1.0000 0.17448  0.04574  0.76513  Biso   1.000  Cu
  Cu129    1.0000 0.20426  0.76513  0.07552  Biso   1.000  Cu
  Cu130    1.0000 0.70426  0.48487  0.67448  Biso   1.000  Cu
  Cu131    1.0000 0.76513  0.67448  0.54574  Biso   1.000  Cu
  Cu132    1.0000 0.26513  0.57552  0.20426  Biso   1.000  Cu
  Cu133    1.0000 0.45426  0.92448  0.51513  Biso   1.000  Cu
  Cu134    1.0000 0.29574  0.42448  0.73487  Biso   1.000  Cu
  Cu135    1.0000 0.01513  0.45426  0.42448  Biso   1.000  Cu
  Cu136    1.0000 0.73487  0.95426  0.82552  Biso   1.000  Cu
  Cu137    1.0000 0.92448  0.01513  0.95426  Biso   1.000  Cu
  Cu138    1.0000 0.82552  0.51513  0.29574  Biso   1.000  Cu
  Cu139    1.0000 0.67448  0.70426  0.48487  Biso   1.000  Cu
  Cu140    1.0000 0.07552  0.20426  0.76513  Biso   1.000  Cu
  Cu141    1.0000 0.20426  0.26513  0.57552  Biso   1.000  Cu
  Cu142    1.0000 0.54574  0.76513  0.67448  Biso   1.000  Cu
  Cu143    1.0000 0.76513  0.17448  0.04574  Biso   1.000  Cu
  Cu144    1.0000 0.98487  0.67448  0.20426  Biso   1.000  Cu
  Cu145    1.0000 0.29574  0.32552  0.01513  Biso   1.000  Cu
  Cu146    1.0000 0.79574  0.92448  0.73487  Biso   1.000  Cu
  Cu147    1.0000 0.45426  0.82552  0.23487  Biso   1.000  Cu
  Cu148    1.0000 0.01513  0.29574  0.32552  Biso   1.000  Cu
  Cu149    1.0000 0.73487  0.79574  0.92448  Biso   1.000  Cu
  Cu150    1.0000 0.23487  0.45426  0.82552  Biso   1.000  Cu
  Cu151    1.0000 0.32552  0.01513  0.29574  Biso   1.000  Cu
  Cu152    1.0000 0.92448  0.73487  0.79574  Biso   1.000  Cu
  Cu153    1.0000 0.82552  0.23487  0.45426  Biso   1.000  Cu
  Cu154    1.0000 0.07552  0.54574  0.98487  Biso   1.000  Cu
  Cu155    1.0000 0.54574  0.98487  0.07552  Biso   1.000  Cu
  Cu156    1.0000 0.98487  0.07552  0.54574  Biso   1.000  Cu
  Cu157    1.0000 0.79574  0.42448  0.23487  Biso   1.000  Cu
  Cu158    1.0000 0.45426  0.32552  0.73487  Biso   1.000  Cu
  Cu159    1.0000 0.01513  0.79574  0.82552  Biso   1.000  Cu
  Cu160    1.0000 0.23487  0.95426  0.32552  Biso   1.000  Cu
  Cu161    1.0000 0.32552  0.51513  0.79574  Biso   1.000  Cu
  Cu162    1.0000 0.92448  0.23487  0.29574  Biso   1.000  Cu
  Cu163    1.0000 0.17448  0.70426  0.98487  Biso   1.000  Cu
  Cu164    1.0000 0.07552  0.04574  0.48487  Biso   1.000  Cu
  Cu165    1.0000 0.70426  0.26513  0.07552  Biso   1.000  Cu
  Cu166    1.0000 0.54574  0.48487  0.57552  Biso   1.000  Cu
  Cu167    1.0000 0.26513  0.17448  0.54574  Biso   1.000  Cu
  Cu168    1.0000 0.98487  0.57552  0.04574  Biso   1.000  Cu
  Cu169    1.0000 0.79574  0.32552  0.51513  Biso   1.000  Cu
  Cu170    1.0000 0.29574  0.92448  0.23487  Biso   1.000  Cu
  Cu171    1.0000 0.23487  0.79574  0.42448  Biso   1.000  Cu
  Cu172    1.0000 0.73487  0.45426  0.32552  Biso   1.000  Cu
  Cu173    1.0000 0.82552  0.01513  0.79574  Biso   1.000  Cu
  Cu174    1.0000 0.32552  0.23487  0.95426  Biso   1.000  Cu
  Cu175    1.0000 0.57552  0.54574  0.48487  Biso   1.000  Cu
  Cu176    1.0000 0.07552  0.70426  0.26513  Biso   1.000  Cu
  Cu177    1.0000 0.54574  0.26513  0.17448  Biso   1.000  Cu
  Cu178    1.0000 0.04574  0.98487  0.57552  Biso   1.000  Cu
  Cu179    1.0000 0.98487  0.17448  0.70426  Biso   1.000  Cu
  Cu180    1.0000 0.48487  0.07552  0.04574  Biso   1.000  Cu
  Cu181    1.0000 0.79574  0.82552  0.01513  Biso   1.000  Cu
  Cu182    1.0000 0.95426  0.32552  0.23487  Biso   1.000  Cu
  Cu183    1.0000 0.51513  0.79574  0.32552  Biso   1.000  Cu
  Cu184    1.0000 0.23487  0.29574  0.92448  Biso   1.000  Cu
  Cu185    1.0000 0.42448  0.23487  0.79574  Biso   1.000  Cu
  Cu186    1.0000 0.32552  0.73487  0.45426  Biso   1.000  Cu
  Cu187    1.0000 0.57552  0.04574  0.98487  Biso   1.000  Cu
  Cu188    1.0000 0.17448  0.54574  0.26513  Biso   1.000  Cu
  Cu189    1.0000 0.04574  0.48487  0.07552  Biso   1.000  Cu
  Cu190    1.0000 0.70426  0.98487  0.17448  Biso   1.000  Cu
  Cu191    1.0000 0.26513  0.07552  0.70426  Biso   1.000  Cu
  Cu192    1.0000 0.48487  0.57552  0.54574  Biso   1.000  Cu
  Cl65     1.0000 0.05580  0.62062  0.42425  Biso   1.000  Cl
  Cl66     1.0000 0.42425  0.05580  0.62062  Biso   1.000  Cl
  Cl67     1.0000 0.62062  0.42425  0.05580  Biso   1.000  Cl
  Cl68     1.0000 0.37062  0.30580  0.57575  Biso   1.000  Cl
  Cl69     1.0000 0.87062  0.94420  0.17425  Biso   1.000  Cl
  Cl70     1.0000 0.37938  0.80580  0.67425  Biso   1.000  Cl
  Cl71     1.0000 0.80580  0.67425  0.37938  Biso   1.000  Cl
  Cl72     1.0000 0.94420  0.17425  0.87062  Biso   1.000  Cl
  Cl73     1.0000 0.30580  0.57575  0.37062  Biso   1.000  Cl
  Cl74     1.0000 0.17425  0.87062  0.94420  Biso   1.000  Cl
  Cl75     1.0000 0.67425  0.37938  0.80580  Biso   1.000  Cl
  Cl76     1.0000 0.57575  0.37062  0.30580  Biso   1.000  Cl
  Cl77     1.0000 0.05580  0.12062  0.92425  Biso   1.000  Cl
  Cl78     1.0000 0.19420  0.62938  0.42425  Biso   1.000  Cl
  Cl79     1.0000 0.42425  0.55580  0.12062  Biso   1.000  Cl
  Cl80     1.0000 0.82575  0.19420  0.62062  Biso   1.000  Cl
  Cl81     1.0000 0.62062  0.92425  0.55580  Biso   1.000  Cl
  Cl82     1.0000 0.62938  0.82575  0.05580  Biso   1.000  Cl
  Cl83     1.0000 0.87062  0.44420  0.67425  Biso   1.000  Cl
  Cl84     1.0000 0.37938  0.30580  0.17425  Biso   1.000  Cl
  Cl85     1.0000 0.94420  0.67425  0.37062  Biso   1.000  Cl
  Cl86     1.0000 0.30580  0.07575  0.87062  Biso   1.000  Cl
  Cl87     1.0000 0.67425  0.87938  0.30580  Biso   1.000  Cl
  Cl88     1.0000 0.57575  0.87062  0.80580  Biso   1.000  Cl
  Cl89     1.0000 0.55580  0.62062  0.92425  Biso   1.000  Cl
  Cl90     1.0000 0.05580  0.62938  0.82575  Biso   1.000  Cl
  Cl91     1.0000 0.92425  0.05580  0.12062  Biso   1.000  Cl
  Cl92     1.0000 0.42425  0.19420  0.62938  Biso   1.000  Cl
  Cl93     1.0000 0.12062  0.42425  0.55580  Biso   1.000  Cl
  Cl94     1.0000 0.62062  0.82575  0.19420  Biso   1.000  Cl
  Cl95     1.0000 0.87062  0.30580  0.07575  Biso   1.000  Cl
  Cl96     1.0000 0.37062  0.94420  0.67425  Biso   1.000  Cl
  Cl97     1.0000 0.30580  0.67425  0.87938  Biso   1.000  Cl
  Cl98     1.0000 0.80580  0.57575  0.87062  Biso   1.000  Cl
  Cl99     1.0000 0.67425  0.87062  0.44420  Biso   1.000  Cl
  Cl100    1.0000 0.17425  0.37938  0.30580  Biso   1.000  Cl
  Cl101    1.0000 0.55580  0.12062  0.42425  Biso   1.000  Cl
  Cl102    1.0000 0.19420  0.62062  0.82575  Biso   1.000  Cl
  Cl103    1.0000 0.92425  0.55580  0.62062  Biso   1.000  Cl
  Cl104    1.0000 0.82575  0.05580  0.62938  Biso   1.000  Cl
  Cl105    1.0000 0.12062  0.92425  0.05580  Biso   1.000  Cl
  Cl106    1.0000 0.62938  0.42425  0.19420  Biso   1.000  Cl
  Cl107    1.0000 0.87062  0.80580  0.57575  Biso   1.000  Cl
  Cl108    1.0000 0.87938  0.30580  0.67425  Biso   1.000  Cl
  Cl109    1.0000 0.30580  0.17425  0.37938  Biso   1.000  Cl
  Cl110    1.0000 0.44420  0.67425  0.87062  Biso   1.000  Cl
  Cl111    1.0000 0.67425  0.37062  0.94420  Biso   1.000  Cl
  Cl112    1.0000 0.07575  0.87062  0.30580  Biso   1.000  Cl
  Cl113    1.0000 0.19420  0.12938  0.92425  Biso   1.000  Cl
  Cl114    1.0000 0.69420  0.12062  0.82575  Biso   1.000  Cl
  Cl115    1.0000 0.55580  0.62938  0.32575  Biso   1.000  Cl
  Cl116    1.0000 0.92425  0.19420  0.12938  Biso   1.000  Cl
  Cl117    1.0000 0.82575  0.69420  0.12062  Biso   1.000  Cl
  Cl118    1.0000 0.32575  0.55580  0.62938  Biso   1.000  Cl
  Cl119    1.0000 0.12938  0.92425  0.19420  Biso   1.000  Cl
  Cl120    1.0000 0.12062  0.82575  0.69420  Biso   1.000  Cl
  Cl121    1.0000 0.62938  0.32575  0.55580  Biso   1.000  Cl
  Cl122    1.0000 0.87938  0.44420  0.07575  Biso   1.000  Cl
  Cl123    1.0000 0.44420  0.07575  0.87938  Biso   1.000  Cl
  Cl124    1.0000 0.07575  0.87938  0.44420  Biso   1.000  Cl
  Cl125    1.0000 0.69420  0.62062  0.32575  Biso   1.000  Cl
  Cl126    1.0000 0.55580  0.12938  0.82575  Biso   1.000  Cl
  Cl127    1.0000 0.92425  0.69420  0.62938  Biso   1.000  Cl
  Cl128    1.0000 0.32575  0.05580  0.12938  Biso   1.000  Cl
  Cl129    1.0000 0.12938  0.42425  0.69420  Biso   1.000  Cl
  Cl130    1.0000 0.12062  0.32575  0.19420  Biso   1.000  Cl
  Cl131    1.0000 0.37062  0.80580  0.07575  Biso   1.000  Cl
  Cl132    1.0000 0.87938  0.94420  0.57575  Biso   1.000  Cl
  Cl133    1.0000 0.80580  0.17425  0.87938  Biso   1.000  Cl
  Cl134    1.0000 0.44420  0.57575  0.37938  Biso   1.000  Cl
  Cl135    1.0000 0.17425  0.37062  0.44420  Biso   1.000  Cl
  Cl136    1.0000 0.07575  0.37938  0.94420  Biso   1.000  Cl
  Cl137    1.0000 0.69420  0.12938  0.42425  Biso   1.000  Cl
  Cl138    1.0000 0.19420  0.12062  0.32575  Biso   1.000  Cl
  Cl139    1.0000 0.32575  0.69420  0.62062  Biso   1.000  Cl
  Cl140    1.0000 0.82575  0.55580  0.12938  Biso   1.000  Cl
  Cl141    1.0000 0.62938  0.92425  0.69420  Biso   1.000  Cl
  Cl142    1.0000 0.12938  0.32575  0.05580  Biso   1.000  Cl
  Cl143    1.0000 0.37938  0.44420  0.57575  Biso   1.000  Cl
  Cl144    1.0000 0.87938  0.80580  0.17425  Biso   1.000  Cl
  Cl145    1.0000 0.44420  0.17425  0.37062  Biso   1.000  Cl
  Cl146    1.0000 0.94420  0.07575  0.37938  Biso   1.000  Cl
  Cl147    1.0000 0.07575  0.37062  0.80580  Biso   1.000  Cl
  Cl148    1.0000 0.57575  0.87938  0.94420  Biso   1.000  Cl
  Cl149    1.0000 0.69420  0.62938  0.92425  Biso   1.000  Cl
  Cl150    1.0000 0.05580  0.12938  0.32575  Biso   1.000  Cl
  Cl151    1.0000 0.42425  0.69420  0.12938  Biso   1.000  Cl
  Cl152    1.0000 0.32575  0.19420  0.12062  Biso   1.000  Cl
  Cl153    1.0000 0.62062  0.32575  0.69420  Biso   1.000  Cl
  Cl154    1.0000 0.12938  0.82575  0.55580  Biso   1.000  Cl
  Cl155    1.0000 0.37938  0.94420  0.07575  Biso   1.000  Cl
  Cl156    1.0000 0.37062  0.44420  0.17425  Biso   1.000  Cl
  Cl157    1.0000 0.94420  0.57575  0.87938  Biso   1.000  Cl
  Cl158    1.0000 0.80580  0.07575  0.37062  Biso   1.000  Cl
  Cl159    1.0000 0.17425  0.87938  0.80580  Biso   1.000  Cl
  Cl160    1.0000 0.57575  0.37938  0.44420  Biso   1.000  Cl
  Cl161    1.0000 0.94420  0.37938  0.57575  Biso   1.000  Cl
  Cl162    1.0000 0.57575  0.94420  0.37938  Biso   1.000  Cl
  Cl163    1.0000 0.37938  0.57575  0.94420  Biso   1.000  Cl
  Cl164    1.0000 0.12938  0.19420  0.42425  Biso   1.000  Cl
  Cl165    1.0000 0.62938  0.05580  0.32575  Biso   1.000  Cl
  Cl166    1.0000 0.62062  0.69420  0.82575  Biso   1.000  Cl
  Cl167    1.0000 0.69420  0.82575  0.62062  Biso   1.000  Cl
  Cl168    1.0000 0.05580  0.32575  0.62938  Biso   1.000  Cl
  Cl169    1.0000 0.19420  0.42425  0.12938  Biso   1.000  Cl
  Cl170    1.0000 0.32575  0.62938  0.05580  Biso   1.000  Cl
  Cl171    1.0000 0.82575  0.62062  0.69420  Biso   1.000  Cl
  Cl172    1.0000 0.42425  0.12938  0.19420  Biso   1.000  Cl
  Cl173    1.0000 0.94420  0.87938  0.07575  Biso   1.000  Cl
  Cl174    1.0000 0.30580  0.87062  0.57575  Biso   1.000  Cl
  Cl175    1.0000 0.57575  0.44420  0.87938  Biso   1.000  Cl
  Cl176    1.0000 0.67425  0.30580  0.37938  Biso   1.000  Cl
  Cl177    1.0000 0.37938  0.07575  0.44420  Biso   1.000  Cl
  Cl178    1.0000 0.87062  0.67425  0.94420  Biso   1.000  Cl
  Cl179    1.0000 0.62938  0.55580  0.82575  Biso   1.000  Cl
  Cl180    1.0000 0.62062  0.19420  0.32575  Biso   1.000  Cl
  Cl181    1.0000 0.05580  0.82575  0.12938  Biso   1.000  Cl
  Cl182    1.0000 0.19420  0.92425  0.62938  Biso   1.000  Cl
  Cl183    1.0000 0.82575  0.12062  0.19420  Biso   1.000  Cl
  Cl184    1.0000 0.42425  0.62938  0.69420  Biso   1.000  Cl
  Cl185    1.0000 0.44420  0.37938  0.07575  Biso   1.000  Cl
  Cl186    1.0000 0.94420  0.87062  0.67425  Biso   1.000  Cl
  Cl187    1.0000 0.07575  0.94420  0.87938  Biso   1.000  Cl
  Cl188    1.0000 0.57575  0.30580  0.87062  Biso   1.000  Cl
  Cl189    1.0000 0.87938  0.57575  0.44420  Biso   1.000  Cl
  Cl190    1.0000 0.37938  0.67425  0.30580  Biso   1.000  Cl
  Cl191    1.0000 0.62938  0.19420  0.92425  Biso   1.000  Cl
  Cl192    1.0000 0.12938  0.05580  0.82575  Biso   1.000  Cl
  Cl193    1.0000 0.19420  0.82575  0.12062  Biso   1.000  Cl
  Cl194    1.0000 0.69420  0.42425  0.62938  Biso   1.000  Cl
  Cl195    1.0000 0.82575  0.62938  0.55580  Biso   1.000  Cl
  Cl196    1.0000 0.32575  0.62062  0.19420  Biso   1.000  Cl
  Cl197    1.0000 0.44420  0.87938  0.57575  Biso   1.000  Cl
  Cl198    1.0000 0.30580  0.37938  0.67425  Biso   1.000  Cl
  Cl199    1.0000 0.07575  0.44420  0.37938  Biso   1.000  Cl
  Cl200    1.0000 0.67425  0.94420  0.87062  Biso   1.000  Cl
  Cl201    1.0000 0.87938  0.07575  0.94420  Biso   1.000  Cl
  Cl202    1.0000 0.87062  0.57575  0.30580  Biso   1.000  Cl
  Cl203    1.0000 0.62938  0.69420  0.42425  Biso   1.000  Cl
  Cl204    1.0000 0.12062  0.19420  0.82575  Biso   1.000  Cl
  Cl205    1.0000 0.19420  0.32575  0.62062  Biso   1.000  Cl
  Cl206    1.0000 0.55580  0.82575  0.62938  Biso   1.000  Cl
  Cl207    1.0000 0.82575  0.12938  0.05580  Biso   1.000  Cl
  Cl208    1.0000 0.92425  0.62938  0.19420  Biso   1.000  Cl
  Cl209    1.0000 0.30580  0.37062  0.07575  Biso   1.000  Cl
  Cl210    1.0000 0.80580  0.87938  0.67425  Biso   1.000  Cl
  Cl211    1.0000 0.44420  0.87062  0.17425  Biso   1.000  Cl
  Cl212    1.0000 0.07575  0.30580  0.37062  Biso   1.000  Cl
  Cl213    1.0000 0.67425  0.80580  0.87938  Biso   1.000  Cl
  Cl214    1.0000 0.17425  0.44420  0.87062  Biso   1.000  Cl
  Cl215    1.0000 0.37062  0.07575  0.30580  Biso   1.000  Cl
  Cl216    1.0000 0.87938  0.67425  0.80580  Biso   1.000  Cl
  Cl217    1.0000 0.87062  0.17425  0.44420  Biso   1.000  Cl
  Cl218    1.0000 0.12062  0.55580  0.92425  Biso   1.000  Cl
  Cl219    1.0000 0.55580  0.92425  0.12062  Biso   1.000  Cl
  Cl220    1.0000 0.92425  0.12062  0.55580  Biso   1.000  Cl
  Cl221    1.0000 0.80580  0.37938  0.17425  Biso   1.000  Cl
  Cl222    1.0000 0.44420  0.37062  0.67425  Biso   1.000  Cl
  Cl223    1.0000 0.07575  0.80580  0.87062  Biso   1.000  Cl
  Cl224    1.0000 0.17425  0.94420  0.37062  Biso   1.000  Cl
  Cl225    1.0000 0.37062  0.57575  0.80580  Biso   1.000  Cl
  Cl226    1.0000 0.87938  0.17425  0.30580  Biso   1.000  Cl
  Cl227    1.0000 0.12938  0.69420  0.92425  Biso   1.000  Cl
  Cl228    1.0000 0.12062  0.05580  0.42425  Biso   1.000  Cl
  Cl229    1.0000 0.69420  0.32575  0.12062  Biso   1.000  Cl
  Cl230    1.0000 0.55580  0.42425  0.62062  Biso   1.000  Cl
  Cl231    1.0000 0.32575  0.12938  0.55580  Biso   1.000  Cl
  Cl232    1.0000 0.92425  0.62062  0.05580  Biso   1.000  Cl
  Cl233    1.0000 0.80580  0.37062  0.57575  Biso   1.000  Cl
  Cl234    1.0000 0.30580  0.87938  0.17425  Biso   1.000  Cl
  Cl235    1.0000 0.17425  0.80580  0.37938  Biso   1.000  Cl
  Cl236    1.0000 0.67425  0.44420  0.37062  Biso   1.000  Cl
  Cl237    1.0000 0.87062  0.07575  0.80580  Biso   1.000  Cl
  Cl238    1.0000 0.37062  0.17425  0.94420  Biso   1.000  Cl
  Cl239    1.0000 0.62062  0.55580  0.42425  Biso   1.000  Cl
  Cl240    1.0000 0.12062  0.69420  0.32575  Biso   1.000  Cl
  Cl241    1.0000 0.55580  0.32575  0.12938  Biso   1.000  Cl
  Cl242    1.0000 0.05580  0.92425  0.62062  Biso   1.000  Cl
  Cl243    1.0000 0.92425  0.12938  0.69420  Biso   1.000  Cl
  Cl244    1.0000 0.42425  0.12062  0.05580  Biso   1.000  Cl
  Cl245    1.0000 0.80580  0.87062  0.07575  Biso   1.000  Cl
  Cl246    1.0000 0.94420  0.37062  0.17425  Biso   1.000  Cl
  Cl247    1.0000 0.57575  0.80580  0.37062  Biso   1.000  Cl
  Cl248    1.0000 0.17425  0.30580  0.87938  Biso   1.000  Cl
  Cl249    1.0000 0.37938  0.17425  0.80580  Biso   1.000  Cl
  Cl250    1.0000 0.37062  0.67425  0.44420  Biso   1.000  Cl
  Cl251    1.0000 0.62062  0.05580  0.92425  Biso   1.000  Cl
  Cl252    1.0000 0.12938  0.55580  0.32575  Biso   1.000  Cl
  Cl253    1.0000 0.05580  0.42425  0.12062  Biso   1.000  Cl
  Cl254    1.0000 0.69420  0.92425  0.12938  Biso   1.000  Cl
  Cl255    1.0000 0.32575  0.12062  0.69420  Biso   1.000  Cl
  Cl256    1.0000 0.42425  0.62062  0.55580  Biso   1.000  Cl
  O33      1.0000 0.02604  0.52604  0.52604  Biso   1.000  O
  O34      1.0000 0.52604  0.02604  0.52604  Biso   1.000  O
  O35      1.0000 0.52604  0.52604  0.02604  Biso   1.000  O
  O36      1.0000 0.27604  0.27604  0.47396  Biso   1.000  O
  O37      1.0000 0.77604  0.97396  0.27604  Biso   1.000  O
  O38      1.0000 0.47396  0.77604  0.77604  Biso   1.000  O
  O39      1.0000 0.77604  0.77604  0.47396  Biso   1.000  O
  O40      1.0000 0.97396  0.27604  0.77604  Biso   1.000  O
  O41      1.0000 0.27604  0.47396  0.27604  Biso   1.000  O
  O42      1.0000 0.27604  0.77604  0.97396  Biso   1.000  O
  O43      1.0000 0.77604  0.47396  0.77604  Biso   1.000  O
  O44      1.0000 0.47396  0.27604  0.27604  Biso   1.000  O
  O45      1.0000 0.02604  0.02604  0.02604  Biso   1.000  O
  O46      1.0000 0.22396  0.72396  0.52604  Biso   1.000  O
  O47      1.0000 0.72396  0.22396  0.52604  Biso   1.000  O
  O48      1.0000 0.72396  0.72396  0.02604  Biso   1.000  O
  O49      1.0000 0.97396  0.77604  0.27604  Biso   1.000  O
  O50      1.0000 0.27604  0.97396  0.77604  Biso   1.000  O
  O51      1.0000 0.02604  0.72396  0.72396  Biso   1.000  O
  O52      1.0000 0.52604  0.22396  0.72396  Biso   1.000  O
  O53      1.0000 0.52604  0.72396  0.22396  Biso   1.000  O
  O54      1.0000 0.77604  0.27604  0.97396  Biso   1.000  O
  O55      1.0000 0.22396  0.52604  0.72396  Biso   1.000  O
  O56      1.0000 0.72396  0.02604  0.72396  Biso   1.000  O
  O57      1.0000 0.72396  0.52604  0.22396  Biso   1.000  O
  O58      1.0000 0.22396  0.22396  0.02604  Biso   1.000  O
  O59      1.0000 0.02604  0.22396  0.22396  Biso   1.000  O
  O60      1.0000 0.22396  0.02604  0.22396  Biso   1.000  O
  O61      1.0000 0.97396  0.47396  0.97396  Biso   1.000  O
  O62      1.0000 0.47396  0.97396  0.97396  Biso   1.000  O
  O63      1.0000 0.97396  0.97396  0.47396  Biso   1.000  O
  O64      1.0000 0.47396  0.47396  0.47396  Biso   1.000  O
  O65      1.0000 0.97396  0.47396  0.47396  Biso   1.000  O
  O66      1.0000 0.47396  0.97396  0.47396  Biso   1.000  O
  O67      1.0000 0.47396  0.47396  0.97396  Biso   1.000  O
  O68      1.0000 0.22396  0.22396  0.52604  Biso   1.000  O
  O69      1.0000 0.72396  0.02604  0.22396  Biso   1.000  O
  O70      1.0000 0.52604  0.72396  0.72396  Biso   1.000  O
  O71      1.0000 0.72396  0.72396  0.52604  Biso   1.000  O
  O72      1.0000 0.02604  0.22396  0.72396  Biso   1.000  O
  O73      1.0000 0.22396  0.52604  0.22396  Biso   1.000  O
  O74      1.0000 0.22396  0.72396  0.02604  Biso   1.000  O
  O75      1.0000 0.72396  0.52604  0.72396  Biso   1.000  O
  O76      1.0000 0.52604  0.22396  0.22396  Biso   1.000  O
  O77      1.0000 0.97396  0.97396  0.97396  Biso   1.000  O
  O78      1.0000 0.27604  0.77604  0.47396  Biso   1.000  O
  O79      1.0000 0.77604  0.27604  0.47396  Biso   1.000  O
  O80      1.0000 0.77604  0.77604  0.97396  Biso   1.000  O
  O81      1.0000 0.02604  0.72396  0.22396  Biso   1.000  O
  O82      1.0000 0.22396  0.02604  0.72396  Biso   1.000  O
  O83      1.0000 0.97396  0.77604  0.77604  Biso   1.000  O
  O84      1.0000 0.47396  0.27604  0.77604  Biso   1.000  O
  O85      1.0000 0.47396  0.77604  0.27604  Biso   1.000  O
  O86      1.0000 0.72396  0.22396  0.02604  Biso   1.000  O
  O87      1.0000 0.27604  0.47396  0.77604  Biso   1.000  O
  O88      1.0000 0.77604  0.97396  0.77604  Biso   1.000  O
  O89      1.0000 0.77604  0.47396  0.27604  Biso   1.000  O
  O90      1.0000 0.27604  0.27604  0.97396  Biso   1.000  O
  O91      1.0000 0.97396  0.27604  0.27604  Biso   1.000  O
  O92      1.0000 0.27604  0.97396  0.27604  Biso   1.000  O
  O93      1.0000 0.02604  0.52604  0.02604  Biso   1.000  O
  O94      1.0000 0.52604  0.02604  0.02604  Biso   1.000  O
  O95      1.0000 0.02604  0.02604  0.52604  Biso   1.000  O
  O96      1.0000 0.52604  0.52604  0.52604  Biso   1.000  O
  H1       1.0000 0.00970  0.50970  0.50970  Biso   1.000  H
  H2       1.0000 0.50970  0.00970  0.50970  Biso   1.000  H
  H3       1.0000 0.50970  0.50970  0.00970  Biso   1.000  H
  H4       1.0000 0.25970  0.25970  0.49030  Biso   1.000  H
  H5       1.0000 0.75970  0.99030  0.25970  Biso   1.000  H
  H6       1.0000 0.49030  0.75970  0.75970  Biso   1.000  H
  H7       1.0000 0.75970  0.75970  0.49030  Biso   1.000  H
  H8       1.0000 0.99030  0.25970  0.75970  Biso   1.000  H
  H9       1.0000 0.25970  0.49030  0.25970  Biso   1.000  H
  H10      1.0000 0.25970  0.75970  0.99030  Biso   1.000  H
  H11      1.0000 0.75970  0.49030  0.75970  Biso   1.000  H
  H12      1.0000 0.49030  0.25970  0.25970  Biso   1.000  H
  H13      1.0000 0.00970  0.00970  0.00970  Biso   1.000  H
  H14      1.0000 0.24030  0.74030  0.50970  Biso   1.000  H
  H15      1.0000 0.74030  0.24030  0.50970  Biso   1.000  H
  H16      1.0000 0.74030  0.74030  0.00970  Biso   1.000  H
  H17      1.0000 0.99030  0.75970  0.25970  Biso   1.000  H
  H18      1.0000 0.25970  0.99030  0.75970  Biso   1.000  H
  H19      1.0000 0.00970  0.74030  0.74030  Biso   1.000  H
  H20      1.0000 0.50970  0.24030  0.74030  Biso   1.000  H
  H21      1.0000 0.50970  0.74030  0.24030  Biso   1.000  H
  H22      1.0000 0.75970  0.25970  0.99030  Biso   1.000  H
  H23      1.0000 0.24030  0.50970  0.74030  Biso   1.000  H
  H24      1.0000 0.74030  0.00970  0.74030  Biso   1.000  H
  H25      1.0000 0.74030  0.50970  0.24030  Biso   1.000  H
  H26      1.0000 0.24030  0.24030  0.00970  Biso   1.000  H
  H27      1.0000 0.00970  0.24030  0.24030  Biso   1.000  H
  H28      1.0000 0.24030  0.00970  0.24030  Biso   1.000  H
  H29      1.0000 0.99030  0.49030  0.99030  Biso   1.000  H
  H30      1.0000 0.49030  0.99030  0.99030  Biso   1.000  H
  H31      1.0000 0.99030  0.99030  0.49030  Biso   1.000  H
  H32      1.0000 0.49030  0.49030  0.49030  Biso   1.000  H
  H33      1.0000 0.99030  0.49030  0.49030  Biso   1.000  H
  H34      1.0000 0.49030  0.99030  0.49030  Biso   1.000  H
  H35      1.0000 0.49030  0.49030  0.99030  Biso   1.000  H
  H36      1.0000 0.24030  0.24030  0.50970  Biso   1.000  H
  H37      1.0000 0.74030  0.00970  0.24030  Biso   1.000  H
  H38      1.0000 0.50970  0.74030  0.74030  Biso   1.000  H
  H39      1.0000 0.74030  0.74030  0.50970  Biso   1.000  H
  H40      1.0000 0.00970  0.24030  0.74030  Biso   1.000  H
  H41      1.0000 0.24030  0.50970  0.24030  Biso   1.000  H
  H42      1.0000 0.24030  0.74030  0.00970  Biso   1.000  H
  H43      1.0000 0.74030  0.50970  0.74030  Biso   1.000  H
  H44      1.0000 0.50970  0.24030  0.24030  Biso   1.000  H
  H45      1.0000 0.99030  0.99030  0.99030  Biso   1.000  H
  H46      1.0000 0.25970  0.75970  0.49030  Biso   1.000  H
  H47      1.0000 0.75970  0.25970  0.49030  Biso   1.000  H
  H48      1.0000 0.75970  0.75970  0.99030  Biso   1.000  H
  H49      1.0000 0.00970  0.74030  0.24030  Biso   1.000  H
  H50      1.0000 0.24030  0.00970  0.74030  Biso   1.000  H
  H51      1.0000 0.99030  0.75970  0.75970  Biso   1.000  H
  H52      1.0000 0.49030  0.25970  0.75970  Biso   1.000  H
  H53      1.0000 0.49030  0.75970  0.25970  Biso   1.000  H
  H54      1.0000 0.74030  0.24030  0.00970  Biso   1.000  H
  H55      1.0000 0.25970  0.49030  0.75970  Biso   1.000  H
  H56      1.0000 0.75970  0.99030  0.75970  Biso   1.000  H
  H57      1.0000 0.75970  0.49030  0.25970  Biso   1.000  H
  H58      1.0000 0.25970  0.25970  0.99030  Biso   1.000  H
  H59      1.0000 0.99030  0.25970  0.25970  Biso   1.000  H
  H60      1.0000 0.25970  0.99030  0.25970  Biso   1.000  H
  H61      1.0000 0.00970  0.50970  0.00970  Biso   1.000  H
  H62      1.0000 0.50970  0.00970  0.00970  Biso   1.000  H
  H63      1.0000 0.00970  0.00970  0.50970  Biso   1.000  H
  H64      1.0000 0.50970  0.50970  0.50970  Biso   1.000  H
  O97      1.0000 0.08033  0.61644  0.53458  Biso   1.000  O
  O98      1.0000 0.53458  0.08033  0.61644  Biso   1.000  O
  O99      1.0000 0.61644  0.53458  0.08033  Biso   1.000  O
  O100     1.0000 0.36644  0.33033  0.46542  Biso   1.000  O
  O101     1.0000 0.86644  0.91967  0.28458  Biso   1.000  O
  O102     1.0000 0.38356  0.83033  0.78458  Biso   1.000  O
  O103     1.0000 0.83033  0.78458  0.38356  Biso   1.000  O
  O104     1.0000 0.91967  0.28458  0.86644  Biso   1.000  O
  O105     1.0000 0.33033  0.46542  0.36644  Biso   1.000  O
  O106     1.0000 0.28458  0.86644  0.91967  Biso   1.000  O
  O107     1.0000 0.78458  0.38356  0.83033  Biso   1.000  O
  O108     1.0000 0.46542  0.36644  0.33033  Biso   1.000  O
  O109     1.0000 0.08033  0.11644  0.03458  Biso   1.000  O
  O110     1.0000 0.16967  0.63356  0.53458  Biso   1.000  O
  O111     1.0000 0.53458  0.58033  0.11644  Biso   1.000  O
  O112     1.0000 0.71542  0.16967  0.61644  Biso   1.000  O
  O113     1.0000 0.61644  0.03458  0.58033  Biso   1.000  O
  O114     1.0000 0.63356  0.71542  0.08033  Biso   1.000  O
  O115     1.0000 0.86644  0.41967  0.78458  Biso   1.000  O
  O116     1.0000 0.38356  0.33033  0.28458  Biso   1.000  O
  O117     1.0000 0.91967  0.78458  0.36644  Biso   1.000  O
  O118     1.0000 0.33033  0.96542  0.86644  Biso   1.000  O
  O119     1.0000 0.78458  0.88356  0.33033  Biso   1.000  O
  O120     1.0000 0.46542  0.86644  0.83033  Biso   1.000  O
  O121     1.0000 0.58033  0.61644  0.03458  Biso   1.000  O
  O122     1.0000 0.08033  0.63356  0.71542  Biso   1.000  O
  O123     1.0000 0.03458  0.08033  0.11644  Biso   1.000  O
  O124     1.0000 0.53458  0.16967  0.63356  Biso   1.000  O
  O125     1.0000 0.11644  0.53458  0.58033  Biso   1.000  O
  O126     1.0000 0.61644  0.71542  0.16967  Biso   1.000  O
  O127     1.0000 0.86644  0.33033  0.96542  Biso   1.000  O
  O128     1.0000 0.36644  0.91967  0.78458  Biso   1.000  O
  O129     1.0000 0.33033  0.78458  0.88356  Biso   1.000  O
  O130     1.0000 0.83033  0.46542  0.86644  Biso   1.000  O
  O131     1.0000 0.78458  0.86644  0.41967  Biso   1.000  O
  O132     1.0000 0.28458  0.38356  0.33033  Biso   1.000  O
  O133     1.0000 0.58033  0.11644  0.53458  Biso   1.000  O
  O134     1.0000 0.16967  0.61644  0.71542  Biso   1.000  O
  O135     1.0000 0.03458  0.58033  0.61644  Biso   1.000  O
  O136     1.0000 0.71542  0.08033  0.63356  Biso   1.000  O
  O137     1.0000 0.11644  0.03458  0.08033  Biso   1.000  O
  O138     1.0000 0.63356  0.53458  0.16967  Biso   1.000  O
  O139     1.0000 0.86644  0.83033  0.46542  Biso   1.000  O
  O140     1.0000 0.88356  0.33033  0.78458  Biso   1.000  O
  O141     1.0000 0.33033  0.28458  0.38356  Biso   1.000  O
  O142     1.0000 0.41967  0.78458  0.86644  Biso   1.000  O
  O143     1.0000 0.78458  0.36644  0.91967  Biso   1.000  O
  O144     1.0000 0.96542  0.86644  0.33033  Biso   1.000  O
  O145     1.0000 0.16967  0.13356  0.03458  Biso   1.000  O
  O146     1.0000 0.66967  0.11644  0.71542  Biso   1.000  O
  O147     1.0000 0.58033  0.63356  0.21542  Biso   1.000  O
  O148     1.0000 0.03458  0.16967  0.13356  Biso   1.000  O
  O149     1.0000 0.71542  0.66967  0.11644  Biso   1.000  O
  O150     1.0000 0.21542  0.58033  0.63356  Biso   1.000  O
  O151     1.0000 0.13356  0.03458  0.16967  Biso   1.000  O
  O152     1.0000 0.11644  0.71542  0.66967  Biso   1.000  O
  O153     1.0000 0.63356  0.21542  0.58033  Biso   1.000  O
  O154     1.0000 0.88356  0.41967  0.96542  Biso   1.000  O
  O155     1.0000 0.41967  0.96542  0.88356  Biso   1.000  O
  O156     1.0000 0.96542  0.88356  0.41967  Biso   1.000  O
  O157     1.0000 0.66967  0.61644  0.21542  Biso   1.000  O
  O158     1.0000 0.58033  0.13356  0.71542  Biso   1.000  O
  O159     1.0000 0.03458  0.66967  0.63356  Biso   1.000  O
  O160     1.0000 0.21542  0.08033  0.13356  Biso   1.000  O
  O161     1.0000 0.13356  0.53458  0.66967  Biso   1.000  O
  O162     1.0000 0.11644  0.21542  0.16967  Biso   1.000  O
  O163     1.0000 0.36644  0.83033  0.96542  Biso   1.000  O
  O164     1.0000 0.88356  0.91967  0.46542  Biso   1.000  O
  O165     1.0000 0.83033  0.28458  0.88356  Biso   1.000  O
  O166     1.0000 0.41967  0.46542  0.38356  Biso   1.000  O
  O167     1.0000 0.28458  0.36644  0.41967  Biso   1.000  O
  O168     1.0000 0.96542  0.38356  0.91967  Biso   1.000  O
  O169     1.0000 0.66967  0.13356  0.53458  Biso   1.000  O
  O170     1.0000 0.16967  0.11644  0.21542  Biso   1.000  O
  O171     1.0000 0.21542  0.66967  0.61644  Biso   1.000  O
  O172     1.0000 0.71542  0.58033  0.13356  Biso   1.000  O
  O173     1.0000 0.63356  0.03458  0.66967  Biso   1.000  O
  O174     1.0000 0.13356  0.21542  0.08033  Biso   1.000  O
  O175     1.0000 0.38356  0.41967  0.46542  Biso   1.000  O
  O176     1.0000 0.88356  0.83033  0.28458  Biso   1.000  O
  O177     1.0000 0.41967  0.28458  0.36644  Biso   1.000  O
  O178     1.0000 0.91967  0.96542  0.38356  Biso   1.000  O
  O179     1.0000 0.96542  0.36644  0.83033  Biso   1.000  O
  O180     1.0000 0.46542  0.88356  0.91967  Biso   1.000  O
  O181     1.0000 0.66967  0.63356  0.03458  Biso   1.000  O
  O182     1.0000 0.08033  0.13356  0.21542  Biso   1.000  O
  O183     1.0000 0.53458  0.66967  0.13356  Biso   1.000  O
  O184     1.0000 0.21542  0.16967  0.11644  Biso   1.000  O
  O185     1.0000 0.61644  0.21542  0.66967  Biso   1.000  O
  O186     1.0000 0.13356  0.71542  0.58033  Biso   1.000  O
  O187     1.0000 0.38356  0.91967  0.96542  Biso   1.000  O
  O188     1.0000 0.36644  0.41967  0.28458  Biso   1.000  O
  O189     1.0000 0.91967  0.46542  0.88356  Biso   1.000  O
  O190     1.0000 0.83033  0.96542  0.36644  Biso   1.000  O
  O191     1.0000 0.28458  0.88356  0.83033  Biso   1.000  O
  O192     1.0000 0.46542  0.38356  0.41967  Biso   1.000  O
  O193     1.0000 0.91967  0.38356  0.46542  Biso   1.000  O
  O194     1.0000 0.46542  0.91967  0.38356  Biso   1.000  O
  O195     1.0000 0.38356  0.46542  0.91967  Biso   1.000  O
  O196     1.0000 0.13356  0.16967  0.53458  Biso   1.000  O
  O197     1.0000 0.63356  0.08033  0.21542  Biso   1.000  O
  O198     1.0000 0.61644  0.66967  0.71542  Biso   1.000  O
  O199     1.0000 0.66967  0.71542  0.61644  Biso   1.000  O
  O200     1.0000 0.08033  0.21542  0.63356  Biso   1.000  O
  O201     1.0000 0.16967  0.53458  0.13356  Biso   1.000  O
  O202     1.0000 0.21542  0.63356  0.08033  Biso   1.000  O
  O203     1.0000 0.71542  0.61644  0.66967  Biso   1.000  O
  O204     1.0000 0.53458  0.13356  0.16967  Biso   1.000  O
  O205     1.0000 0.91967  0.88356  0.96542  Biso   1.000  O
  O206     1.0000 0.33033  0.86644  0.46542  Biso   1.000  O
  O207     1.0000 0.46542  0.41967  0.88356  Biso   1.000  O
  O208     1.0000 0.78458  0.33033  0.38356  Biso   1.000  O
  O209     1.0000 0.38356  0.96542  0.41967  Biso   1.000  O
  O210     1.0000 0.86644  0.78458  0.91967  Biso   1.000  O
  O211     1.0000 0.63356  0.58033  0.71542  Biso   1.000  O
  O212     1.0000 0.61644  0.16967  0.21542  Biso   1.000  O
  O213     1.0000 0.08033  0.71542  0.13356  Biso   1.000  O
  O214     1.0000 0.16967  0.03458  0.63356  Biso   1.000  O
  O215     1.0000 0.71542  0.11644  0.16967  Biso   1.000  O
  O216     1.0000 0.53458  0.63356  0.66967  Biso   1.000  O
  O217     1.0000 0.41967  0.38356  0.96542  Biso   1.000  O
  O218     1.0000 0.91967  0.86644  0.78458  Biso   1.000  O
  O219     1.0000 0.96542  0.91967  0.88356  Biso   1.000  O
  O220     1.0000 0.46542  0.33033  0.86644  Biso   1.000  O
  O221     1.0000 0.88356  0.46542  0.41967  Biso   1.000  O
  O222     1.0000 0.38356  0.78458  0.33033  Biso   1.000  O
  O223     1.0000 0.63356  0.16967  0.03458  Biso   1.000  O
  O224     1.0000 0.13356  0.08033  0.71542  Biso   1.000  O
  O225     1.0000 0.16967  0.71542  0.11644  Biso   1.000  O
  O226     1.0000 0.66967  0.53458  0.63356  Biso   1.000  O
  O227     1.0000 0.71542  0.63356  0.58033  Biso   1.000  O
  O228     1.0000 0.21542  0.61644  0.16967  Biso   1.000  O
  O229     1.0000 0.41967  0.88356  0.46542  Biso   1.000  O
  O230     1.0000 0.33033  0.38356  0.78458  Biso   1.000  O
  O231     1.0000 0.96542  0.41967  0.38356  Biso   1.000  O
  O232     1.0000 0.78458  0.91967  0.86644  Biso   1.000  O
  O233     1.0000 0.88356  0.96542  0.91967  Biso   1.000  O
  O234     1.0000 0.86644  0.46542  0.33033  Biso   1.000  O
  O235     1.0000 0.63356  0.66967  0.53458  Biso   1.000  O
  O236     1.0000 0.11644  0.16967  0.71542  Biso   1.000  O
  O237     1.0000 0.16967  0.21542  0.61644  Biso   1.000  O
  O238     1.0000 0.58033  0.71542  0.63356  Biso   1.000  O
  O239     1.0000 0.71542  0.13356  0.08033  Biso   1.000  O
  O240     1.0000 0.03458  0.63356  0.16967  Biso   1.000  O
  O241     1.0000 0.33033  0.36644  0.96542  Biso   1.000  O
  O242     1.0000 0.83033  0.88356  0.78458  Biso   1.000  O
  O243     1.0000 0.41967  0.86644  0.28458  Biso   1.000  O
  O244     1.0000 0.96542  0.33033  0.36644  Biso   1.000  O
  O245     1.0000 0.78458  0.83033  0.88356  Biso   1.000  O
  O246     1.0000 0.28458  0.41967  0.86644  Biso   1.000  O
  O247     1.0000 0.36644  0.96542  0.33033  Biso   1.000  O
  O248     1.0000 0.88356  0.78458  0.83033  Biso   1.000  O
  O249     1.0000 0.86644  0.28458  0.41967  Biso   1.000  O
  O250     1.0000 0.11644  0.58033  0.03458  Biso   1.000  O
  O251     1.0000 0.58033  0.03458  0.11644  Biso   1.000  O
  O252     1.0000 0.03458  0.11644  0.58033  Biso   1.000  O
  O253     1.0000 0.83033  0.38356  0.28458  Biso   1.000  O
  O254     1.0000 0.41967  0.36644  0.78458  Biso   1.000  O
  O255     1.0000 0.96542  0.83033  0.86644  Biso   1.000  O
  O256     1.0000 0.28458  0.91967  0.36644  Biso   1.000  O
  O257     1.0000 0.36644  0.46542  0.83033  Biso   1.000  O
  O258     1.0000 0.88356  0.28458  0.33033  Biso   1.000  O
  O259     1.0000 0.13356  0.66967  0.03458  Biso   1.000  O
  O260     1.0000 0.11644  0.08033  0.53458  Biso   1.000  O
  O261     1.0000 0.66967  0.21542  0.11644  Biso   1.000  O
  O262     1.0000 0.58033  0.53458  0.61644  Biso   1.000  O
  O263     1.0000 0.21542  0.13356  0.58033  Biso   1.000  O
  O264     1.0000 0.03458  0.61644  0.08033  Biso   1.000  O
  O265     1.0000 0.83033  0.36644  0.46542  Biso   1.000  O
  O266     1.0000 0.33033  0.88356  0.28458  Biso   1.000  O
  O267     1.0000 0.28458  0.83033  0.38356  Biso   1.000  O
  O268     1.0000 0.78458  0.41967  0.36644  Biso   1.000  O
  O269     1.0000 0.86644  0.96542  0.83033  Biso   1.000  O
  O270     1.0000 0.36644  0.28458  0.91967  Biso   1.000  O
  O271     1.0000 0.61644  0.58033  0.53458  Biso   1.000  O
  O272     1.0000 0.11644  0.66967  0.21542  Biso   1.000  O
  O273     1.0000 0.58033  0.21542  0.13356  Biso   1.000  O
  O274     1.0000 0.08033  0.03458  0.61644  Biso   1.000  O
  O275     1.0000 0.03458  0.13356  0.66967  Biso   1.000  O
  O276     1.0000 0.53458  0.11644  0.08033  Biso   1.000  O
  O277     1.0000 0.83033  0.86644  0.96542  Biso   1.000  O
  O278     1.0000 0.91967  0.36644  0.28458  Biso   1.000  O
  O279     1.0000 0.46542  0.83033  0.36644  Biso   1.000  O
  O280     1.0000 0.28458  0.33033  0.88356  Biso   1.000  O
  O281     1.0000 0.38356  0.28458  0.83033  Biso   1.000  O
  O282     1.0000 0.36644  0.78458  0.41967  Biso   1.000  O
  O283     1.0000 0.61644  0.08033  0.03458  Biso   1.000  O
  O284     1.0000 0.13356  0.58033  0.21542  Biso   1.000  O
  O285     1.0000 0.08033  0.53458  0.11644  Biso   1.000  O
  O286     1.0000 0.66967  0.03458  0.13356  Biso   1.000  O
  O287     1.0000 0.21542  0.11644  0.66967  Biso   1.000  O
  O288     1.0000 0.53458  0.61644  0.58033  Biso   1.000  O
  H65      1.0000 0.07410  0.64370  0.53040  Biso   1.000  H
  H66      1.0000 0.53040  0.07410  0.64370  Biso   1.000  H
  H67      1.0000 0.64370  0.53040  0.07410  Biso   1.000  H
  H68      1.0000 0.39370  0.32410  0.46960  Biso   1.000  H
  H69      1.0000 0.89370  0.92590  0.28040  Biso   1.000  H
  H70      1.0000 0.35630  0.82410  0.78040  Biso   1.000  H
  H71      1.0000 0.82410  0.78040  0.35630  Biso   1.000  H
  H72      1.0000 0.92590  0.28040  0.89370  Biso   1.000  H
  H73      1.0000 0.32410  0.46960  0.39370  Biso   1.000  H
  H74      1.0000 0.28040  0.89370  0.92590  Biso   1.000  H
  H75      1.0000 0.78040  0.35630  0.82410  Biso   1.000  H
  H76      1.0000 0.46960  0.39370  0.32410  Biso   1.000  H
  H77      1.0000 0.07410  0.14370  0.03040  Biso   1.000  H
  H78      1.0000 0.17590  0.60630  0.53040  Biso   1.000  H
  H79      1.0000 0.53040  0.57410  0.14370  Biso   1.000  H
  H80      1.0000 0.71960  0.17590  0.64370  Biso   1.000  H
  H81      1.0000 0.64370  0.03040  0.57410  Biso   1.000  H
  H82      1.0000 0.60630  0.71960  0.07410  Biso   1.000  H
  H83      1.0000 0.89370  0.42590  0.78040  Biso   1.000  H
  H84      1.0000 0.35630  0.32410  0.28040  Biso   1.000  H
  H85      1.0000 0.92590  0.78040  0.39370  Biso   1.000  H
  H86      1.0000 0.32410  0.96960  0.89370  Biso   1.000  H
  H87      1.0000 0.78040  0.85630  0.32410  Biso   1.000  H
  H88      1.0000 0.46960  0.89370  0.82410  Biso   1.000  H
  H89      1.0000 0.57410  0.64370  0.03040  Biso   1.000  H
  H90      1.0000 0.07410  0.60630  0.71960  Biso   1.000  H
  H91      1.0000 0.03040  0.07410  0.14370  Biso   1.000  H
  H92      1.0000 0.53040  0.17590  0.60630  Biso   1.000  H
  H93      1.0000 0.14370  0.53040  0.57410  Biso   1.000  H
  H94      1.0000 0.64370  0.71960  0.17590  Biso   1.000  H
  H95      1.0000 0.89370  0.32410  0.96960  Biso   1.000  H
  H96      1.0000 0.39370  0.92590  0.78040  Biso   1.000  H
  H97      1.0000 0.32410  0.78040  0.85630  Biso   1.000  H
  H98      1.0000 0.82410  0.46960  0.89370  Biso   1.000  H
  H99      1.0000 0.78040  0.89370  0.42590  Biso   1.000  H
  H100     1.0000 0.28040  0.35630  0.32410  Biso   1.000  H
  H101     1.0000 0.57410  0.14370  0.53040  Biso   1.000  H
  H102     1.0000 0.17590  0.64370  0.71960  Biso   1.000  H
  H103     1.0000 0.03040  0.57410  0.64370  Biso   1.000  H
  H104     1.0000 0.71960  0.07410  0.60630  Biso   1.000  H
  H105     1.0000 0.14370  0.03040  0.07410  Biso   1.000  H
  H106     1.0000 0.60630  0.53040  0.17590  Biso   1.000  H
  H107     1.0000 0.89370  0.82410  0.46960  Biso   1.000  H
  H108     1.0000 0.85630  0.32410  0.78040  Biso   1.000  H
  H109     1.0000 0.32410  0.28040  0.35630  Biso   1.000  H
  H110     1.0000 0.42590  0.78040  0.89370  Biso   1.000  H
  H111     1.0000 0.78040  0.39370  0.92590  Biso   1.000  H
  H112     1.0000 0.96960  0.89370  0.32410  Biso   1.000  H
  H113     1.0000 0.17590  0.10630  0.03040  Biso   1.000  H
  H114     1.0000 0.67590  0.14370  0.71960  Biso   1.000  H
  H115     1.0000 0.57410  0.60630  0.21960  Biso   1.000  H
  H116     1.0000 0.03040  0.17590  0.10630  Biso   1.000  H
  H117     1.0000 0.71960  0.67590  0.14370  Biso   1.000  H
  H118     1.0000 0.21960  0.57410  0.60630  Biso   1.000  H
  H119     1.0000 0.10630  0.03040  0.17590  Biso   1.000  H
  H120     1.0000 0.14370  0.71960  0.67590  Biso   1.000  H
  H121     1.0000 0.60630  0.21960  0.57410  Biso   1.000  H
  H122     1.0000 0.85630  0.42590  0.96960  Biso   1.000  H
  H123     1.0000 0.42590  0.96960  0.85630  Biso   1.000  H
  H124     1.0000 0.96960  0.85630  0.42590  Biso   1.000  H
  H125     1.0000 0.67590  0.64370  0.21960  Biso   1.000  H
  H126     1.0000 0.57410  0.10630  0.71960  Biso   1.000  H
  H127     1.0000 0.03040  0.67590  0.60630  Biso   1.000  H
  H128     1.0000 0.21960  0.07410  0.10630  Biso   1.000  H
  H129     1.0000 0.10630  0.53040  0.67590  Biso   1.000  H
  H130     1.0000 0.14370  0.21960  0.17590  Biso   1.000  H
  H131     1.0000 0.39370  0.82410  0.96960  Biso   1.000  H
  H132     1.0000 0.85630  0.92590  0.46960  Biso   1.000  H
  H133     1.0000 0.82410  0.28040  0.85630  Biso   1.000  H
  H134     1.0000 0.42590  0.46960  0.35630  Biso   1.000  H
  H135     1.0000 0.28040  0.39370  0.42590  Biso   1.000  H
  H136     1.0000 0.96960  0.35630  0.92590  Biso   1.000  H
  H137     1.0000 0.67590  0.10630  0.53040  Biso   1.000  H
  H138     1.0000 0.17590  0.14370  0.21960  Biso   1.000  H
  H139     1.0000 0.21960  0.67590  0.64370  Biso   1.000  H
  H140     1.0000 0.71960  0.57410  0.10630  Biso   1.000  H
  H141     1.0000 0.60630  0.03040  0.67590  Biso   1.000  H
  H142     1.0000 0.10630  0.21960  0.07410  Biso   1.000  H
  H143     1.0000 0.35630  0.42590  0.46960  Biso   1.000  H
  H144     1.0000 0.85630  0.82410  0.28040  Biso   1.000  H
  H145     1.0000 0.42590  0.28040  0.39370  Biso   1.000  H
  H146     1.0000 0.92590  0.96960  0.35630  Biso   1.000  H
  H147     1.0000 0.96960  0.39370  0.82410  Biso   1.000  H
  H148     1.0000 0.46960  0.85630  0.92590  Biso   1.000  H
  H149     1.0000 0.67590  0.60630  0.03040  Biso   1.000  H
  H150     1.0000 0.07410  0.10630  0.21960  Biso   1.000  H
  H151     1.0000 0.53040  0.67590  0.10630  Biso   1.000  H
  H152     1.0000 0.21960  0.17590  0.14370  Biso   1.000  H
  H153     1.0000 0.64370  0.21960  0.67590  Biso   1.000  H
  H154     1.0000 0.10630  0.71960  0.57410  Biso   1.000  H
  H155     1.0000 0.35630  0.92590  0.96960  Biso   1.000  H
  H156     1.0000 0.39370  0.42590  0.28040  Biso   1.000  H
  H157     1.0000 0.92590  0.46960  0.85630  Biso   1.000  H
  H158     1.0000 0.82410  0.96960  0.39370  Biso   1.000  H
  H159     1.0000 0.28040  0.85630  0.82410  Biso   1.000  H
  H160     1.0000 0.46960  0.35630  0.42590  Biso   1.000  H
  H161     1.0000 0.92590  0.35630  0.46960  Biso   1.000  H
  H162     1.0000 0.46960  0.92590  0.35630  Biso   1.000  H
  H163     1.0000 0.35630  0.46960  0.92590  Biso   1.000  H
  H164     1.0000 0.10630  0.17590  0.53040  Biso   1.000  H
  H165     1.0000 0.60630  0.07410  0.21960  Biso   1.000  H
  H166     1.0000 0.64370  0.67590  0.71960  Biso   1.000  H
  H167     1.0000 0.67590  0.71960  0.64370  Biso   1.000  H
  H168     1.0000 0.07410  0.21960  0.60630  Biso   1.000  H
  H169     1.0000 0.17590  0.53040  0.10630  Biso   1.000  H
  H170     1.0000 0.21960  0.60630  0.07410  Biso   1.000  H
  H171     1.0000 0.71960  0.64370  0.67590  Biso   1.000  H
  H172     1.0000 0.53040  0.10630  0.17590  Biso   1.000  H
  H173     1.0000 0.92590  0.85630  0.96960  Biso   1.000  H
  H174     1.0000 0.32410  0.89370  0.46960  Biso   1.000  H
  H175     1.0000 0.46960  0.42590  0.85630  Biso   1.000  H
  H176     1.0000 0.78040  0.32410  0.35630  Biso   1.000  H
  H177     1.0000 0.35630  0.96960  0.42590  Biso   1.000  H
  H178     1.0000 0.89370  0.78040  0.92590  Biso   1.000  H
  H179     1.0000 0.60630  0.57410  0.71960  Biso   1.000  H
  H180     1.0000 0.64370  0.17590  0.21960  Biso   1.000  H
  H181     1.0000 0.07410  0.71960  0.10630  Biso   1.000  H
  H182     1.0000 0.17590  0.03040  0.60630  Biso   1.000  H
  H183     1.0000 0.71960  0.14370  0.17590  Biso   1.000  H
  H184     1.0000 0.53040  0.60630  0.67590  Biso   1.000  H
  H185     1.0000 0.42590  0.35630  0.96960  Biso   1.000  H
  H186     1.0000 0.92590  0.89370  0.78040  Biso   1.000  H
  H187     1.0000 0.96960  0.92590  0.85630  Biso   1.000  H
  H188     1.0000 0.46960  0.32410  0.89370  Biso   1.000  H
  H189     1.0000 0.85630  0.46960  0.42590  Biso   1.000  H
  H190     1.0000 0.35630  0.78040  0.32410  Biso   1.000  H
  H191     1.0000 0.60630  0.17590  0.03040  Biso   1.000  H
  H192     1.0000 0.10630  0.07410  0.71960  Biso   1.000  H
  H193     1.0000 0.17590  0.71960  0.14370  Biso   1.000  H
  H194     1.0000 0.67590  0.53040  0.60630  Biso   1.000  H
  H195     1.0000 0.71960  0.60630  0.57410  Biso   1.000  H
  H196     1.0000 0.21960  0.64370  0.17590  Biso   1.000  H
  H197     1.0000 0.42590  0.85630  0.46960  Biso   1.000  H
  H198     1.0000 0.32410  0.35630  0.78040  Biso   1.000  H
  H199     1.0000 0.96960  0.42590  0.35630  Biso   1.000  H
  H200     1.0000 0.78040  0.92590  0.89370  Biso   1.000  H
  H201     1.0000 0.85630  0.96960  0.92590  Biso   1.000  H
  H202     1.0000 0.89370  0.46960  0.32410  Biso   1.000  H
  H203     1.0000 0.60630  0.67590  0.53040  Biso   1.000  H
  H204     1.0000 0.14370  0.17590  0.71960  Biso   1.000  H
  H205     1.0000 0.17590  0.21960  0.64370  Biso   1.000  H
  H206     1.0000 0.57410  0.71960  0.60630  Biso   1.000  H
  H207     1.0000 0.71960  0.10630  0.07410  Biso   1.000  H
  H208     1.0000 0.03040  0.60630  0.17590  Biso   1.000  H
  H209     1.0000 0.32410  0.39370  0.96960  Biso   1.000  H
  H210     1.0000 0.82410  0.85630  0.78040  Biso   1.000  H
  H211     1.0000 0.42590  0.89370  0.28040  Biso   1.000  H
  H212     1.0000 0.96960  0.32410  0.39370  Biso   1.000  H
  H213     1.0000 0.78040  0.82410  0.85630  Biso   1.000  H
  H214     1.0000 0.28040  0.42590  0.89370  Biso   1.000  H
  H215     1.0000 0.39370  0.96960  0.32410  Biso   1.000  H
  H216     1.0000 0.85630  0.78040  0.82410  Biso   1.000  H
  H217     1.0000 0.89370  0.28040  0.42590  Biso   1.000  H
  H218     1.0000 0.14370  0.57410  0.03040  Biso   1.000  H
  H219     1.0000 0.57410  0.03040  0.14370  Biso   1.000  H
  H220     1.0000 0.03040  0.14370  0.57410  Biso   1.000  H
  H221     1.0000 0.82410  0.35630  0.28040  Biso   1.000  H
  H222     1.0000 0.42590  0.39370  0.78040  Biso   1.000  H
  H223     1.0000 0.96960  0.82410  0.89370  Biso   1.000  H
  H224     1.0000 0.28040  0.92590  0.39370  Biso   1.000  H
  H225     1.0000 0.39370  0.46960  0.82410  Biso   1.000  H
  H226     1.0000 0.85630  0.28040  0.32410  Biso   1.000  H
  H227     1.0000 0.10630  0.67590  0.03040  Biso   1.000  H
  H228     1.0000 0.14370  0.07410  0.53040  Biso   1.000  H
  H229     1.0000 0.67590  0.21960  0.14370  Biso   1.000  H
  H230     1.0000 0.57410  0.53040  0.64370  Biso   1.000  H
  H231     1.0000 0.21960  0.10630  0.57410  Biso   1.000  H
  H232     1.0000 0.03040  0.64370  0.07410  Biso   1.000  H
  H233     1.0000 0.82410  0.39370  0.46960  Biso   1.000  H
  H234     1.0000 0.32410  0.85630  0.28040  Biso   1.000  H
  H235     1.0000 0.28040  0.82410  0.35630  Biso   1.000  H
  H236     1.0000 0.78040  0.42590  0.39370  Biso   1.000  H
  H237     1.0000 0.89370  0.96960  0.82410  Biso   1.000  H
  H238     1.0000 0.39370  0.28040  0.92590  Biso   1.000  H
  H239     1.0000 0.64370  0.57410  0.53040  Biso   1.000  H
  H240     1.0000 0.14370  0.67590  0.21960  Biso   1.000  H
  H241     1.0000 0.57410  0.21960  0.10630  Biso   1.000  H
  H242     1.0000 0.07410  0.03040  0.64370  Biso   1.000  H
  H243     1.0000 0.03040  0.10630  0.67590  Biso   1.000  H
  H244     1.0000 0.53040  0.14370  0.07410  Biso   1.000  H
  H245     1.0000 0.82410  0.89370  0.96960  Biso   1.000  H
  H246     1.0000 0.92590  0.39370  0.28040  Biso   1.000  H
  H247     1.0000 0.46960  0.82410  0.39370  Biso   1.000  H
  H248     1.0000 0.28040  0.32410  0.85630  Biso   1.000  H
  H249     1.0000 0.35630  0.28040  0.82410  Biso   1.000  H
  H250     1.0000 0.39370  0.78040  0.42590  Biso   1.000  H
  H251     1.0000 0.64370  0.07410  0.03040  Biso   1.000  H
  H252     1.0000 0.10630  0.57410  0.21960  Biso   1.000  H
  H253     1.0000 0.07410  0.53040  0.14370  Biso   1.000  H
  H254     1.0000 0.67590  0.03040  0.10630  Biso   1.000  H
  H255     1.0000 0.21960  0.14370  0.67590  Biso   1.000  H
  H256     1.0000 0.53040  0.64370  0.57410  Biso   1.000  H
  H257     1.0000 0.10820  0.61330  0.53150  Biso   1.000  H
  H258     1.0000 0.53150  0.10820  0.61330  Biso   1.000  H
  H259     1.0000 0.61330  0.53150  0.10820  Biso   1.000  H
  H260     1.0000 0.36330  0.35820  0.46850  Biso   1.000  H
  H261     1.0000 0.86330  0.89180  0.28150  Biso   1.000  H
  H262     1.0000 0.38670  0.85820  0.78150  Biso   1.000  H
  H263     1.0000 0.85820  0.78150  0.38670  Biso   1.000  H
  H264     1.0000 0.89180  0.28150  0.86330  Biso   1.000  H
  H265     1.0000 0.35820  0.46850  0.36330  Biso   1.000  H
  H266     1.0000 0.28150  0.86330  0.89180  Biso   1.000  H
  H267     1.0000 0.78150  0.38670  0.85820  Biso   1.000  H
  H268     1.0000 0.46850  0.36330  0.35820  Biso   1.000  H
  H269     1.0000 0.10820  0.11330  0.03150  Biso   1.000  H
  H270     1.0000 0.14180  0.63670  0.53150  Biso   1.000  H
  H271     1.0000 0.53150  0.60820  0.11330  Biso   1.000  H
  H272     1.0000 0.71850  0.14180  0.61330  Biso   1.000  H
  H273     1.0000 0.61330  0.03150  0.60820  Biso   1.000  H
  H274     1.0000 0.63670  0.71850  0.10820  Biso   1.000  H
  H275     1.0000 0.86330  0.39180  0.78150  Biso   1.000  H
  H276     1.0000 0.38670  0.35820  0.28150  Biso   1.000  H
  H277     1.0000 0.89180  0.78150  0.36330  Biso   1.000  H
  H278     1.0000 0.35820  0.96850  0.86330  Biso   1.000  H
  H279     1.0000 0.78150  0.88670  0.35820  Biso   1.000  H
  H280     1.0000 0.46850  0.86330  0.85820  Biso   1.000  H
  H281     1.0000 0.60820  0.61330  0.03150  Biso   1.000  H
  H282     1.0000 0.10820  0.63670  0.71850  Biso   1.000  H
  H283     1.0000 0.03150  0.10820  0.11330  Biso   1.000  H
  H284     1.0000 0.53150  0.14180  0.63670  Biso   1.000  H
  H285     1.0000 0.11330  0.53150  0.60820  Biso   1.000  H
  H286     1.0000 0.61330  0.71850  0.14180  Biso   1.000  H
  H287     1.0000 0.86330  0.35820  0.96850  Biso   1.000  H
  H288     1.0000 0.36330  0.89180  0.78150  Biso   1.000  H
  H289     1.0000 0.35820  0.78150  0.88670  Biso   1.000  H
  H290     1.0000 0.85820  0.46850  0.86330  Biso   1.000  H
  H291     1.0000 0.78150  0.86330  0.39180  Biso   1.000  H
  H292     1.0000 0.28150  0.38670  0.35820  Biso   1.000  H
  H293     1.0000 0.60820  0.11330  0.53150  Biso   1.000  H
  H294     1.0000 0.14180  0.61330  0.71850  Biso   1.000  H
  H295     1.0000 0.03150  0.60820  0.61330  Biso   1.000  H
  H296     1.0000 0.71850  0.10820  0.63670  Biso   1.000  H
  H297     1.0000 0.11330  0.03150  0.10820  Biso   1.000  H
  H298     1.0000 0.63670  0.53150  0.14180  Biso   1.000  H
  H299     1.0000 0.86330  0.85820  0.46850  Biso   1.000  H
  H300     1.0000 0.88670  0.35820  0.78150  Biso   1.000  H
  H301     1.0000 0.35820  0.28150  0.38670  Biso   1.000  H
  H302     1.0000 0.39180  0.78150  0.86330  Biso   1.000  H
  H303     1.0000 0.78150  0.36330  0.89180  Biso   1.000  H
  H304     1.0000 0.96850  0.86330  0.35820  Biso   1.000  H
  H305     1.0000 0.14180  0.13670  0.03150  Biso   1.000  H
  H306     1.0000 0.64180  0.11330  0.71850  Biso   1.000  H
  H307     1.0000 0.60820  0.63670  0.21850  Biso   1.000  H
  H308     1.0000 0.03150  0.14180  0.13670  Biso   1.000  H
  H309     1.0000 0.71850  0.64180  0.11330  Biso   1.000  H
  H310     1.0000 0.21850  0.60820  0.63670  Biso   1.000  H
  H311     1.0000 0.13670  0.03150  0.14180  Biso   1.000  H
  H312     1.0000 0.11330  0.71850  0.64180  Biso   1.000  H
  H313     1.0000 0.63670  0.21850  0.60820  Biso   1.000  H
  H314     1.0000 0.88670  0.39180  0.96850  Biso   1.000  H
  H315     1.0000 0.39180  0.96850  0.88670  Biso   1.000  H
  H316     1.0000 0.96850  0.88670  0.39180  Biso   1.000  H
  H317     1.0000 0.64180  0.61330  0.21850  Biso   1.000  H
  H318     1.0000 0.60820  0.13670  0.71850  Biso   1.000  H
  H319     1.0000 0.03150  0.64180  0.63670  Biso   1.000  H
  H320     1.0000 0.21850  0.10820  0.13670  Biso   1.000  H
  H321     1.0000 0.13670  0.53150  0.64180  Biso   1.000  H
  H322     1.0000 0.11330  0.21850  0.14180  Biso   1.000  H
  H323     1.0000 0.36330  0.85820  0.96850  Biso   1.000  H
  H324     1.0000 0.88670  0.89180  0.46850  Biso   1.000  H
  H325     1.0000 0.85820  0.28150  0.88670  Biso   1.000  H
  H326     1.0000 0.39180  0.46850  0.38670  Biso   1.000  H
  H327     1.0000 0.28150  0.36330  0.39180  Biso   1.000  H
  H328     1.0000 0.96850  0.38670  0.89180  Biso   1.000  H
  H329     1.0000 0.64180  0.13670  0.53150  Biso   1.000  H
  H330     1.0000 0.14180  0.11330  0.21850  Biso   1.000  H
  H331     1.0000 0.21850  0.64180  0.61330  Biso   1.000  H
  H332     1.0000 0.71850  0.60820  0.13670  Biso   1.000  H
  H333     1.0000 0.63670  0.03150  0.64180  Biso   1.000  H
  H334     1.0000 0.13670  0.21850  0.10820  Biso   1.000  H
  H335     1.0000 0.38670  0.39180  0.46850  Biso   1.000  H
  H336     1.0000 0.88670  0.85820  0.28150  Biso   1.000  H
  H337     1.0000 0.39180  0.28150  0.36330  Biso   1.000  H
  H338     1.0000 0.89180  0.96850  0.38670  Biso   1.000  H
  H339     1.0000 0.96850  0.36330  0.85820  Biso   1.000  H
  H340     1.0000 0.46850  0.88670  0.89180  Biso   1.000  H
  H341     1.0000 0.64180  0.63670  0.03150  Biso   1.000  H
  H342     1.0000 0.10820  0.13670  0.21850  Biso   1.000  H
  H343     1.0000 0.53150  0.64180  0.13670  Biso   1.000  H
  H344     1.0000 0.21850  0.14180  0.11330  Biso   1.000  H
  H345     1.0000 0.61330  0.21850  0.64180  Biso   1.000  H
  H346     1.0000 0.13670  0.71850  0.60820  Biso   1.000  H
  H347     1.0000 0.38670  0.89180  0.96850  Biso   1.000  H
  H348     1.0000 0.36330  0.39180  0.28150  Biso   1.000  H
  H349     1.0000 0.89180  0.46850  0.88670  Biso   1.000  H
  H350     1.0000 0.85820  0.96850  0.36330  Biso   1.000  H
  H351     1.0000 0.28150  0.88670  0.85820  Biso   1.000  H
  H352     1.0000 0.46850  0.38670  0.39180  Biso   1.000  H
  H353     1.0000 0.89180  0.38670  0.46850  Biso   1.000  H
  H354     1.0000 0.46850  0.89180  0.38670  Biso   1.000  H
  H355     1.0000 0.38670  0.46850  0.89180  Biso   1.000  H
  H356     1.0000 0.13670  0.14180  0.53150  Biso   1.000  H
  H357     1.0000 0.63670  0.10820  0.21850  Biso   1.000  H
  H358     1.0000 0.61330  0.64180  0.71850  Biso   1.000  H
  H359     1.0000 0.64180  0.71850  0.61330  Biso   1.000  H
  H360     1.0000 0.10820  0.21850  0.63670  Biso   1.000  H
  H361     1.0000 0.14180  0.53150  0.13670  Biso   1.000  H
  H362     1.0000 0.21850  0.63670  0.10820  Biso   1.000  H
  H363     1.0000 0.71850  0.61330  0.64180  Biso   1.000  H
  H364     1.0000 0.53150  0.13670  0.14180  Biso   1.000  H
  H365     1.0000 0.89180  0.88670  0.96850  Biso   1.000  H
  H366     1.0000 0.35820  0.86330  0.46850  Biso   1.000  H
  H367     1.0000 0.46850  0.39180  0.88670  Biso   1.000  H
  H368     1.0000 0.78150  0.35820  0.38670  Biso   1.000  H
  H369     1.0000 0.38670  0.96850  0.39180  Biso   1.000  H
  H370     1.0000 0.86330  0.78150  0.89180  Biso   1.000  H
  H371     1.0000 0.63670  0.60820  0.71850  Biso   1.000  H
  H372     1.0000 0.61330  0.14180  0.21850  Biso   1.000  H
  H373     1.0000 0.10820  0.71850  0.13670  Biso   1.000  H
  H374     1.0000 0.14180  0.03150  0.63670  Biso   1.000  H
  H375     1.0000 0.71850  0.11330  0.14180  Biso   1.000  H
  H376     1.0000 0.53150  0.63670  0.64180  Biso   1.000  H
  H377     1.0000 0.39180  0.38670  0.96850  Biso   1.000  H
  H378     1.0000 0.89180  0.86330  0.78150  Biso   1.000  H
  H379     1.0000 0.96850  0.89180  0.88670  Biso   1.000  H
  H380     1.0000 0.46850  0.35820  0.86330  Biso   1.000  H
  H381     1.0000 0.88670  0.46850  0.39180  Biso   1.000  H
  H382     1.0000 0.38670  0.78150  0.35820  Biso   1.000  H
  H383     1.0000 0.63670  0.14180  0.03150  Biso   1.000  H
  H384     1.0000 0.13670  0.10820  0.71850  Biso   1.000  H
  H385     1.0000 0.14180  0.71850  0.11330  Biso   1.000  H
  H386     1.0000 0.64180  0.53150  0.63670  Biso   1.000  H
  H387     1.0000 0.71850  0.63670  0.60820  Biso   1.000  H
  H388     1.0000 0.21850  0.61330  0.14180  Biso   1.000  H
  H389     1.0000 0.39180  0.88670  0.46850  Biso   1.000  H
  H390     1.0000 0.35820  0.38670  0.78150  Biso   1.000  H
  H391     1.0000 0.96850  0.39180  0.38670  Biso   1.000  H
  H392     1.0000 0.78150  0.89180  0.86330  Biso   1.000  H
  H393     1.0000 0.88670  0.96850  0.89180  Biso   1.000  H
  H394     1.0000 0.86330  0.46850  0.35820  Biso   1.000  H
  H395     1.0000 0.63670  0.64180  0.53150  Biso   1.000  H
  H396     1.0000 0.11330  0.14180  0.71850  Biso   1.000  H
  H397     1.0000 0.14180  0.21850  0.61330  Biso   1.000  H
  H398     1.0000 0.60820  0.71850  0.63670  Biso   1.000  H
  H399     1.0000 0.71850  0.13670  0.10820  Biso   1.000  H
  H400     1.0000 0.03150  0.63670  0.14180  Biso   1.000  H
  H401     1.0000 0.35820  0.36330  0.96850  Biso   1.000  H
  H402     1.0000 0.85820  0.88670  0.78150  Biso   1.000  H
  H403     1.0000 0.39180  0.86330  0.28150  Biso   1.000  H
  H404     1.0000 0.96850  0.35820  0.36330  Biso   1.000  H
  H405     1.0000 0.78150  0.85820  0.88670  Biso   1.000  H
  H406     1.0000 0.28150  0.39180  0.86330  Biso   1.000  H
  H407     1.0000 0.36330  0.96850  0.35820  Biso   1.000  H
  H408     1.0000 0.88670  0.78150  0.85820  Biso   1.000  H
  H409     1.0000 0.86330  0.28150  0.39180  Biso   1.000  H
  H410     1.0000 0.11330  0.60820  0.03150  Biso   1.000  H
  H411     1.0000 0.60820  0.03150  0.11330  Biso   1.000  H
  H412     1.0000 0.03150  0.11330  0.60820  Biso   1.000  H
  H413     1.0000 0.85820  0.38670  0.28150  Biso   1.000  H
  H414     1.0000 0.39180  0.36330  0.78150  Biso   1.000  H
  H415     1.0000 0.96850  0.85820  0.86330  Biso   1.000  H
  H416     1.0000 0.28150  0.89180  0.36330  Biso   1.000  H
  H417     1.0000 0.36330  0.46850  0.85820  Biso   1.000  H
  H418     1.0000 0.88670  0.28150  0.35820  Biso   1.000  H
  H419     1.0000 0.13670  0.64180  0.03150  Biso   1.000  H
  H420     1.0000 0.11330  0.10820  0.53150  Biso   1.000  H
  H421     1.0000 0.64180  0.21850  0.11330  Biso   1.000  H
  H422     1.0000 0.60820  0.53150  0.61330  Biso   1.000  H
  H423     1.0000 0.21850  0.13670  0.60820  Biso   1.000  H
  H424     1.0000 0.03150  0.61330  0.10820  Biso   1.000  H
  H425     1.0000 0.85820  0.36330  0.46850  Biso   1.000  H
  H426     1.0000 0.35820  0.88670  0.28150  Biso   1.000  H
  H427     1.0000 0.28150  0.85820  0.38670  Biso   1.000  H
  H428     1.0000 0.78150  0.39180  0.36330  Biso   1.000  H
  H429     1.0000 0.86330  0.96850  0.85820  Biso   1.000  H
  H430     1.0000 0.36330  0.28150  0.89180  Biso   1.000  H
  H431     1.0000 0.61330  0.60820  0.53150  Biso   1.000  H
  H432     1.0000 0.11330  0.64180  0.21850  Biso   1.000  H
  H433     1.0000 0.60820  0.21850  0.13670  Biso   1.000  H
  H434     1.0000 0.10820  0.03150  0.61330  Biso   1.000  H
  H435     1.0000 0.03150  0.13670  0.64180  Biso   1.000  H
  H436     1.0000 0.53150  0.11330  0.10820  Biso   1.000  H
  H437     1.0000 0.85820  0.86330  0.96850  Biso   1.000  H
  H438     1.0000 0.89180  0.36330  0.28150  Biso   1.000  H
  H439     1.0000 0.46850  0.85820  0.36330  Biso   1.000  H
  H440     1.0000 0.28150  0.35820  0.88670  Biso   1.000  H
  H441     1.0000 0.38670  0.28150  0.85820  Biso   1.000  H
  H442     1.0000 0.36330  0.78150  0.39180  Biso   1.000  H
  H443     1.0000 0.61330  0.10820  0.03150  Biso   1.000  H
  H444     1.0000 0.13670  0.60820  0.21850  Biso   1.000  H
  H445     1.0000 0.10820  0.53150  0.11330  Biso   1.000  H
  H446     1.0000 0.64180  0.03150  0.13670  Biso   1.000  H
  H447     1.0000 0.21850  0.11330  0.64180  Biso   1.000  H
  H448     1.0000 0.53150  0.61330  0.60820  Biso   1.000  H
  N1       1.0000 0.98833  0.60654  0.49803  Biso   1.000  N
  N2       1.0000 0.49803  0.98833  0.60654  Biso   1.000  N
  N3       1.0000 0.60654  0.49803  0.98833  Biso   1.000  N
  N4       1.0000 0.35654  0.23833  0.50197  Biso   1.000  N
  N5       1.0000 0.85654  0.01167  0.24803  Biso   1.000  N
  N6       1.0000 0.39346  0.73833  0.74803  Biso   1.000  N
  N7       1.0000 0.73833  0.74803  0.39346  Biso   1.000  N
  N8       1.0000 0.01167  0.24803  0.85654  Biso   1.000  N
  N9       1.0000 0.23833  0.50197  0.35654  Biso   1.000  N
  N10      1.0000 0.24803  0.85654  0.01167  Biso   1.000  N
  N11      1.0000 0.74803  0.39346  0.73833  Biso   1.000  N
  N12      1.0000 0.50197  0.35654  0.23833  Biso   1.000  N
  N13      1.0000 0.98833  0.10654  0.99803  Biso   1.000  N
  N14      1.0000 0.26167  0.64346  0.49803  Biso   1.000  N
  N15      1.0000 0.49803  0.48833  0.10654  Biso   1.000  N
  N16      1.0000 0.75197  0.26167  0.60654  Biso   1.000  N
  N17      1.0000 0.60654  0.99803  0.48833  Biso   1.000  N
  N18      1.0000 0.64346  0.75197  0.98833  Biso   1.000  N
  N19      1.0000 0.85654  0.51167  0.74803  Biso   1.000  N
  N20      1.0000 0.39346  0.23833  0.24803  Biso   1.000  N
  N21      1.0000 0.01167  0.74803  0.35654  Biso   1.000  N
  N22      1.0000 0.23833  0.00197  0.85654  Biso   1.000  N
  N23      1.0000 0.74803  0.89346  0.23833  Biso   1.000  N
  N24      1.0000 0.50197  0.85654  0.73833  Biso   1.000  N
  N25      1.0000 0.48833  0.60654  0.99803  Biso   1.000  N
  N26      1.0000 0.98833  0.64346  0.75197  Biso   1.000  N
  N27      1.0000 0.99803  0.98833  0.10654  Biso   1.000  N
  N28      1.0000 0.49803  0.26167  0.64346  Biso   1.000  N
  N29      1.0000 0.10654  0.49803  0.48833  Biso   1.000  N
  N30      1.0000 0.60654  0.75197  0.26167  Biso   1.000  N
  N31      1.0000 0.85654  0.23833  0.00197  Biso   1.000  N
  N32      1.0000 0.35654  0.01167  0.74803  Biso   1.000  N
  N33      1.0000 0.23833  0.74803  0.89346  Biso   1.000  N
  N34      1.0000 0.73833  0.50197  0.85654  Biso   1.000  N
  N35      1.0000 0.74803  0.85654  0.51167  Biso   1.000  N
  N36      1.0000 0.24803  0.39346  0.23833  Biso   1.000  N
  N37      1.0000 0.48833  0.10654  0.49803  Biso   1.000  N
  N38      1.0000 0.26167  0.60654  0.75197  Biso   1.000  N
  N39      1.0000 0.99803  0.48833  0.60654  Biso   1.000  N
  N40      1.0000 0.75197  0.98833  0.64346  Biso   1.000  N
  N41      1.0000 0.10654  0.99803  0.98833  Biso   1.000  N
  N42      1.0000 0.64346  0.49803  0.26167  Biso   1.000  N
  N43      1.0000 0.85654  0.73833  0.50197  Biso   1.000  N
  N44      1.0000 0.89346  0.23833  0.74803  Biso   1.000  N
  N45      1.0000 0.23833  0.24803  0.39346  Biso   1.000  N
  N46      1.0000 0.51167  0.74803  0.85654  Biso   1.000  N
  N47      1.0000 0.74803  0.35654  0.01167  Biso   1.000  N
  N48      1.0000 0.00197  0.85654  0.23833  Biso   1.000  N
  N49      1.0000 0.26167  0.14346  0.99803  Biso   1.000  N
  N50      1.0000 0.76167  0.10654  0.75197  Biso   1.000  N
  N51      1.0000 0.48833  0.64346  0.25197  Biso   1.000  N
  N52      1.0000 0.99803  0.26167  0.14346  Biso   1.000  N
  N53      1.0000 0.75197  0.76167  0.10654  Biso   1.000  N
  N54      1.0000 0.25197  0.48833  0.64346  Biso   1.000  N
  N55      1.0000 0.14346  0.99803  0.26167  Biso   1.000  N
  N56      1.0000 0.10654  0.75197  0.76167  Biso   1.000  N
  N57      1.0000 0.64346  0.25197  0.48833  Biso   1.000  N
  N58      1.0000 0.89346  0.51167  0.00197  Biso   1.000  N
  N59      1.0000 0.51167  0.00197  0.89346  Biso   1.000  N
  N60      1.0000 0.00197  0.89346  0.51167  Biso   1.000  N
  N61      1.0000 0.76167  0.60654  0.25197  Biso   1.000  N
  N62      1.0000 0.48833  0.14346  0.75197  Biso   1.000  N
  N63      1.0000 0.99803  0.76167  0.64346  Biso   1.000  N
  N64      1.0000 0.25197  0.98833  0.14346  Biso   1.000  N
  N65      1.0000 0.14346  0.49803  0.76167  Biso   1.000  N
  N66      1.0000 0.10654  0.25197  0.26167  Biso   1.000  N
  N67      1.0000 0.35654  0.73833  0.00197  Biso   1.000  N
  N68      1.0000 0.89346  0.01167  0.50197  Biso   1.000  N
  N69      1.0000 0.73833  0.24803  0.89346  Biso   1.000  N
  N70      1.0000 0.51167  0.50197  0.39346  Biso   1.000  N
  N71      1.0000 0.24803  0.35654  0.51167  Biso   1.000  N
  N72      1.0000 0.00197  0.39346  0.01167  Biso   1.000  N
  N73      1.0000 0.76167  0.14346  0.49803  Biso   1.000  N
  N74      1.0000 0.26167  0.10654  0.25197  Biso   1.000  N
  N75      1.0000 0.25197  0.76167  0.60654  Biso   1.000  N
  N76      1.0000 0.75197  0.48833  0.14346  Biso   1.000  N
  N77      1.0000 0.64346  0.99803  0.76167  Biso   1.000  N
  N78      1.0000 0.14346  0.25197  0.98833  Biso   1.000  N
  N79      1.0000 0.39346  0.51167  0.50197  Biso   1.000  N
  N80      1.0000 0.89346  0.73833  0.24803  Biso   1.000  N
  N81      1.0000 0.51167  0.24803  0.35654  Biso   1.000  N
  N82      1.0000 0.01167  0.00197  0.39346  Biso   1.000  N
  N83      1.0000 0.00197  0.35654  0.73833  Biso   1.000  N
  N84      1.0000 0.50197  0.89346  0.01167  Biso   1.000  N
  N85      1.0000 0.76167  0.64346  0.99803  Biso   1.000  N
  N86      1.0000 0.98833  0.14346  0.25197  Biso   1.000  N
  N87      1.0000 0.49803  0.76167  0.14346  Biso   1.000  N
  N88      1.0000 0.25197  0.26167  0.10654  Biso   1.000  N
  N89      1.0000 0.60654  0.25197  0.76167  Biso   1.000  N
  N90      1.0000 0.14346  0.75197  0.48833  Biso   1.000  N
  N91      1.0000 0.39346  0.01167  0.00197  Biso   1.000  N
  N92      1.0000 0.35654  0.51167  0.24803  Biso   1.000  N
  N93      1.0000 0.01167  0.50197  0.89346  Biso   1.000  N
  N94      1.0000 0.73833  0.00197  0.35654  Biso   1.000  N
  N95      1.0000 0.24803  0.89346  0.73833  Biso   1.000  N
  N96      1.0000 0.50197  0.39346  0.51167  Biso   1.000  N
  N97      1.0000 0.01167  0.39346  0.50197  Biso   1.000  N
  N98      1.0000 0.50197  0.01167  0.39346  Biso   1.000  N
  N99      1.0000 0.39346  0.50197  0.01167  Biso   1.000  N
  N100     1.0000 0.14346  0.26167  0.49803  Biso   1.000  N
  N101     1.0000 0.64346  0.98833  0.25197  Biso   1.000  N
  N102     1.0000 0.60654  0.76167  0.75197  Biso   1.000  N
  N103     1.0000 0.76167  0.75197  0.60654  Biso   1.000  N
  N104     1.0000 0.98833  0.25197  0.64346  Biso   1.000  N
  N105     1.0000 0.26167  0.49803  0.14346  Biso   1.000  N
  N106     1.0000 0.25197  0.64346  0.98833  Biso   1.000  N
  N107     1.0000 0.75197  0.60654  0.76167  Biso   1.000  N
  N108     1.0000 0.49803  0.14346  0.26167  Biso   1.000  N
  N109     1.0000 0.01167  0.89346  0.00197  Biso   1.000  N
  N110     1.0000 0.23833  0.85654  0.50197  Biso   1.000  N
  N111     1.0000 0.50197  0.51167  0.89346  Biso   1.000  N
  N112     1.0000 0.74803  0.23833  0.39346  Biso   1.000  N
  N113     1.0000 0.39346  0.00197  0.51167  Biso   1.000  N
  N114     1.0000 0.85654  0.74803  0.01167  Biso   1.000  N
  N115     1.0000 0.64346  0.48833  0.75197  Biso   1.000  N
  N116     1.0000 0.60654  0.26167  0.25197  Biso   1.000  N
  N117     1.0000 0.98833  0.75197  0.14346  Biso   1.000  N
  N118     1.0000 0.26167  0.99803  0.64346  Biso   1.000  N
  N119     1.0000 0.75197  0.10654  0.26167  Biso   1.000  N
  N120     1.0000 0.49803  0.64346  0.76167  Biso   1.000  N
  N121     1.0000 0.51167  0.39346  0.00197  Biso   1.000  N
  N122     1.0000 0.01167  0.85654  0.74803  Biso   1.000  N
  N123     1.0000 0.00197  0.01167  0.89346  Biso   1.000  N
  N124     1.0000 0.50197  0.23833  0.85654  Biso   1.000  N
  N125     1.0000 0.89346  0.50197  0.51167  Biso   1.000  N
  N126     1.0000 0.39346  0.74803  0.23833  Biso   1.000  N
  N127     1.0000 0.64346  0.26167  0.99803  Biso   1.000  N
  N128     1.0000 0.14346  0.98833  0.75197  Biso   1.000  N
  N129     1.0000 0.26167  0.75197  0.10654  Biso   1.000  N
  N130     1.0000 0.76167  0.49803  0.64346  Biso   1.000  N
  N131     1.0000 0.75197  0.64346  0.48833  Biso   1.000  N
  N132     1.0000 0.25197  0.60654  0.26167  Biso   1.000  N
  N133     1.0000 0.51167  0.89346  0.50197  Biso   1.000  N
  N134     1.0000 0.23833  0.39346  0.74803  Biso   1.000  N
  N135     1.0000 0.00197  0.51167  0.39346  Biso   1.000  N
  N136     1.0000 0.74803  0.01167  0.85654  Biso   1.000  N
  N137     1.0000 0.89346  0.00197  0.01167  Biso   1.000  N
  N138     1.0000 0.85654  0.50197  0.23833  Biso   1.000  N
  N139     1.0000 0.64346  0.76167  0.49803  Biso   1.000  N
  N140     1.0000 0.10654  0.26167  0.75197  Biso   1.000  N
  N141     1.0000 0.26167  0.25197  0.60654  Biso   1.000  N
  N142     1.0000 0.48833  0.75197  0.64346  Biso   1.000  N
  N143     1.0000 0.75197  0.14346  0.98833  Biso   1.000  N
  N144     1.0000 0.99803  0.64346  0.26167  Biso   1.000  N
  N145     1.0000 0.23833  0.35654  0.00197  Biso   1.000  N
  N146     1.0000 0.73833  0.89346  0.74803  Biso   1.000  N
  N147     1.0000 0.51167  0.85654  0.24803  Biso   1.000  N
  N148     1.0000 0.00197  0.23833  0.35654  Biso   1.000  N
  N149     1.0000 0.74803  0.73833  0.89346  Biso   1.000  N
  N150     1.0000 0.24803  0.51167  0.85654  Biso   1.000  N
  N151     1.0000 0.35654  0.00197  0.23833  Biso   1.000  N
  N152     1.0000 0.89346  0.74803  0.73833  Biso   1.000  N
  N153     1.0000 0.85654  0.24803  0.51167  Biso   1.000  N
  N154     1.0000 0.10654  0.48833  0.99803  Biso   1.000  N
  N155     1.0000 0.48833  0.99803  0.10654  Biso   1.000  N
  N156     1.0000 0.99803  0.10654  0.48833  Biso   1.000  N
  N157     1.0000 0.73833  0.39346  0.24803  Biso   1.000  N
  N158     1.0000 0.51167  0.35654  0.74803  Biso   1.000  N
  N159     1.0000 0.00197  0.73833  0.85654  Biso   1.000  N
  N160     1.0000 0.24803  0.01167  0.35654  Biso   1.000  N
  N161     1.0000 0.35654  0.50197  0.73833  Biso   1.000  N
  N162     1.0000 0.89346  0.24803  0.23833  Biso   1.000  N
  N163     1.0000 0.14346  0.76167  0.99803  Biso   1.000  N
  N164     1.0000 0.10654  0.98833  0.49803  Biso   1.000  N
  N165     1.0000 0.76167  0.25197  0.10654  Biso   1.000  N
  N166     1.0000 0.48833  0.49803  0.60654  Biso   1.000  N
  N167     1.0000 0.25197  0.14346  0.48833  Biso   1.000  N
  N168     1.0000 0.99803  0.60654  0.98833  Biso   1.000  N
  N169     1.0000 0.73833  0.35654  0.50197  Biso   1.000  N
  N170     1.0000 0.23833  0.89346  0.24803  Biso   1.000  N
  N171     1.0000 0.24803  0.73833  0.39346  Biso   1.000  N
  N172     1.0000 0.74803  0.51167  0.35654  Biso   1.000  N
  N173     1.0000 0.85654  0.00197  0.73833  Biso   1.000  N
  N174     1.0000 0.35654  0.24803  0.01167  Biso   1.000  N
  N175     1.0000 0.60654  0.48833  0.49803  Biso   1.000  N
  N176     1.0000 0.10654  0.76167  0.25197  Biso   1.000  N
  N177     1.0000 0.48833  0.25197  0.14346  Biso   1.000  N
  N178     1.0000 0.98833  0.99803  0.60654  Biso   1.000  N
  N179     1.0000 0.99803  0.14346  0.76167  Biso   1.000  N
  N180     1.0000 0.49803  0.10654  0.98833  Biso   1.000  N
  N181     1.0000 0.73833  0.85654  0.00197  Biso   1.000  N
  N182     1.0000 0.01167  0.35654  0.24803  Biso   1.000  N
  N183     1.0000 0.50197  0.73833  0.35654  Biso   1.000  N
  N184     1.0000 0.24803  0.23833  0.89346  Biso   1.000  N
  N185     1.0000 0.39346  0.24803  0.73833  Biso   1.000  N
  N186     1.0000 0.35654  0.74803  0.51167  Biso   1.000  N
  N187     1.0000 0.60654  0.98833  0.99803  Biso   1.000  N
  N188     1.0000 0.14346  0.48833  0.25197  Biso   1.000  N
  N189     1.0000 0.98833  0.49803  0.10654  Biso   1.000  N
  N190     1.0000 0.76167  0.99803  0.14346  Biso   1.000  N
  N191     1.0000 0.25197  0.10654  0.76167  Biso   1.000  N
  N192     1.0000 0.49803  0.60654  0.48833  Biso   1.000  N
  N193     1.0000 0.09649  0.53712  0.46616  Biso   1.000  N
  N194     1.0000 0.46616  0.09649  0.53712  Biso   1.000  N
  N195     1.0000 0.53712  0.46616  0.09649  Biso   1.000  N
  N196     1.0000 0.28712  0.34649  0.53384  Biso   1.000  N
  N197     1.0000 0.78712  0.90351  0.21616  Biso   1.000  N
  N198     1.0000 0.46288  0.84649  0.71616  Biso   1.000  N
  N199     1.0000 0.84649  0.71616  0.46288  Biso   1.000  N
  N200     1.0000 0.90351  0.21616  0.78712  Biso   1.000  N
  N201     1.0000 0.34649  0.53384  0.28712  Biso   1.000  N
  N202     1.0000 0.21616  0.78712  0.90351  Biso   1.000  N
  N203     1.0000 0.71616  0.46288  0.84649  Biso   1.000  N
  N204     1.0000 0.53384  0.28712  0.34649  Biso   1.000  N
  N205     1.0000 0.09649  0.03712  0.96616  Biso   1.000  N
  N206     1.0000 0.15351  0.71288  0.46616  Biso   1.000  N
  N207     1.0000 0.46616  0.59649  0.03712  Biso   1.000  N
  N208     1.0000 0.78384  0.15351  0.53712  Biso   1.000  N
  N209     1.0000 0.53712  0.96616  0.59649  Biso   1.000  N
  N210     1.0000 0.71288  0.78384  0.09649  Biso   1.000  N
  N211     1.0000 0.78712  0.40351  0.71616  Biso   1.000  N
  N212     1.0000 0.46288  0.34649  0.21616  Biso   1.000  N
  N213     1.0000 0.90351  0.71616  0.28712  Biso   1.000  N
  N214     1.0000 0.34649  0.03384  0.78712  Biso   1.000  N
  N215     1.0000 0.71616  0.96288  0.34649  Biso   1.000  N
  N216     1.0000 0.53384  0.78712  0.84649  Biso   1.000  N
  N217     1.0000 0.59649  0.53712  0.96616  Biso   1.000  N
  N218     1.0000 0.09649  0.71288  0.78384  Biso   1.000  N
  N219     1.0000 0.96616  0.09649  0.03712  Biso   1.000  N
  N220     1.0000 0.46616  0.15351  0.71288  Biso   1.000  N
  N221     1.0000 0.03712  0.46616  0.59649  Biso   1.000  N
  N222     1.0000 0.53712  0.78384  0.15351  Biso   1.000  N
  N223     1.0000 0.78712  0.34649  0.03384  Biso   1.000  N
  N224     1.0000 0.28712  0.90351  0.71616  Biso   1.000  N
  N225     1.0000 0.34649  0.71616  0.96288  Biso   1.000  N
  N226     1.0000 0.84649  0.53384  0.78712  Biso   1.000  N
  N227     1.0000 0.71616  0.78712  0.40351  Biso   1.000  N
  N228     1.0000 0.21616  0.46288  0.34649  Biso   1.000  N
  N229     1.0000 0.59649  0.03712  0.46616  Biso   1.000  N
  N230     1.0000 0.15351  0.53712  0.78384  Biso   1.000  N
  N231     1.0000 0.96616  0.59649  0.53712  Biso   1.000  N
  N232     1.0000 0.78384  0.09649  0.71288  Biso   1.000  N
  N233     1.0000 0.03712  0.96616  0.09649  Biso   1.000  N
  N234     1.0000 0.71288  0.46616  0.15351  Biso   1.000  N
  N235     1.0000 0.78712  0.84649  0.53384  Biso   1.000  N
  N236     1.0000 0.96288  0.34649  0.71616  Biso   1.000  N
  N237     1.0000 0.34649  0.21616  0.46288  Biso   1.000  N
  N238     1.0000 0.40351  0.71616  0.78712  Biso   1.000  N
  N239     1.0000 0.71616  0.28712  0.90351  Biso   1.000  N
  N240     1.0000 0.03384  0.78712  0.34649  Biso   1.000  N
  N241     1.0000 0.15351  0.21288  0.96616  Biso   1.000  N
  N242     1.0000 0.65351  0.03712  0.78384  Biso   1.000  N
  N243     1.0000 0.59649  0.71288  0.28384  Biso   1.000  N
  N244     1.0000 0.96616  0.15351  0.21288  Biso   1.000  N
  N245     1.0000 0.78384  0.65351  0.03712  Biso   1.000  N
  N246     1.0000 0.28384  0.59649  0.71288  Biso   1.000  N
  N247     1.0000 0.21288  0.96616  0.15351  Biso   1.000  N
  N248     1.0000 0.03712  0.78384  0.65351  Biso   1.000  N
  N249     1.0000 0.71288  0.28384  0.59649  Biso   1.000  N
  N250     1.0000 0.96288  0.40351  0.03384  Biso   1.000  N
  N251     1.0000 0.40351  0.03384  0.96288  Biso   1.000  N
  N252     1.0000 0.03384  0.96288  0.40351  Biso   1.000  N
  N253     1.0000 0.65351  0.53712  0.28384  Biso   1.000  N
  N254     1.0000 0.59649  0.21288  0.78384  Biso   1.000  N
  N255     1.0000 0.96616  0.65351  0.71288  Biso   1.000  N
  N256     1.0000 0.28384  0.09649  0.21288  Biso   1.000  N
  N257     1.0000 0.21288  0.46616  0.65351  Biso   1.000  N
  N258     1.0000 0.03712  0.28384  0.15351  Biso   1.000  N
  N259     1.0000 0.28712  0.84649  0.03384  Biso   1.000  N
  N260     1.0000 0.96288  0.90351  0.53384  Biso   1.000  N
  N261     1.0000 0.84649  0.21616  0.96288  Biso   1.000  N
  N262     1.0000 0.40351  0.53384  0.46288  Biso   1.000  N
  N263     1.0000 0.21616  0.28712  0.40351  Biso   1.000  N
  N264     1.0000 0.03384  0.46288  0.90351  Biso   1.000  N
  N265     1.0000 0.65351  0.21288  0.46616  Biso   1.000  N
  N266     1.0000 0.15351  0.03712  0.28384  Biso   1.000  N
  N267     1.0000 0.28384  0.65351  0.53712  Biso   1.000  N
  N268     1.0000 0.78384  0.59649  0.21288  Biso   1.000  N
  N269     1.0000 0.71288  0.96616  0.65351  Biso   1.000  N
  N270     1.0000 0.21288  0.28384  0.09649  Biso   1.000  N
  N271     1.0000 0.46288  0.40351  0.53384  Biso   1.000  N
  N272     1.0000 0.96288  0.84649  0.21616  Biso   1.000  N
  N273     1.0000 0.40351  0.21616  0.28712  Biso   1.000  N
  N274     1.0000 0.90351  0.03384  0.46288  Biso   1.000  N
  N275     1.0000 0.03384  0.28712  0.84649  Biso   1.000  N
  N276     1.0000 0.53384  0.96288  0.90351  Biso   1.000  N
  N277     1.0000 0.65351  0.71288  0.96616  Biso   1.000  N
  N278     1.0000 0.09649  0.21288  0.28384  Biso   1.000  N
  N279     1.0000 0.46616  0.65351  0.21288  Biso   1.000  N
  N280     1.0000 0.28384  0.15351  0.03712  Biso   1.000  N
  N281     1.0000 0.53712  0.28384  0.65351  Biso   1.000  N
  N282     1.0000 0.21288  0.78384  0.59649  Biso   1.000  N
  N283     1.0000 0.46288  0.90351  0.03384  Biso   1.000  N
  N284     1.0000 0.28712  0.40351  0.21616  Biso   1.000  N
  N285     1.0000 0.90351  0.53384  0.96288  Biso   1.000  N
  N286     1.0000 0.84649  0.03384  0.28712  Biso   1.000  N
  N287     1.0000 0.21616  0.96288  0.84649  Biso   1.000  N
  N288     1.0000 0.53384  0.46288  0.40351  Biso   1.000  N
  N289     1.0000 0.90351  0.46288  0.53384  Biso   1.000  N
  N290     1.0000 0.53384  0.90351  0.46288  Biso   1.000  N
  N291     1.0000 0.46288  0.53384  0.90351  Biso   1.000  N
  N292     1.0000 0.21288  0.15351  0.46616  Biso   1.000  N
  N293     1.0000 0.71288  0.09649  0.28384  Biso   1.000  N
  N294     1.0000 0.53712  0.65351  0.78384  Biso   1.000  N
  N295     1.0000 0.65351  0.78384  0.53712  Biso   1.000  N
  N296     1.0000 0.09649  0.28384  0.71288  Biso   1.000  N
  N297     1.0000 0.15351  0.46616  0.21288  Biso   1.000  N
  N298     1.0000 0.28384  0.71288  0.09649  Biso   1.000  N
  N299     1.0000 0.78384  0.53712  0.65351  Biso   1.000  N
  N300     1.0000 0.46616  0.21288  0.15351  Biso   1.000  N
  N301     1.0000 0.90351  0.96288  0.03384  Biso   1.000  N
  N302     1.0000 0.34649  0.78712  0.53384  Biso   1.000  N
  N303     1.0000 0.53384  0.40351  0.96288  Biso   1.000  N
  N304     1.0000 0.71616  0.34649  0.46288  Biso   1.000  N
  N305     1.0000 0.46288  0.03384  0.40351  Biso   1.000  N
  N306     1.0000 0.78712  0.71616  0.90351  Biso   1.000  N
  N307     1.0000 0.71288  0.59649  0.78384  Biso   1.000  N
  N308     1.0000 0.53712  0.15351  0.28384  Biso   1.000  N
  N309     1.0000 0.09649  0.78384  0.21288  Biso   1.000  N
  N310     1.0000 0.15351  0.96616  0.71288  Biso   1.000  N
  N311     1.0000 0.78384  0.03712  0.15351  Biso   1.000  N
  N312     1.0000 0.46616  0.71288  0.65351  Biso   1.000  N
  N313     1.0000 0.40351  0.46288  0.03384  Biso   1.000  N
  N314     1.0000 0.90351  0.78712  0.71616  Biso   1.000  N
  N315     1.0000 0.03384  0.90351  0.96288  Biso   1.000  N
  N316     1.0000 0.53384  0.34649  0.78712  Biso   1.000  N
  N317     1.0000 0.96288  0.53384  0.40351  Biso   1.000  N
  N318     1.0000 0.46288  0.71616  0.34649  Biso   1.000  N
  N319     1.0000 0.71288  0.15351  0.96616  Biso   1.000  N
  N320     1.0000 0.21288  0.09649  0.78384  Biso   1.000  N
  N321     1.0000 0.15351  0.78384  0.03712  Biso   1.000  N
  N322     1.0000 0.65351  0.46616  0.71288  Biso   1.000  N
  N323     1.0000 0.78384  0.71288  0.59649  Biso   1.000  N
  N324     1.0000 0.28384  0.53712  0.15351  Biso   1.000  N
  N325     1.0000 0.40351  0.96288  0.53384  Biso   1.000  N
  N326     1.0000 0.34649  0.46288  0.71616  Biso   1.000  N
  N327     1.0000 0.03384  0.40351  0.46288  Biso   1.000  N
  N328     1.0000 0.71616  0.90351  0.78712  Biso   1.000  N
  N329     1.0000 0.96288  0.03384  0.90351  Biso   1.000  N
  N330     1.0000 0.78712  0.53384  0.34649  Biso   1.000  N
  N331     1.0000 0.71288  0.65351  0.46616  Biso   1.000  N
  N332     1.0000 0.03712  0.15351  0.78384  Biso   1.000  N
  N333     1.0000 0.15351  0.28384  0.53712  Biso   1.000  N
  N334     1.0000 0.59649  0.78384  0.71288  Biso   1.000  N
  N335     1.0000 0.78384  0.21288  0.09649  Biso   1.000  N
  N336     1.0000 0.96616  0.71288  0.15351  Biso   1.000  N
  N337     1.0000 0.34649  0.28712  0.03384  Biso   1.000  N
  N338     1.0000 0.84649  0.96288  0.71616  Biso   1.000  N
  N339     1.0000 0.40351  0.78712  0.21616  Biso   1.000  N
  N340     1.0000 0.03384  0.34649  0.28712  Biso   1.000  N
  N341     1.0000 0.71616  0.84649  0.96288  Biso   1.000  N
  N342     1.0000 0.21616  0.40351  0.78712  Biso   1.000  N
  N343     1.0000 0.28712  0.03384  0.34649  Biso   1.000  N
  N344     1.0000 0.96288  0.71616  0.84649  Biso   1.000  N
  N345     1.0000 0.78712  0.21616  0.40351  Biso   1.000  N
  N346     1.0000 0.03712  0.59649  0.96616  Biso   1.000  N
  N347     1.0000 0.59649  0.96616  0.03712  Biso   1.000  N
  N348     1.0000 0.96616  0.03712  0.59649  Biso   1.000  N
  N349     1.0000 0.84649  0.46288  0.21616  Biso   1.000  N
  N350     1.0000 0.40351  0.28712  0.71616  Biso   1.000  N
  N351     1.0000 0.03384  0.84649  0.78712  Biso   1.000  N
  N352     1.0000 0.21616  0.90351  0.28712  Biso   1.000  N
  N353     1.0000 0.28712  0.53384  0.84649  Biso   1.000  N
  N354     1.0000 0.96288  0.21616  0.34649  Biso   1.000  N
  N355     1.0000 0.21288  0.65351  0.96616  Biso   1.000  N
  N356     1.0000 0.03712  0.09649  0.46616  Biso   1.000  N
  N357     1.0000 0.65351  0.28384  0.03712  Biso   1.000  N
  N358     1.0000 0.59649  0.46616  0.53712  Biso   1.000  N
  N359     1.0000 0.28384  0.21288  0.59649  Biso   1.000  N
  N360     1.0000 0.96616  0.53712  0.09649  Biso   1.000  N
  N361     1.0000 0.84649  0.28712  0.53384  Biso   1.000  N
  N362     1.0000 0.34649  0.96288  0.21616  Biso   1.000  N
  N363     1.0000 0.21616  0.84649  0.46288  Biso   1.000  N
  N364     1.0000 0.71616  0.40351  0.28712  Biso   1.000  N
  N365     1.0000 0.78712  0.03384  0.84649  Biso   1.000  N
  N366     1.0000 0.28712  0.21616  0.90351  Biso   1.000  N
  N367     1.0000 0.53712  0.59649  0.46616  Biso   1.000  N
  N368     1.0000 0.03712  0.65351  0.28384  Biso   1.000  N
  N369     1.0000 0.59649  0.28384  0.21288  Biso   1.000  N
  N370     1.0000 0.09649  0.96616  0.53712  Biso   1.000  N
  N371     1.0000 0.96616  0.21288  0.65351  Biso   1.000  N
  N372     1.0000 0.46616  0.03712  0.09649  Biso   1.000  N
  N373     1.0000 0.84649  0.78712  0.03384  Biso   1.000  N
  N374     1.0000 0.90351  0.28712  0.21616  Biso   1.000  N
  N375     1.0000 0.53384  0.84649  0.28712  Biso   1.000  N
  N376     1.0000 0.21616  0.34649  0.96288  Biso   1.000  N
  N377     1.0000 0.46288  0.21616  0.84649  Biso   1.000  N
  N378     1.0000 0.28712  0.71616  0.40351  Biso   1.000  N
  N379     1.0000 0.53712  0.09649  0.96616  Biso   1.000  N
  N380     1.0000 0.21288  0.59649  0.28384  Biso   1.000  N
  N381     1.0000 0.09649  0.46616  0.03712  Biso   1.000  N
  N382     1.0000 0.65351  0.96616  0.21288  Biso   1.000  N
  N383     1.0000 0.28384  0.03712  0.65351  Biso   1.000  N
  N384     1.0000 0.46616  0.53712  0.59649  Biso   1.000  N
  N385     1.0000 0.93347  0.65205  0.50507  Biso   1.000  N
  N386     1.0000 0.50507  0.93347  0.65205  Biso   1.000  N
  N387     1.0000 0.65205  0.50507  0.93347  Biso   1.000  N
  N388     1.0000 0.40205  0.18347  0.49493  Biso   1.000  N
  N389     1.0000 0.90205  0.06653  0.25507  Biso   1.000  N
  N390     1.0000 0.34795  0.68347  0.75507  Biso   1.000  N
  N391     1.0000 0.68347  0.75507  0.34795  Biso   1.000  N
  N392     1.0000 0.06653  0.25507  0.90205  Biso   1.000  N
  N393     1.0000 0.18347  0.49493  0.40205  Biso   1.000  N
  N394     1.0000 0.25507  0.90205  0.06653  Biso   1.000  N
  N395     1.0000 0.75507  0.34795  0.68347  Biso   1.000  N
  N396     1.0000 0.49493  0.40205  0.18347  Biso   1.000  N
  N397     1.0000 0.93347  0.15205  0.00507  Biso   1.000  N
  N398     1.0000 0.31653  0.59795  0.50507  Biso   1.000  N
  N399     1.0000 0.50507  0.43347  0.15205  Biso   1.000  N
  N400     1.0000 0.74493  0.31653  0.65205  Biso   1.000  N
  N401     1.0000 0.65205  0.00507  0.43347  Biso   1.000  N
  N402     1.0000 0.59795  0.74493  0.93347  Biso   1.000  N
  N403     1.0000 0.90205  0.56653  0.75507  Biso   1.000  N
  N404     1.0000 0.34795  0.18347  0.25507  Biso   1.000  N
  N405     1.0000 0.06653  0.75507  0.40205  Biso   1.000  N
  N406     1.0000 0.18347  0.99493  0.90205  Biso   1.000  N
  N407     1.0000 0.75507  0.84795  0.18347  Biso   1.000  N
  N408     1.0000 0.49493  0.90205  0.68347  Biso   1.000  N
  N409     1.0000 0.43347  0.65205  0.00507  Biso   1.000  N
  N410     1.0000 0.93347  0.59795  0.74493  Biso   1.000  N
  N411     1.0000 0.00507  0.93347  0.15205  Biso   1.000  N
  N412     1.0000 0.50507  0.31653  0.59795  Biso   1.000  N
  N413     1.0000 0.15205  0.50507  0.43347  Biso   1.000  N
  N414     1.0000 0.65205  0.74493  0.31653  Biso   1.000  N
  N415     1.0000 0.90205  0.18347  0.99493  Biso   1.000  N
  N416     1.0000 0.40205  0.06653  0.75507  Biso   1.000  N
  N417     1.0000 0.18347  0.75507  0.84795  Biso   1.000  N
  N418     1.0000 0.68347  0.49493  0.90205  Biso   1.000  N
  N419     1.0000 0.75507  0.90205  0.56653  Biso   1.000  N
  N420     1.0000 0.25507  0.34795  0.18347  Biso   1.000  N
  N421     1.0000 0.43347  0.15205  0.50507  Biso   1.000  N
  N422     1.0000 0.31653  0.65205  0.74493  Biso   1.000  N
  N423     1.0000 0.00507  0.43347  0.65205  Biso   1.000  N
  N424     1.0000 0.74493  0.93347  0.59795  Biso   1.000  N
  N425     1.0000 0.15205  0.00507  0.93347  Biso   1.000  N
  N426     1.0000 0.59795  0.50507  0.31653  Biso   1.000  N
  N427     1.0000 0.90205  0.68347  0.49493  Biso   1.000  N
  N428     1.0000 0.84795  0.18347  0.75507  Biso   1.000  N
  N429     1.0000 0.18347  0.25507  0.34795  Biso   1.000  N
  N430     1.0000 0.56653  0.75507  0.90205  Biso   1.000  N
  N431     1.0000 0.75507  0.40205  0.06653  Biso   1.000  N
  N432     1.0000 0.99493  0.90205  0.18347  Biso   1.000  N
  N433     1.0000 0.31653  0.09795  0.00507  Biso   1.000  N
  N434     1.0000 0.81653  0.15205  0.74493  Biso   1.000  N
  N435     1.0000 0.43347  0.59795  0.24493  Biso   1.000  N
  N436     1.0000 0.00507  0.31653  0.09795  Biso   1.000  N
  N437     1.0000 0.74493  0.81653  0.15205  Biso   1.000  N
  N438     1.0000 0.24493  0.43347  0.59795  Biso   1.000  N
  N439     1.0000 0.09795  0.00507  0.31653  Biso   1.000  N
  N440     1.0000 0.15205  0.74493  0.81653  Biso   1.000  N
  N441     1.0000 0.59795  0.24493  0.43347  Biso   1.000  N
  N442     1.0000 0.84795  0.56653  0.99493  Biso   1.000  N
  N443     1.0000 0.56653  0.99493  0.84795  Biso   1.000  N
  N444     1.0000 0.99493  0.84795  0.56653  Biso   1.000  N
  N445     1.0000 0.81653  0.65205  0.24493  Biso   1.000  N
  N446     1.0000 0.43347  0.09795  0.74493  Biso   1.000  N
  N447     1.0000 0.00507  0.81653  0.59795  Biso   1.000  N
  N448     1.0000 0.24493  0.93347  0.09795  Biso   1.000  N
  N449     1.0000 0.09795  0.50507  0.81653  Biso   1.000  N
  N450     1.0000 0.15205  0.24493  0.31653  Biso   1.000  N
  N451     1.0000 0.40205  0.68347  0.99493  Biso   1.000  N
  N452     1.0000 0.84795  0.06653  0.49493  Biso   1.000  N
  N453     1.0000 0.68347  0.25507  0.84795  Biso   1.000  N
  N454     1.0000 0.56653  0.49493  0.34795  Biso   1.000  N
  N455     1.0000 0.25507  0.40205  0.56653  Biso   1.000  N
  N456     1.0000 0.99493  0.34795  0.06653  Biso   1.000  N
  N457     1.0000 0.81653  0.09795  0.50507  Biso   1.000  N
  N458     1.0000 0.31653  0.15205  0.24493  Biso   1.000  N
  N459     1.0000 0.24493  0.81653  0.65205  Biso   1.000  N
  N460     1.0000 0.74493  0.43347  0.09795  Biso   1.000  N
  N461     1.0000 0.59795  0.00507  0.81653  Biso   1.000  N
  N462     1.0000 0.09795  0.24493  0.93347  Biso   1.000  N
  N463     1.0000 0.34795  0.56653  0.49493  Biso   1.000  N
  N464     1.0000 0.84795  0.68347  0.25507  Biso   1.000  N
  N465     1.0000 0.56653  0.25507  0.40205  Biso   1.000  N
  N466     1.0000 0.06653  0.99493  0.34795  Biso   1.000  N
  N467     1.0000 0.99493  0.40205  0.68347  Biso   1.000  N
  N468     1.0000 0.49493  0.84795  0.06653  Biso   1.000  N
  N469     1.0000 0.81653  0.59795  0.00507  Biso   1.000  N
  N470     1.0000 0.93347  0.09795  0.24493  Biso   1.000  N
  N471     1.0000 0.50507  0.81653  0.09795  Biso   1.000  N
  N472     1.0000 0.24493  0.31653  0.15205  Biso   1.000  N
  N473     1.0000 0.65205  0.24493  0.81653  Biso   1.000  N
  N474     1.0000 0.09795  0.74493  0.43347  Biso   1.000  N
  N475     1.0000 0.34795  0.06653  0.99493  Biso   1.000  N
  N476     1.0000 0.40205  0.56653  0.25507  Biso   1.000  N
  N477     1.0000 0.06653  0.49493  0.84795  Biso   1.000  N
  N478     1.0000 0.68347  0.99493  0.40205  Biso   1.000  N
  N479     1.0000 0.25507  0.84795  0.68347  Biso   1.000  N
  N480     1.0000 0.49493  0.34795  0.56653  Biso   1.000  N
  N481     1.0000 0.06653  0.34795  0.49493  Biso   1.000  N
  N482     1.0000 0.49493  0.06653  0.34795  Biso   1.000  N
  N483     1.0000 0.34795  0.49493  0.06653  Biso   1.000  N
  N484     1.0000 0.09795  0.31653  0.50507  Biso   1.000  N
  N485     1.0000 0.59795  0.93347  0.24493  Biso   1.000  N
  N486     1.0000 0.65205  0.81653  0.74493  Biso   1.000  N
  N487     1.0000 0.81653  0.74493  0.65205  Biso   1.000  N
  N488     1.0000 0.93347  0.24493  0.59795  Biso   1.000  N
  N489     1.0000 0.31653  0.50507  0.09795  Biso   1.000  N
  N490     1.0000 0.24493  0.59795  0.93347  Biso   1.000  N
  N491     1.0000 0.74493  0.65205  0.81653  Biso   1.000  N
  N492     1.0000 0.50507  0.09795  0.31653  Biso   1.000  N
  N493     1.0000 0.06653  0.84795  0.99493  Biso   1.000  N
  N494     1.0000 0.18347  0.90205  0.49493  Biso   1.000  N
  N495     1.0000 0.49493  0.56653  0.84795  Biso   1.000  N
  N496     1.0000 0.75507  0.18347  0.34795  Biso   1.000  N
  N497     1.0000 0.34795  0.99493  0.56653  Biso   1.000  N
  N498     1.0000 0.90205  0.75507  0.06653  Biso   1.000  N
  N499     1.0000 0.59795  0.43347  0.74493  Biso   1.000  N
  N500     1.0000 0.65205  0.31653  0.24493  Biso   1.000  N
  N501     1.0000 0.93347  0.74493  0.09795  Biso   1.000  N
  N502     1.0000 0.31653  0.00507  0.59795  Biso   1.000  N
  N503     1.0000 0.74493  0.15205  0.31653  Biso   1.000  N
  N504     1.0000 0.50507  0.59795  0.81653  Biso   1.000  N
  N505     1.0000 0.56653  0.34795  0.99493  Biso   1.000  N
  N506     1.0000 0.06653  0.90205  0.75507  Biso   1.000  N
  N507     1.0000 0.99493  0.06653  0.84795  Biso   1.000  N
  N508     1.0000 0.49493  0.18347  0.90205  Biso   1.000  N
  N509     1.0000 0.84795  0.49493  0.56653  Biso   1.000  N
  N510     1.0000 0.34795  0.75507  0.18347  Biso   1.000  N
  N511     1.0000 0.59795  0.31653  0.00507  Biso   1.000  N
  N512     1.0000 0.09795  0.93347  0.74493  Biso   1.000  N
  N513     1.0000 0.31653  0.74493  0.15205  Biso   1.000  N
  N514     1.0000 0.81653  0.50507  0.59795  Biso   1.000  N
  N515     1.0000 0.74493  0.59795  0.43347  Biso   1.000  N
  N516     1.0000 0.24493  0.65205  0.31653  Biso   1.000  N
  N517     1.0000 0.56653  0.84795  0.49493  Biso   1.000  N
  N518     1.0000 0.18347  0.34795  0.75507  Biso   1.000  N
  N519     1.0000 0.99493  0.56653  0.34795  Biso   1.000  N
  N520     1.0000 0.75507  0.06653  0.90205  Biso   1.000  N
  N521     1.0000 0.84795  0.99493  0.06653  Biso   1.000  N
  N522     1.0000 0.90205  0.49493  0.18347  Biso   1.000  N
  N523     1.0000 0.59795  0.81653  0.50507  Biso   1.000  N
  N524     1.0000 0.15205  0.31653  0.74493  Biso   1.000  N
  N525     1.0000 0.31653  0.24493  0.65205  Biso   1.000  N
  N526     1.0000 0.43347  0.74493  0.59795  Biso   1.000  N
  N527     1.0000 0.74493  0.09795  0.93347  Biso   1.000  N
  N528     1.0000 0.00507  0.59795  0.31653  Biso   1.000  N
  N529     1.0000 0.18347  0.40205  0.99493  Biso   1.000  N
  N530     1.0000 0.68347  0.84795  0.75507  Biso   1.000  N
  N531     1.0000 0.56653  0.90205  0.25507  Biso   1.000  N
  N532     1.0000 0.99493  0.18347  0.40205  Biso   1.000  N
  N533     1.0000 0.75507  0.68347  0.84795  Biso   1.000  N
  N534     1.0000 0.25507  0.56653  0.90205  Biso   1.000  N
  N535     1.0000 0.40205  0.99493  0.18347  Biso   1.000  N
  N536     1.0000 0.84795  0.75507  0.68347  Biso   1.000  N
  N537     1.0000 0.90205  0.25507  0.56653  Biso   1.000  N
  N538     1.0000 0.15205  0.43347  0.00507  Biso   1.000  N
  N539     1.0000 0.43347  0.00507  0.15205  Biso   1.000  N
  N540     1.0000 0.00507  0.15205  0.43347  Biso   1.000  N
  N541     1.0000 0.68347  0.34795  0.25507  Biso   1.000  N
  N542     1.0000 0.56653  0.40205  0.75507  Biso   1.000  N
  N543     1.0000 0.99493  0.68347  0.90205  Biso   1.000  N
  N544     1.0000 0.25507  0.06653  0.40205  Biso   1.000  N
  N545     1.0000 0.40205  0.49493  0.68347  Biso   1.000  N
  N546     1.0000 0.84795  0.25507  0.18347  Biso   1.000  N
  N547     1.0000 0.09795  0.81653  0.00507  Biso   1.000  N
  N548     1.0000 0.15205  0.93347  0.50507  Biso   1.000  N
  N549     1.0000 0.81653  0.24493  0.15205  Biso   1.000  N
  N550     1.0000 0.43347  0.50507  0.65205  Biso   1.000  N
  N551     1.0000 0.24493  0.09795  0.43347  Biso   1.000  N
  N552     1.0000 0.00507  0.65205  0.93347  Biso   1.000  N
  N553     1.0000 0.68347  0.40205  0.49493  Biso   1.000  N
  N554     1.0000 0.18347  0.84795  0.25507  Biso   1.000  N
  N555     1.0000 0.25507  0.68347  0.34795  Biso   1.000  N
  N556     1.0000 0.75507  0.56653  0.40205  Biso   1.000  N
  N557     1.0000 0.90205  0.99493  0.68347  Biso   1.000  N
  N558     1.0000 0.40205  0.25507  0.06653  Biso   1.000  N
  N559     1.0000 0.65205  0.43347  0.50507  Biso   1.000  N
  N560     1.0000 0.15205  0.81653  0.24493  Biso   1.000  N
  N561     1.0000 0.43347  0.24493  0.09795  Biso   1.000  N
  N562     1.0000 0.93347  0.00507  0.65205  Biso   1.000  N
  N563     1.0000 0.00507  0.09795  0.81653  Biso   1.000  N
  N564     1.0000 0.50507  0.15205  0.93347  Biso   1.000  N
  N565     1.0000 0.68347  0.90205  0.99493  Biso   1.000  N
  N566     1.0000 0.06653  0.40205  0.25507  Biso   1.000  N
  N567     1.0000 0.49493  0.68347  0.40205  Biso   1.000  N
  N568     1.0000 0.25507  0.18347  0.84795  Biso   1.000  N
  N569     1.0000 0.34795  0.25507  0.68347  Biso   1.000  N
  N570     1.0000 0.40205  0.75507  0.56653  Biso   1.000  N
  N571     1.0000 0.65205  0.93347  0.00507  Biso   1.000  N
  N572     1.0000 0.09795  0.43347  0.24493  Biso   1.000  N
  N573     1.0000 0.93347  0.50507  0.15205  Biso   1.000  N
  N574     1.0000 0.81653  0.00507  0.09795  Biso   1.000  N
  N575     1.0000 0.24493  0.15205  0.81653  Biso   1.000  N
  N576     1.0000 0.50507  0.65205  0.43347  Biso   1.000  N
  C1       1.0000 0.96877  0.64021  0.47940  Biso   1.000  C
  C2       1.0000 0.47940  0.96877  0.64021  Biso   1.000  C
  C3       1.0000 0.64021  0.47940  0.96877  Biso   1.000  C
  C4       1.0000 0.39021  0.21877  0.52060  Biso   1.000  C
  C5       1.0000 0.89021  0.03123  0.22940  Biso   1.000  C
  C6       1.0000 0.35979  0.71877  0.72940  Biso   1.000  C
  C7       1.0000 0.71877  0.72940  0.35979  Biso   1.000  C
  C8       1.0000 0.03123  0.22940  0.89021  Biso   1.000  C
  C9       1.0000 0.21877  0.52060  0.39021  Biso   1.000  C
  C10      1.0000 0.22940  0.89021  0.03123  Biso   1.000  C
  C11      1.0000 0.72940  0.35979  0.71877  Biso   1.000  C
  C12      1.0000 0.52060  0.39021  0.21877  Biso   1.000  C
  C13      1.0000 0.96877  0.14021  0.97940  Biso   1.000  C
  C14      1.0000 0.28123  0.60979  0.47940  Biso   1.000  C
  C15      1.0000 0.47940  0.46877  0.14021  Biso   1.000  C
  C16      1.0000 0.77060  0.28123  0.64021  Biso   1.000  C
  C17      1.0000 0.64021  0.97940  0.46877  Biso   1.000  C
  C18      1.0000 0.60979  0.77060  0.96877  Biso   1.000  C
  C19      1.0000 0.89021  0.53123  0.72940  Biso   1.000  C
  C20      1.0000 0.35979  0.21877  0.22940  Biso   1.000  C
  C21      1.0000 0.03123  0.72940  0.39021  Biso   1.000  C
  C22      1.0000 0.21877  0.02060  0.89021  Biso   1.000  C
  C23      1.0000 0.72940  0.85979  0.21877  Biso   1.000  C
  C24      1.0000 0.52060  0.89021  0.71877  Biso   1.000  C
  C25      1.0000 0.46877  0.64021  0.97940  Biso   1.000  C
  C26      1.0000 0.96877  0.60979  0.77060  Biso   1.000  C
  C27      1.0000 0.97940  0.96877  0.14021  Biso   1.000  C
  C28      1.0000 0.47940  0.28123  0.60979  Biso   1.000  C
  C29      1.0000 0.14021  0.47940  0.46877  Biso   1.000  C
  C30      1.0000 0.64021  0.77060  0.28123  Biso   1.000  C
  C31      1.0000 0.89021  0.21877  0.02060  Biso   1.000  C
  C32      1.0000 0.39021  0.03123  0.72940  Biso   1.000  C
  C33      1.0000 0.21877  0.72940  0.85979  Biso   1.000  C
  C34      1.0000 0.71877  0.52060  0.89021  Biso   1.000  C
  C35      1.0000 0.72940  0.89021  0.53123  Biso   1.000  C
  C36      1.0000 0.22940  0.35979  0.21877  Biso   1.000  C
  C37      1.0000 0.46877  0.14021  0.47940  Biso   1.000  C
  C38      1.0000 0.28123  0.64021  0.77060  Biso   1.000  C
  C39      1.0000 0.97940  0.46877  0.64021  Biso   1.000  C
  C40      1.0000 0.77060  0.96877  0.60979  Biso   1.000  C
  C41      1.0000 0.14021  0.97940  0.96877  Biso   1.000  C
  C42      1.0000 0.60979  0.47940  0.28123  Biso   1.000  C
  C43      1.0000 0.89021  0.71877  0.52060  Biso   1.000  C
  C44      1.0000 0.85979  0.21877  0.72940  Biso   1.000  C
  C45      1.0000 0.21877  0.22940  0.35979  Biso   1.000  C
  C46      1.0000 0.53123  0.72940  0.89021  Biso   1.000  C
  C47      1.0000 0.72940  0.39021  0.03123  Biso   1.000  C
  C48      1.0000 0.02060  0.89021  0.21877  Biso   1.000  C
  C49      1.0000 0.28123  0.10979  0.97940  Biso   1.000  C
  C50      1.0000 0.78123  0.14021  0.77060  Biso   1.000  C
  C51      1.0000 0.46877  0.60979  0.27060  Biso   1.000  C
  C52      1.0000 0.97940  0.28123  0.10979  Biso   1.000  C
  C53      1.0000 0.77060  0.78123  0.14021  Biso   1.000  C
  C54      1.0000 0.27060  0.46877  0.60979  Biso   1.000  C
  C55      1.0000 0.10979  0.97940  0.28123  Biso   1.000  C
  C56      1.0000 0.14021  0.77060  0.78123  Biso   1.000  C
  C57      1.0000 0.60979  0.27060  0.46877  Biso   1.000  C
  C58      1.0000 0.85979  0.53123  0.02060  Biso   1.000  C
  C59      1.0000 0.53123  0.02060  0.85979  Biso   1.000  C
  C60      1.0000 0.02060  0.85979  0.53123  Biso   1.000  C
  C61      1.0000 0.78123  0.64021  0.27060  Biso   1.000  C
  C62      1.0000 0.46877  0.10979  0.77060  Biso   1.000  C
  C63      1.0000 0.97940  0.78123  0.60979  Biso   1.000  C
  C64      1.0000 0.27060  0.96877  0.10979  Biso   1.000  C
  C65      1.0000 0.10979  0.47940  0.78123  Biso   1.000  C
  C66      1.0000 0.14021  0.27060  0.28123  Biso   1.000  C
  C67      1.0000 0.39021  0.71877  0.02060  Biso   1.000  C
  C68      1.0000 0.85979  0.03123  0.52060  Biso   1.000  C
  C69      1.0000 0.71877  0.22940  0.85979  Biso   1.000  C
  C70      1.0000 0.53123  0.52060  0.35979  Biso   1.000  C
  C71      1.0000 0.22940  0.39021  0.53123  Biso   1.000  C
  C72      1.0000 0.02060  0.35979  0.03123  Biso   1.000  C
  C73      1.0000 0.78123  0.10979  0.47940  Biso   1.000  C
  C74      1.0000 0.28123  0.14021  0.27060  Biso   1.000  C
  C75      1.0000 0.27060  0.78123  0.64021  Biso   1.000  C
  C76      1.0000 0.77060  0.46877  0.10979  Biso   1.000  C
  C77      1.0000 0.60979  0.97940  0.78123  Biso   1.000  C
  C78      1.0000 0.10979  0.27060  0.96877  Biso   1.000  C
  C79      1.0000 0.35979  0.53123  0.52060  Biso   1.000  C
  C80      1.0000 0.85979  0.71877  0.22940  Biso   1.000  C
  C81      1.0000 0.53123  0.22940  0.39021  Biso   1.000  C
  C82      1.0000 0.03123  0.02060  0.35979  Biso   1.000  C
  C83      1.0000 0.02060  0.39021  0.71877  Biso   1.000  C
  C84      1.0000 0.52060  0.85979  0.03123  Biso   1.000  C
  C85      1.0000 0.78123  0.60979  0.97940  Biso   1.000  C
  C86      1.0000 0.96877  0.10979  0.27060  Biso   1.000  C
  C87      1.0000 0.47940  0.78123  0.10979  Biso   1.000  C
  C88      1.0000 0.27060  0.28123  0.14021  Biso   1.000  C
  C89      1.0000 0.64021  0.27060  0.78123  Biso   1.000  C
  C90      1.0000 0.10979  0.77060  0.46877  Biso   1.000  C
  C91      1.0000 0.35979  0.03123  0.02060  Biso   1.000  C
  C92      1.0000 0.39021  0.53123  0.22940  Biso   1.000  C
  C93      1.0000 0.03123  0.52060  0.85979  Biso   1.000  C
  C94      1.0000 0.71877  0.02060  0.39021  Biso   1.000  C
  C95      1.0000 0.22940  0.85979  0.71877  Biso   1.000  C
  C96      1.0000 0.52060  0.35979  0.53123  Biso   1.000  C
  C97      1.0000 0.03123  0.35979  0.52060  Biso   1.000  C
  C98      1.0000 0.52060  0.03123  0.35979  Biso   1.000  C
  C99      1.0000 0.35979  0.52060  0.03123  Biso   1.000  C
  C100     1.0000 0.10979  0.28123  0.47940  Biso   1.000  C
  C101     1.0000 0.60979  0.96877  0.27060  Biso   1.000  C
  C102     1.0000 0.64021  0.78123  0.77060  Biso   1.000  C
  C103     1.0000 0.78123  0.77060  0.64021  Biso   1.000  C
  C104     1.0000 0.96877  0.27060  0.60979  Biso   1.000  C
  C105     1.0000 0.28123  0.47940  0.10979  Biso   1.000  C
  C106     1.0000 0.27060  0.60979  0.96877  Biso   1.000  C
  C107     1.0000 0.77060  0.64021  0.78123  Biso   1.000  C
  C108     1.0000 0.47940  0.10979  0.28123  Biso   1.000  C
  C109     1.0000 0.03123  0.85979  0.02060  Biso   1.000  C
  C110     1.0000 0.21877  0.89021  0.52060  Biso   1.000  C
  C111     1.0000 0.52060  0.53123  0.85979  Biso   1.000  C
  C112     1.0000 0.72940  0.21877  0.35979  Biso   1.000  C
  C113     1.0000 0.35979  0.02060  0.53123  Biso   1.000  C
  C114     1.0000 0.89021  0.72940  0.03123  Biso   1.000  C
  C115     1.0000 0.60979  0.46877  0.77060  Biso   1.000  C
  C116     1.0000 0.64021  0.28123  0.27060  Biso   1.000  C
  C117     1.0000 0.96877  0.77060  0.10979  Biso   1.000  C
  C118     1.0000 0.28123  0.97940  0.60979  Biso   1.000  C
  C119     1.0000 0.77060  0.14021  0.28123  Biso   1.000  C
  C120     1.0000 0.47940  0.60979  0.78123  Biso   1.000  C
  C121     1.0000 0.53123  0.35979  0.02060  Biso   1.000  C
  C122     1.0000 0.03123  0.89021  0.72940  Biso   1.000  C
  C123     1.0000 0.02060  0.03123  0.85979  Biso   1.000  C
  C124     1.0000 0.52060  0.21877  0.89021  Biso   1.000  C
  C125     1.0000 0.85979  0.52060  0.53123  Biso   1.000  C
  C126     1.0000 0.35979  0.72940  0.21877  Biso   1.000  C
  C127     1.0000 0.60979  0.28123  0.97940  Biso   1.000  C
  C128     1.0000 0.10979  0.96877  0.77060  Biso   1.000  C
  C129     1.0000 0.28123  0.77060  0.14021  Biso   1.000  C
  C130     1.0000 0.78123  0.47940  0.60979  Biso   1.000  C
  C131     1.0000 0.77060  0.60979  0.46877  Biso   1.000  C
  C132     1.0000 0.27060  0.64021  0.28123  Biso   1.000  C
  C133     1.0000 0.53123  0.85979  0.52060  Biso   1.000  C
  C134     1.0000 0.21877  0.35979  0.72940  Biso   1.000  C
  C135     1.0000 0.02060  0.53123  0.35979  Biso   1.000  C
  C136     1.0000 0.72940  0.03123  0.89021  Biso   1.000  C
  C137     1.0000 0.85979  0.02060  0.03123  Biso   1.000  C
  C138     1.0000 0.89021  0.52060  0.21877  Biso   1.000  C
  C139     1.0000 0.60979  0.78123  0.47940  Biso   1.000  C
  C140     1.0000 0.14021  0.28123  0.77060  Biso   1.000  C
  C141     1.0000 0.28123  0.27060  0.64021  Biso   1.000  C
  C142     1.0000 0.46877  0.77060  0.60979  Biso   1.000  C
  C143     1.0000 0.77060  0.10979  0.96877  Biso   1.000  C
  C144     1.0000 0.97940  0.60979  0.28123  Biso   1.000  C
  C145     1.0000 0.21877  0.39021  0.02060  Biso   1.000  C
  C146     1.0000 0.71877  0.85979  0.72940  Biso   1.000  C
  C147     1.0000 0.53123  0.89021  0.22940  Biso   1.000  C
  C148     1.0000 0.02060  0.21877  0.39021  Biso   1.000  C
  C149     1.0000 0.72940  0.71877  0.85979  Biso   1.000  C
  C150     1.0000 0.22940  0.53123  0.89021  Biso   1.000  C
  C151     1.0000 0.39021  0.02060  0.21877  Biso   1.000  C
  C152     1.0000 0.85979  0.72940  0.71877  Biso   1.000  C
  C153     1.0000 0.89021  0.22940  0.53123  Biso   1.000  C
  C154     1.0000 0.14021  0.46877  0.97940  Biso   1.000  C
  C155     1.0000 0.46877  0.97940  0.14021  Biso   1.000  C
  C156     1.0000 0.97940  0.14021  0.46877  Biso   1.000  C
  C157     1.0000 0.71877  0.35979  0.22940  Biso   1.000  C
  C158     1.0000 0.53123  0.39021  0.72940  Biso   1.000  C
  C159     1.0000 0.02060  0.71877  0.89021  Biso   1.000  C
  C160     1.0000 0.22940  0.03123  0.39021  Biso   1.000  C
  C161     1.0000 0.39021  0.52060  0.71877  Biso   1.000  C
  C162     1.0000 0.85979  0.22940  0.21877  Biso   1.000  C
  C163     1.0000 0.10979  0.78123  0.97940  Biso   1.000  C
  C164     1.0000 0.14021  0.96877  0.47940  Biso   1.000  C
  C165     1.0000 0.78123  0.27060  0.14021  Biso   1.000  C
  C166     1.0000 0.46877  0.47940  0.64021  Biso   1.000  C
  C167     1.0000 0.27060  0.10979  0.46877  Biso   1.000  C
  C168     1.0000 0.97940  0.64021  0.96877  Biso   1.000  C
  C169     1.0000 0.71877  0.39021  0.52060  Biso   1.000  C
  C170     1.0000 0.21877  0.85979  0.22940  Biso   1.000  C
  C171     1.0000 0.22940  0.71877  0.35979  Biso   1.000  C
  C172     1.0000 0.72940  0.53123  0.39021  Biso   1.000  C
  C173     1.0000 0.89021  0.02060  0.71877  Biso   1.000  C
  C174     1.0000 0.39021  0.22940  0.03123  Biso   1.000  C
  C175     1.0000 0.64021  0.46877  0.47940  Biso   1.000  C
  C176     1.0000 0.14021  0.78123  0.27060  Biso   1.000  C
  C177     1.0000 0.46877  0.27060  0.10979  Biso   1.000  C
  C178     1.0000 0.96877  0.97940  0.64021  Biso   1.000  C
  C179     1.0000 0.97940  0.10979  0.78123  Biso   1.000  C
  C180     1.0000 0.47940  0.14021  0.96877  Biso   1.000  C
  C181     1.0000 0.71877  0.89021  0.02060  Biso   1.000  C
  C182     1.0000 0.03123  0.39021  0.22940  Biso   1.000  C
  C183     1.0000 0.52060  0.71877  0.39021  Biso   1.000  C
  C184     1.0000 0.22940  0.21877  0.85979  Biso   1.000  C
  C185     1.0000 0.35979  0.22940  0.71877  Biso   1.000  C
  C186     1.0000 0.39021  0.72940  0.53123  Biso   1.000  C
  C187     1.0000 0.64021  0.96877  0.97940  Biso   1.000  C
  C188     1.0000 0.10979  0.46877  0.27060  Biso   1.000  C
  C189     1.0000 0.96877  0.47940  0.14021  Biso   1.000  C
  C190     1.0000 0.78123  0.97940  0.10979  Biso   1.000  C
  C191     1.0000 0.27060  0.14021  0.78123  Biso   1.000  C
  C192     1.0000 0.47940  0.64021  0.46877  Biso   1.000  C
  H449     1.0000 0.97760  0.65430  0.45220  Biso   1.000  H
  H450     1.0000 0.45220  0.97760  0.65430  Biso   1.000  H
  H451     1.0000 0.65430  0.45220  0.97760  Biso   1.000  H
  H452     1.0000 0.40430  0.22760  0.54780  Biso   1.000  H
  H453     1.0000 0.90430  0.02240  0.20220  Biso   1.000  H
  H454     1.0000 0.34570  0.72760  0.70220  Biso   1.000  H
  H455     1.0000 0.72760  0.70220  0.34570  Biso   1.000  H
  H456     1.0000 0.02240  0.20220  0.90430  Biso   1.000  H
  H457     1.0000 0.22760  0.54780  0.40430  Biso   1.000  H
  H458     1.0000 0.20220  0.90430  0.02240  Biso   1.000  H
  H459     1.0000 0.70220  0.34570  0.72760  Biso   1.000  H
  H460     1.0000 0.54780  0.40430  0.22760  Biso   1.000  H
  H461     1.0000 0.97760  0.15430  0.95220  Biso   1.000  H
  H462     1.0000 0.27240  0.59570  0.45220  Biso   1.000  H
  H463     1.0000 0.45220  0.47760  0.15430  Biso   1.000  H
  H464     1.0000 0.79780  0.27240  0.65430  Biso   1.000  H
  H465     1.0000 0.65430  0.95220  0.47760  Biso   1.000  H
  H466     1.0000 0.59570  0.79780  0.97760  Biso   1.000  H
  H467     1.0000 0.90430  0.52240  0.70220  Biso   1.000  H
  H468     1.0000 0.34570  0.22760  0.20220  Biso   1.000  H
  H469     1.0000 0.02240  0.70220  0.40430  Biso   1.000  H
  H470     1.0000 0.22760  0.04780  0.90430  Biso   1.000  H
  H471     1.0000 0.70220  0.84570  0.22760  Biso   1.000  H
  H472     1.0000 0.54780  0.90430  0.72760  Biso   1.000  H
  H473     1.0000 0.47760  0.65430  0.95220  Biso   1.000  H
  H474     1.0000 0.97760  0.59570  0.79780  Biso   1.000  H
  H475     1.0000 0.95220  0.97760  0.15430  Biso   1.000  H
  H476     1.0000 0.45220  0.27240  0.59570  Biso   1.000  H
  H477     1.0000 0.15430  0.45220  0.47760  Biso   1.000  H
  H478     1.0000 0.65430  0.79780  0.27240  Biso   1.000  H
  H479     1.0000 0.90430  0.22760  0.04780  Biso   1.000  H
  H480     1.0000 0.40430  0.02240  0.70220  Biso   1.000  H
  H481     1.0000 0.22760  0.70220  0.84570  Biso   1.000  H
  H482     1.0000 0.72760  0.54780  0.90430  Biso   1.000  H
  H483     1.0000 0.70220  0.90430  0.52240  Biso   1.000  H
  H484     1.0000 0.20220  0.34570  0.22760  Biso   1.000  H
  H485     1.0000 0.47760  0.15430  0.45220  Biso   1.000  H
  H486     1.0000 0.27240  0.65430  0.79780  Biso   1.000  H
  H487     1.0000 0.95220  0.47760  0.65430  Biso   1.000  H
  H488     1.0000 0.79780  0.97760  0.59570  Biso   1.000  H
  H489     1.0000 0.15430  0.95220  0.97760  Biso   1.000  H
  H490     1.0000 0.59570  0.45220  0.27240  Biso   1.000  H
  H491     1.0000 0.90430  0.72760  0.54780  Biso   1.000  H
  H492     1.0000 0.84570  0.22760  0.70220  Biso   1.000  H
  H493     1.0000 0.22760  0.20220  0.34570  Biso   1.000  H
  H494     1.0000 0.52240  0.70220  0.90430  Biso   1.000  H
  H495     1.0000 0.70220  0.40430  0.02240  Biso   1.000  H
  H496     1.0000 0.04780  0.90430  0.22760  Biso   1.000  H
  H497     1.0000 0.27240  0.09570  0.95220  Biso   1.000  H
  H498     1.0000 0.77240  0.15430  0.79780  Biso   1.000  H
  H499     1.0000 0.47760  0.59570  0.29780  Biso   1.000  H
  H500     1.0000 0.95220  0.27240  0.09570  Biso   1.000  H
  H501     1.0000 0.79780  0.77240  0.15430  Biso   1.000  H
  H502     1.0000 0.29780  0.47760  0.59570  Biso   1.000  H
  H503     1.0000 0.09570  0.95220  0.27240  Biso   1.000  H
  H504     1.0000 0.15430  0.79780  0.77240  Biso   1.000  H
  H505     1.0000 0.59570  0.29780  0.47760  Biso   1.000  H
  H506     1.0000 0.84570  0.52240  0.04780  Biso   1.000  H
  H507     1.0000 0.52240  0.04780  0.84570  Biso   1.000  H
  H508     1.0000 0.04780  0.84570  0.52240  Biso   1.000  H
  H509     1.0000 0.77240  0.65430  0.29780  Biso   1.000  H
  H510     1.0000 0.47760  0.09570  0.79780  Biso   1.000  H
  H511     1.0000 0.95220  0.77240  0.59570  Biso   1.000  H
  H512     1.0000 0.29780  0.97760  0.09570  Biso   1.000  H
  H513     1.0000 0.09570  0.45220  0.77240  Biso   1.000  H
  H514     1.0000 0.15430  0.29780  0.27240  Biso   1.000  H
  H515     1.0000 0.40430  0.72760  0.04780  Biso   1.000  H
  H516     1.0000 0.84570  0.02240  0.54780  Biso   1.000  H
  H517     1.0000 0.72760  0.20220  0.84570  Biso   1.000  H
  H518     1.0000 0.52240  0.54780  0.34570  Biso   1.000  H
  H519     1.0000 0.20220  0.40430  0.52240  Biso   1.000  H
  H520     1.0000 0.04780  0.34570  0.02240  Biso   1.000  H
  H521     1.0000 0.77240  0.09570  0.45220  Biso   1.000  H
  H522     1.0000 0.27240  0.15430  0.29780  Biso   1.000  H
  H523     1.0000 0.29780  0.77240  0.65430  Biso   1.000  H
  H524     1.0000 0.79780  0.47760  0.09570  Biso   1.000  H
  H525     1.0000 0.59570  0.95220  0.77240  Biso   1.000  H
  H526     1.0000 0.09570  0.29780  0.97760  Biso   1.000  H
  H527     1.0000 0.34570  0.52240  0.54780  Biso   1.000  H
  H528     1.0000 0.84570  0.72760  0.20220  Biso   1.000  H
  H529     1.0000 0.52240  0.20220  0.40430  Biso   1.000  H
  H530     1.0000 0.02240  0.04780  0.34570  Biso   1.000  H
  H531     1.0000 0.04780  0.40430  0.72760  Biso   1.000  H
  H532     1.0000 0.54780  0.84570  0.02240  Biso   1.000  H
  H533     1.0000 0.77240  0.59570  0.95220  Biso   1.000  H
  H534     1.0000 0.97760  0.09570  0.29780  Biso   1.000  H
  H535     1.0000 0.45220  0.77240  0.09570  Biso   1.000  H
  H536     1.0000 0.29780  0.27240  0.15430  Biso   1.000  H
  H537     1.0000 0.65430  0.29780  0.77240  Biso   1.000  H
  H538     1.0000 0.09570  0.79780  0.47760  Biso   1.000  H
  H539     1.0000 0.34570  0.02240  0.04780  Biso   1.000  H
  H540     1.0000 0.40430  0.52240  0.20220  Biso   1.000  H
  H541     1.0000 0.02240  0.54780  0.84570  Biso   1.000  H
  H542     1.0000 0.72760  0.04780  0.40430  Biso   1.000  H
  H543     1.0000 0.20220  0.84570  0.72760  Biso   1.000  H
  H544     1.0000 0.54780  0.34570  0.52240  Biso   1.000  H
  H545     1.0000 0.02240  0.34570  0.54780  Biso   1.000  H
  H546     1.0000 0.54780  0.02240  0.34570  Biso   1.000  H
  H547     1.0000 0.34570  0.54780  0.02240  Biso   1.000  H
  H548     1.0000 0.09570  0.27240  0.45220  Biso   1.000  H
  H549     1.0000 0.59570  0.97760  0.29780  Biso   1.000  H
  H550     1.0000 0.65430  0.77240  0.79780  Biso   1.000  H
  H551     1.0000 0.77240  0.79780  0.65430  Biso   1.000  H
  H552     1.0000 0.97760  0.29780  0.59570  Biso   1.000  H
  H553     1.0000 0.27240  0.45220  0.09570  Biso   1.000  H
  H554     1.0000 0.29780  0.59570  0.97760  Biso   1.000  H
  H555     1.0000 0.79780  0.65430  0.77240  Biso   1.000  H
  H556     1.0000 0.45220  0.09570  0.27240  Biso   1.000  H
  H557     1.0000 0.02240  0.84570  0.04780  Biso   1.000  H
  H558     1.0000 0.22760  0.90430  0.54780  Biso   1.000  H
  H559     1.0000 0.54780  0.52240  0.84570  Biso   1.000  H
  H560     1.0000 0.70220  0.22760  0.34570  Biso   1.000  H
  H561     1.0000 0.34570  0.04780  0.52240  Biso   1.000  H
  H562     1.0000 0.90430  0.70220  0.02240  Biso   1.000  H
  H563     1.0000 0.59570  0.47760  0.79780  Biso   1.000  H
  H564     1.0000 0.65430  0.27240  0.29780  Biso   1.000  H
  H565     1.0000 0.97760  0.79780  0.09570  Biso   1.000  H
  H566     1.0000 0.27240  0.95220  0.59570  Biso   1.000  H
  H567     1.0000 0.79780  0.15430  0.27240  Biso   1.000  H
  H568     1.0000 0.45220  0.59570  0.77240  Biso   1.000  H
  H569     1.0000 0.52240  0.34570  0.04780  Biso   1.000  H
  H570     1.0000 0.02240  0.90430  0.70220  Biso   1.000  H
  H571     1.0000 0.04780  0.02240  0.84570  Biso   1.000  H
  H572     1.0000 0.54780  0.22760  0.90430  Biso   1.000  H
  H573     1.0000 0.84570  0.54780  0.52240  Biso   1.000  H
  H574     1.0000 0.34570  0.70220  0.22760  Biso   1.000  H
  H575     1.0000 0.59570  0.27240  0.95220  Biso   1.000  H
  H576     1.0000 0.09570  0.97760  0.79780  Biso   1.000  H
  H577     1.0000 0.27240  0.79780  0.15430  Biso   1.000  H
  H578     1.0000 0.77240  0.45220  0.59570  Biso   1.000  H
  H579     1.0000 0.79780  0.59570  0.47760  Biso   1.000  H
  H580     1.0000 0.29780  0.65430  0.27240  Biso   1.000  H
  H581     1.0000 0.52240  0.84570  0.54780  Biso   1.000  H
  H582     1.0000 0.22760  0.34570  0.70220  Biso   1.000  H
  H583     1.0000 0.04780  0.52240  0.34570  Biso   1.000  H
  H584     1.0000 0.70220  0.02240  0.90430  Biso   1.000  H
  H585     1.0000 0.84570  0.04780  0.02240  Biso   1.000  H
  H586     1.0000 0.90430  0.54780  0.22760  Biso   1.000  H
  H587     1.0000 0.59570  0.77240  0.45220  Biso   1.000  H
  H588     1.0000 0.15430  0.27240  0.79780  Biso   1.000  H
  H589     1.0000 0.27240  0.29780  0.65430  Biso   1.000  H
  H590     1.0000 0.47760  0.79780  0.59570  Biso   1.000  H
  H591     1.0000 0.79780  0.09570  0.97760  Biso   1.000  H
  H592     1.0000 0.95220  0.59570  0.27240  Biso   1.000  H
  H593     1.0000 0.22760  0.40430  0.04780  Biso   1.000  H
  H594     1.0000 0.72760  0.84570  0.70220  Biso   1.000  H
  H595     1.0000 0.52240  0.90430  0.20220  Biso   1.000  H
  H596     1.0000 0.04780  0.22760  0.40430  Biso   1.000  H
  H597     1.0000 0.70220  0.72760  0.84570  Biso   1.000  H
  H598     1.0000 0.20220  0.52240  0.90430  Biso   1.000  H
  H599     1.0000 0.40430  0.04780  0.22760  Biso   1.000  H
  H600     1.0000 0.84570  0.70220  0.72760  Biso   1.000  H
  H601     1.0000 0.90430  0.20220  0.52240  Biso   1.000  H
  H602     1.0000 0.15430  0.47760  0.95220  Biso   1.000  H
  H603     1.0000 0.47760  0.95220  0.15430  Biso   1.000  H
  H604     1.0000 0.95220  0.15430  0.47760  Biso   1.000  H
  H605     1.0000 0.72760  0.34570  0.20220  Biso   1.000  H
  H606     1.0000 0.52240  0.40430  0.70220  Biso   1.000  H
  H607     1.0000 0.04780  0.72760  0.90430  Biso   1.000  H
  H608     1.0000 0.20220  0.02240  0.40430  Biso   1.000  H
  H609     1.0000 0.40430  0.54780  0.72760  Biso   1.000  H
  H610     1.0000 0.84570  0.20220  0.22760  Biso   1.000  H
  H611     1.0000 0.09570  0.77240  0.95220  Biso   1.000  H
  H612     1.0000 0.15430  0.97760  0.45220  Biso   1.000  H
  H613     1.0000 0.77240  0.29780  0.15430  Biso   1.000  H
  H614     1.0000 0.47760  0.45220  0.65430  Biso   1.000  H
  H615     1.0000 0.29780  0.09570  0.47760  Biso   1.000  H
  H616     1.0000 0.95220  0.65430  0.97760  Biso   1.000  H
  H617     1.0000 0.72760  0.40430  0.54780  Biso   1.000  H
  H618     1.0000 0.22760  0.84570  0.20220  Biso   1.000  H
  H619     1.0000 0.20220  0.72760  0.34570  Biso   1.000  H
  H620     1.0000 0.70220  0.52240  0.40430  Biso   1.000  H
  H621     1.0000 0.90430  0.04780  0.72760  Biso   1.000  H
  H622     1.0000 0.40430  0.20220  0.02240  Biso   1.000  H
  H623     1.0000 0.65430  0.47760  0.45220  Biso   1.000  H
  H624     1.0000 0.15430  0.77240  0.29780  Biso   1.000  H
  H625     1.0000 0.47760  0.29780  0.09570  Biso   1.000  H
  H626     1.0000 0.97760  0.95220  0.65430  Biso   1.000  H
  H627     1.0000 0.95220  0.09570  0.77240  Biso   1.000  H
  H628     1.0000 0.45220  0.15430  0.97760  Biso   1.000  H
  H629     1.0000 0.72760  0.90430  0.04780  Biso   1.000  H
  H630     1.0000 0.02240  0.40430  0.20220  Biso   1.000  H
  H631     1.0000 0.54780  0.72760  0.40430  Biso   1.000  H
  H632     1.0000 0.20220  0.22760  0.84570  Biso   1.000  H
  H633     1.0000 0.34570  0.20220  0.72760  Biso   1.000  H
  H634     1.0000 0.40430  0.70220  0.52240  Biso   1.000  H
  H635     1.0000 0.65430  0.97760  0.95220  Biso   1.000  H
  H636     1.0000 0.09570  0.47760  0.29780  Biso   1.000  H
  H637     1.0000 0.97760  0.45220  0.15430  Biso   1.000  H
  H638     1.0000 0.77240  0.95220  0.09570  Biso   1.000  H
  H639     1.0000 0.29780  0.15430  0.77240  Biso   1.000  H
  H640     1.0000 0.45220  0.65430  0.47760  Biso   1.000  H
  C193     1.0000 0.12410  0.54077  0.43268  Biso   1.000  C
  C194     1.0000 0.43268  0.12410  0.54077  Biso   1.000  C
  C195     1.0000 0.54077  0.43268  0.12410  Biso   1.000  C
  C196     1.0000 0.29077  0.37410  0.56732  Biso   1.000  C
  C197     1.0000 0.79077  0.87590  0.18268  Biso   1.000  C
  C198     1.0000 0.45923  0.87410  0.68268  Biso   1.000  C
  C199     1.0000 0.87410  0.68268  0.45923  Biso   1.000  C
  C200     1.0000 0.87590  0.18268  0.79077  Biso   1.000  C
  C201     1.0000 0.37410  0.56732  0.29077  Biso   1.000  C
  C202     1.0000 0.18268  0.79077  0.87590  Biso   1.000  C
  C203     1.0000 0.68268  0.45923  0.87410  Biso   1.000  C
  C204     1.0000 0.56732  0.29077  0.37410  Biso   1.000  C
  C205     1.0000 0.12410  0.04077  0.93268  Biso   1.000  C
  C206     1.0000 0.12590  0.70923  0.43268  Biso   1.000  C
  C207     1.0000 0.43268  0.62410  0.04077  Biso   1.000  C
  C208     1.0000 0.81732  0.12590  0.54077  Biso   1.000  C
  C209     1.0000 0.54077  0.93268  0.62410  Biso   1.000  C
  C210     1.0000 0.70923  0.81732  0.12410  Biso   1.000  C
  C211     1.0000 0.79077  0.37590  0.68268  Biso   1.000  C
  C212     1.0000 0.45923  0.37410  0.18268  Biso   1.000  C
  C213     1.0000 0.87590  0.68268  0.29077  Biso   1.000  C
  C214     1.0000 0.37410  0.06732  0.79077  Biso   1.000  C
  C215     1.0000 0.68268  0.95923  0.37410  Biso   1.000  C
  C216     1.0000 0.56732  0.79077  0.87410  Biso   1.000  C
  C217     1.0000 0.62410  0.54077  0.93268  Biso   1.000  C
  C218     1.0000 0.12410  0.70923  0.81732  Biso   1.000  C
  C219     1.0000 0.93268  0.12410  0.04077  Biso   1.000  C
  C220     1.0000 0.43268  0.12590  0.70923  Biso   1.000  C
  C221     1.0000 0.04077  0.43268  0.62410  Biso   1.000  C
  C222     1.0000 0.54077  0.81732  0.12590  Biso   1.000  C
  C223     1.0000 0.79077  0.37410  0.06732  Biso   1.000  C
  C224     1.0000 0.29077  0.87590  0.68268  Biso   1.000  C
  C225     1.0000 0.37410  0.68268  0.95923  Biso   1.000  C
  C226     1.0000 0.87410  0.56732  0.79077  Biso   1.000  C
  C227     1.0000 0.68268  0.79077  0.37590  Biso   1.000  C
  C228     1.0000 0.18268  0.45923  0.37410  Biso   1.000  C
  C229     1.0000 0.62410  0.04077  0.43268  Biso   1.000  C
  C230     1.0000 0.12590  0.54077  0.81732  Biso   1.000  C
  C231     1.0000 0.93268  0.62410  0.54077  Biso   1.000  C
  C232     1.0000 0.81732  0.12410  0.70923  Biso   1.000  C
  C233     1.0000 0.04077  0.93268  0.12410  Biso   1.000  C
  C234     1.0000 0.70923  0.43268  0.12590  Biso   1.000  C
  C235     1.0000 0.79077  0.87410  0.56732  Biso   1.000  C
  C236     1.0000 0.95923  0.37410  0.68268  Biso   1.000  C
  C237     1.0000 0.37410  0.18268  0.45923  Biso   1.000  C
  C238     1.0000 0.37590  0.68268  0.79077  Biso   1.000  C
  C239     1.0000 0.68268  0.29077  0.87590  Biso   1.000  C
  C240     1.0000 0.06732  0.79077  0.37410  Biso   1.000  C
  C241     1.0000 0.12590  0.20923  0.93268  Biso   1.000  C
  C242     1.0000 0.62590  0.04077  0.81732  Biso   1.000  C
  C243     1.0000 0.62410  0.70923  0.31732  Biso   1.000  C
  C244     1.0000 0.93268  0.12590  0.20923  Biso   1.000  C
  C245     1.0000 0.81732  0.62590  0.04077  Biso   1.000  C
  C246     1.0000 0.31732  0.62410  0.70923  Biso   1.000  C
  C247     1.0000 0.20923  0.93268  0.12590  Biso   1.000  C
  C248     1.0000 0.04077  0.81732  0.62590  Biso   1.000  C
  C249     1.0000 0.70923  0.31732  0.62410  Biso   1.000  C
  C250     1.0000 0.95923  0.37590  0.06732  Biso   1.000  C
  C251     1.0000 0.37590  0.06732  0.95923  Biso   1.000  C
  C252     1.0000 0.06732  0.95923  0.37590  Biso   1.000  C
  C253     1.0000 0.62590  0.54077  0.31732  Biso   1.000  C
  C254     1.0000 0.62410  0.20923  0.81732  Biso   1.000  C
  C255     1.0000 0.93268  0.62590  0.70923  Biso   1.000  C
  C256     1.0000 0.31732  0.12410  0.20923  Biso   1.000  C
  C257     1.0000 0.20923  0.43268  0.62590  Biso   1.000  C
  C258     1.0000 0.04077  0.31732  0.12590  Biso   1.000  C
  C259     1.0000 0.29077  0.87410  0.06732  Biso   1.000  C
  C260     1.0000 0.95923  0.87590  0.56732  Biso   1.000  C
  C261     1.0000 0.87410  0.18268  0.95923  Biso   1.000  C
  C262     1.0000 0.37590  0.56732  0.45923  Biso   1.000  C
  C263     1.0000 0.18268  0.29077  0.37590  Biso   1.000  C
  C264     1.0000 0.06732  0.45923  0.87590  Biso   1.000  C
  C265     1.0000 0.62590  0.20923  0.43268  Biso   1.000  C
  C266     1.0000 0.12590  0.04077  0.31732  Biso   1.000  C
  C267     1.0000 0.31732  0.62590  0.54077  Biso   1.000  C
  C268     1.0000 0.81732  0.62410  0.20923  Biso   1.000  C
  C269     1.0000 0.70923  0.93268  0.62590  Biso   1.000  C
  C270     1.0000 0.20923  0.31732  0.12410  Biso   1.000  C
  C271     1.0000 0.45923  0.37590  0.56732  Biso   1.000  C
  C272     1.0000 0.95923  0.87410  0.18268  Biso   1.000  C
  C273     1.0000 0.37590  0.18268  0.29077  Biso   1.000  C
  C274     1.0000 0.87590  0.06732  0.45923  Biso   1.000  C
  C275     1.0000 0.06732  0.29077  0.87410  Biso   1.000  C
  C276     1.0000 0.56732  0.95923  0.87590  Biso   1.000  C
  C277     1.0000 0.62590  0.70923  0.93268  Biso   1.000  C
  C278     1.0000 0.12410  0.20923  0.31732  Biso   1.000  C
  C279     1.0000 0.43268  0.62590  0.20923  Biso   1.000  C
  C280     1.0000 0.31732  0.12590  0.04077  Biso   1.000  C
  C281     1.0000 0.54077  0.31732  0.62590  Biso   1.000  C
  C282     1.0000 0.20923  0.81732  0.62410  Biso   1.000  C
  C283     1.0000 0.45923  0.87590  0.06732  Biso   1.000  C
  C284     1.0000 0.29077  0.37590  0.18268  Biso   1.000  C
  C285     1.0000 0.87590  0.56732  0.95923  Biso   1.000  C
  C286     1.0000 0.87410  0.06732  0.29077  Biso   1.000  C
  C287     1.0000 0.18268  0.95923  0.87410  Biso   1.000  C
  C288     1.0000 0.56732  0.45923  0.37590  Biso   1.000  C
  C289     1.0000 0.87590  0.45923  0.56732  Biso   1.000  C
  C290     1.0000 0.56732  0.87590  0.45923  Biso   1.000  C
  C291     1.0000 0.45923  0.56732  0.87590  Biso   1.000  C
  C292     1.0000 0.20923  0.12590  0.43268  Biso   1.000  C
  C293     1.0000 0.70923  0.12410  0.31732  Biso   1.000  C
  C294     1.0000 0.54077  0.62590  0.81732  Biso   1.000  C
  C295     1.0000 0.62590  0.81732  0.54077  Biso   1.000  C
  C296     1.0000 0.12410  0.31732  0.70923  Biso   1.000  C
  C297     1.0000 0.12590  0.43268  0.20923  Biso   1.000  C
  C298     1.0000 0.31732  0.70923  0.12410  Biso   1.000  C
  C299     1.0000 0.81732  0.54077  0.62590  Biso   1.000  C
  C300     1.0000 0.43268  0.20923  0.12590  Biso   1.000  C
  C301     1.0000 0.87590  0.95923  0.06732  Biso   1.000  C
  C302     1.0000 0.37410  0.79077  0.56732  Biso   1.000  C
  C303     1.0000 0.56732  0.37590  0.95923  Biso   1.000  C
  C304     1.0000 0.68268  0.37410  0.45923  Biso   1.000  C
  C305     1.0000 0.45923  0.06732  0.37590  Biso   1.000  C
  C306     1.0000 0.79077  0.68268  0.87590  Biso   1.000  C
  C307     1.0000 0.70923  0.62410  0.81732  Biso   1.000  C
  C308     1.0000 0.54077  0.12590  0.31732  Biso   1.000  C
  C309     1.0000 0.12410  0.81732  0.20923  Biso   1.000  C
  C310     1.0000 0.12590  0.93268  0.70923  Biso   1.000  C
  C311     1.0000 0.81732  0.04077  0.12590  Biso   1.000  C
  C312     1.0000 0.43268  0.70923  0.62590  Biso   1.000  C
  C313     1.0000 0.37590  0.45923  0.06732  Biso   1.000  C
  C314     1.0000 0.87590  0.79077  0.68268  Biso   1.000  C
  C315     1.0000 0.06732  0.87590  0.95923  Biso   1.000  C
  C316     1.0000 0.56732  0.37410  0.79077  Biso   1.000  C
  C317     1.0000 0.95923  0.56732  0.37590  Biso   1.000  C
  C318     1.0000 0.45923  0.68268  0.37410  Biso   1.000  C
  C319     1.0000 0.70923  0.12590  0.93268  Biso   1.000  C
  C320     1.0000 0.20923  0.12410  0.81732  Biso   1.000  C
  C321     1.0000 0.12590  0.81732  0.04077  Biso   1.000  C
  C322     1.0000 0.62590  0.43268  0.70923  Biso   1.000  C
  C323     1.0000 0.81732  0.70923  0.62410  Biso   1.000  C
  C324     1.0000 0.31732  0.54077  0.12590  Biso   1.000  C
  C325     1.0000 0.37590  0.95923  0.56732  Biso   1.000  C
  C326     1.0000 0.37410  0.45923  0.68268  Biso   1.000  C
  C327     1.0000 0.06732  0.37590  0.45923  Biso   1.000  C
  C328     1.0000 0.68268  0.87590  0.79077  Biso   1.000  C
  C329     1.0000 0.95923  0.06732  0.87590  Biso   1.000  C
  C330     1.0000 0.79077  0.56732  0.37410  Biso   1.000  C
  C331     1.0000 0.70923  0.62590  0.43268  Biso   1.000  C
  C332     1.0000 0.04077  0.12590  0.81732  Biso   1.000  C
  C333     1.0000 0.12590  0.31732  0.54077  Biso   1.000  C
  C334     1.0000 0.62410  0.81732  0.70923  Biso   1.000  C
  C335     1.0000 0.81732  0.20923  0.12410  Biso   1.000  C
  C336     1.0000 0.93268  0.70923  0.12590  Biso   1.000  C
  C337     1.0000 0.37410  0.29077  0.06732  Biso   1.000  C
  C338     1.0000 0.87410  0.95923  0.68268  Biso   1.000  C
  C339     1.0000 0.37590  0.79077  0.18268  Biso   1.000  C
  C340     1.0000 0.06732  0.37410  0.29077  Biso   1.000  C
  C341     1.0000 0.68268  0.87410  0.95923  Biso   1.000  C
  C342     1.0000 0.18268  0.37590  0.79077  Biso   1.000  C
  C343     1.0000 0.29077  0.06732  0.37410  Biso   1.000  C
  C344     1.0000 0.95923  0.68268  0.87410  Biso   1.000  C
  C345     1.0000 0.79077  0.18268  0.37590  Biso   1.000  C
  C346     1.0000 0.04077  0.62410  0.93268  Biso   1.000  C
  C347     1.0000 0.62410  0.93268  0.04077  Biso   1.000  C
  C348     1.0000 0.93268  0.04077  0.62410  Biso   1.000  C
  C349     1.0000 0.87410  0.45923  0.18268  Biso   1.000  C
  C350     1.0000 0.37590  0.29077  0.68268  Biso   1.000  C
  C351     1.0000 0.06732  0.87410  0.79077  Biso   1.000  C
  C352     1.0000 0.18268  0.87590  0.29077  Biso   1.000  C
  C353     1.0000 0.29077  0.56732  0.87410  Biso   1.000  C
  C354     1.0000 0.95923  0.18268  0.37410  Biso   1.000  C
  C355     1.0000 0.20923  0.62590  0.93268  Biso   1.000  C
  C356     1.0000 0.04077  0.12410  0.43268  Biso   1.000  C
  C357     1.0000 0.62590  0.31732  0.04077  Biso   1.000  C
  C358     1.0000 0.62410  0.43268  0.54077  Biso   1.000  C
  C359     1.0000 0.31732  0.20923  0.62410  Biso   1.000  C
  C360     1.0000 0.93268  0.54077  0.12410  Biso   1.000  C
  C361     1.0000 0.87410  0.29077  0.56732  Biso   1.000  C
  C362     1.0000 0.37410  0.95923  0.18268  Biso   1.000  C
  C363     1.0000 0.18268  0.87410  0.45923  Biso   1.000  C
  C364     1.0000 0.68268  0.37590  0.29077  Biso   1.000  C
  C365     1.0000 0.79077  0.06732  0.87410  Biso   1.000  C
  C366     1.0000 0.29077  0.18268  0.87590  Biso   1.000  C
  C367     1.0000 0.54077  0.62410  0.43268  Biso   1.000  C
  C368     1.0000 0.04077  0.62590  0.31732  Biso   1.000  C
  C369     1.0000 0.62410  0.31732  0.20923  Biso   1.000  C
  C370     1.0000 0.12410  0.93268  0.54077  Biso   1.000  C
  C371     1.0000 0.93268  0.20923  0.62590  Biso   1.000  C
  C372     1.0000 0.43268  0.04077  0.12410  Biso   1.000  C
  C373     1.0000 0.87410  0.79077  0.06732  Biso   1.000  C
  C374     1.0000 0.87590  0.29077  0.18268  Biso   1.000  C
  C375     1.0000 0.56732  0.87410  0.29077  Biso   1.000  C
  C376     1.0000 0.18268  0.37410  0.95923  Biso   1.000  C
  C377     1.0000 0.45923  0.18268  0.87410  Biso   1.000  C
  C378     1.0000 0.29077  0.68268  0.37590  Biso   1.000  C
  C379     1.0000 0.54077  0.12410  0.93268  Biso   1.000  C
  C380     1.0000 0.20923  0.62410  0.31732  Biso   1.000  C
  C381     1.0000 0.12410  0.43268  0.04077  Biso   1.000  C
  C382     1.0000 0.62590  0.93268  0.20923  Biso   1.000  C
  C383     1.0000 0.31732  0.04077  0.62590  Biso   1.000  C
  C384     1.0000 0.43268  0.54077  0.62410  Biso   1.000  C
  H641     1.0000 0.12450  0.56440  0.41130  Biso   1.000  H
  H642     1.0000 0.41130  0.12450  0.56440  Biso   1.000  H
  H643     1.0000 0.56440  0.41130  0.12450  Biso   1.000  H
  H644     1.0000 0.31440  0.37450  0.58870  Biso   1.000  H
  H645     1.0000 0.81440  0.87550  0.16130  Biso   1.000  H
  H646     1.0000 0.43560  0.87450  0.66130  Biso   1.000  H
  H647     1.0000 0.87450  0.66130  0.43560  Biso   1.000  H
  H648     1.0000 0.87550  0.16130  0.81440  Biso   1.000  H
  H649     1.0000 0.37450  0.58870  0.31440  Biso   1.000  H
  H650     1.0000 0.16130  0.81440  0.87550  Biso   1.000  H
  H651     1.0000 0.66130  0.43560  0.87450  Biso   1.000  H
  H652     1.0000 0.58870  0.31440  0.37450  Biso   1.000  H
  H653     1.0000 0.12450  0.06440  0.91130  Biso   1.000  H
  H654     1.0000 0.12550  0.68560  0.41130  Biso   1.000  H
  H655     1.0000 0.41130  0.62450  0.06440  Biso   1.000  H
  H656     1.0000 0.83870  0.12550  0.56440  Biso   1.000  H
  H657     1.0000 0.56440  0.91130  0.62450  Biso   1.000  H
  H658     1.0000 0.68560  0.83870  0.12450  Biso   1.000  H
  H659     1.0000 0.81440  0.37550  0.66130  Biso   1.000  H
  H660     1.0000 0.43560  0.37450  0.16130  Biso   1.000  H
  H661     1.0000 0.87550  0.66130  0.31440  Biso   1.000  H
  H662     1.0000 0.37450  0.08870  0.81440  Biso   1.000  H
  H663     1.0000 0.66130  0.93560  0.37450  Biso   1.000  H
  H664     1.0000 0.58870  0.81440  0.87450  Biso   1.000  H
  H665     1.0000 0.62450  0.56440  0.91130  Biso   1.000  H
  H666     1.0000 0.12450  0.68560  0.83870  Biso   1.000  H
  H667     1.0000 0.91130  0.12450  0.06440  Biso   1.000  H
  H668     1.0000 0.41130  0.12550  0.68560  Biso   1.000  H
  H669     1.0000 0.06440  0.41130  0.62450  Biso   1.000  H
  H670     1.0000 0.56440  0.83870  0.12550  Biso   1.000  H
  H671     1.0000 0.81440  0.37450  0.08870  Biso   1.000  H
  H672     1.0000 0.31440  0.87550  0.66130  Biso   1.000  H
  H673     1.0000 0.37450  0.66130  0.93560  Biso   1.000  H
  H674     1.0000 0.87450  0.58870  0.81440  Biso   1.000  H
  H675     1.0000 0.66130  0.81440  0.37550  Biso   1.000  H
  H676     1.0000 0.16130  0.43560  0.37450  Biso   1.000  H
  H677     1.0000 0.62450  0.06440  0.41130  Biso   1.000  H
  H678     1.0000 0.12550  0.56440  0.83870  Biso   1.000  H
  H679     1.0000 0.91130  0.62450  0.56440  Biso   1.000  H
  H680     1.0000 0.83870  0.12450  0.68560  Biso   1.000  H
  H681     1.0000 0.06440  0.91130  0.12450  Biso   1.000  H
  H682     1.0000 0.68560  0.41130  0.12550  Biso   1.000  H
  H683     1.0000 0.81440  0.87450  0.58870  Biso   1.000  H
  H684     1.0000 0.93560  0.37450  0.66130  Biso   1.000  H
  H685     1.0000 0.37450  0.16130  0.43560  Biso   1.000  H
  H686     1.0000 0.37550  0.66130  0.81440  Biso   1.000  H
  H687     1.0000 0.66130  0.31440  0.87550  Biso   1.000  H
  H688     1.0000 0.08870  0.81440  0.37450  Biso   1.000  H
  H689     1.0000 0.12550  0.18560  0.91130  Biso   1.000  H
  H690     1.0000 0.62550  0.06440  0.83870  Biso   1.000  H
  H691     1.0000 0.62450  0.68560  0.33870  Biso   1.000  H
  H692     1.0000 0.91130  0.12550  0.18560  Biso   1.000  H
  H693     1.0000 0.83870  0.62550  0.06440  Biso   1.000  H
  H694     1.0000 0.33870  0.62450  0.68560  Biso   1.000  H
  H695     1.0000 0.18560  0.91130  0.12550  Biso   1.000  H
  H696     1.0000 0.06440  0.83870  0.62550  Biso   1.000  H
  H697     1.0000 0.68560  0.33870  0.62450  Biso   1.000  H
  H698     1.0000 0.93560  0.37550  0.08870  Biso   1.000  H
  H699     1.0000 0.37550  0.08870  0.93560  Biso   1.000  H
  H700     1.0000 0.08870  0.93560  0.37550  Biso   1.000  H
  H701     1.0000 0.62550  0.56440  0.33870  Biso   1.000  H
  H702     1.0000 0.62450  0.18560  0.83870  Biso   1.000  H
  H703     1.0000 0.91130  0.62550  0.68560  Biso   1.000  H
  H704     1.0000 0.33870  0.12450  0.18560  Biso   1.000  H
  H705     1.0000 0.18560  0.41130  0.62550  Biso   1.000  H
  H706     1.0000 0.06440  0.33870  0.12550  Biso   1.000  H
  H707     1.0000 0.31440  0.87450  0.08870  Biso   1.000  H
  H708     1.0000 0.93560  0.87550  0.58870  Biso   1.000  H
  H709     1.0000 0.87450  0.16130  0.93560  Biso   1.000  H
  H710     1.0000 0.37550  0.58870  0.43560  Biso   1.000  H
  H711     1.0000 0.16130  0.31440  0.37550  Biso   1.000  H
  H712     1.0000 0.08870  0.43560  0.87550  Biso   1.000  H
  H713     1.0000 0.62550  0.18560  0.41130  Biso   1.000  H
  H714     1.0000 0.12550  0.06440  0.33870  Biso   1.000  H
  H715     1.0000 0.33870  0.62550  0.56440  Biso   1.000  H
  H716     1.0000 0.83870  0.62450  0.18560  Biso   1.000  H
  H717     1.0000 0.68560  0.91130  0.62550  Biso   1.000  H
  H718     1.0000 0.18560  0.33870  0.12450  Biso   1.000  H
  H719     1.0000 0.43560  0.37550  0.58870  Biso   1.000  H
  H720     1.0000 0.93560  0.87450  0.16130  Biso   1.000  H
  H721     1.0000 0.37550  0.16130  0.31440  Biso   1.000  H
  H722     1.0000 0.87550  0.08870  0.43560  Biso   1.000  H
  H723     1.0000 0.08870  0.31440  0.87450  Biso   1.000  H
  H724     1.0000 0.58870  0.93560  0.87550  Biso   1.000  H
  H725     1.0000 0.62550  0.68560  0.91130  Biso   1.000  H
  H726     1.0000 0.12450  0.18560  0.33870  Biso   1.000  H
  H727     1.0000 0.41130  0.62550  0.18560  Biso   1.000  H
  H728     1.0000 0.33870  0.12550  0.06440  Biso   1.000  H
  H729     1.0000 0.56440  0.33870  0.62550  Biso   1.000  H
  H730     1.0000 0.18560  0.83870  0.62450  Biso   1.000  H
  H731     1.0000 0.43560  0.87550  0.08870  Biso   1.000  H
  H732     1.0000 0.31440  0.37550  0.16130  Biso   1.000  H
  H733     1.0000 0.87550  0.58870  0.93560  Biso   1.000  H
  H734     1.0000 0.87450  0.08870  0.31440  Biso   1.000  H
  H735     1.0000 0.16130  0.93560  0.87450  Biso   1.000  H
  H736     1.0000 0.58870  0.43560  0.37550  Biso   1.000  H
  H737     1.0000 0.87550  0.43560  0.58870  Biso   1.000  H
  H738     1.0000 0.58870  0.87550  0.43560  Biso   1.000  H
  H739     1.0000 0.43560  0.58870  0.87550  Biso   1.000  H
  H740     1.0000 0.18560  0.12550  0.41130  Biso   1.000  H
  H741     1.0000 0.68560  0.12450  0.33870  Biso   1.000  H
  H742     1.0000 0.56440  0.62550  0.83870  Biso   1.000  H
  H743     1.0000 0.62550  0.83870  0.56440  Biso   1.000  H
  H744     1.0000 0.12450  0.33870  0.68560  Biso   1.000  H
  H745     1.0000 0.12550  0.41130  0.18560  Biso   1.000  H
  H746     1.0000 0.33870  0.68560  0.12450  Biso   1.000  H
  H747     1.0000 0.83870  0.56440  0.62550  Biso   1.000  H
  H748     1.0000 0.41130  0.18560  0.12550  Biso   1.000  H
  H749     1.0000 0.87550  0.93560  0.08870  Biso   1.000  H
  H750     1.0000 0.37450  0.81440  0.58870  Biso   1.000  H
  H751     1.0000 0.58870  0.37550  0.93560  Biso   1.000  H
  H752     1.0000 0.66130  0.37450  0.43560  Biso   1.000  H
  H753     1.0000 0.43560  0.08870  0.37550  Biso   1.000  H
  H754     1.0000 0.81440  0.66130  0.87550  Biso   1.000  H
  H755     1.0000 0.68560  0.62450  0.83870  Biso   1.000  H
  H756     1.0000 0.56440  0.12550  0.33870  Biso   1.000  H
  H757     1.0000 0.12450  0.83870  0.18560  Biso   1.000  H
  H758     1.0000 0.12550  0.91130  0.68560  Biso   1.000  H
  H759     1.0000 0.83870  0.06440  0.12550  Biso   1.000  H
  H760     1.0000 0.41130  0.68560  0.62550  Biso   1.000  H
  H761     1.0000 0.37550  0.43560  0.08870  Biso   1.000  H
  H762     1.0000 0.87550  0.81440  0.66130  Biso   1.000  H
  H763     1.0000 0.08870  0.87550  0.93560  Biso   1.000  H
  H764     1.0000 0.58870  0.37450  0.81440  Biso   1.000  H
  H765     1.0000 0.93560  0.58870  0.37550  Biso   1.000  H
  H766     1.0000 0.43560  0.66130  0.37450  Biso   1.000  H
  H767     1.0000 0.68560  0.12550  0.91130  Biso   1.000  H
  H768     1.0000 0.18560  0.12450  0.83870  Biso   1.000  H
  H769     1.0000 0.12550  0.83870  0.06440  Biso   1.000  H
  H770     1.0000 0.62550  0.41130  0.68560  Biso   1.000  H
  H771     1.0000 0.83870  0.68560  0.62450  Biso   1.000  H
  H772     1.0000 0.33870  0.56440  0.12550  Biso   1.000  H
  H773     1.0000 0.37550  0.93560  0.58870  Biso   1.000  H
  H774     1.0000 0.37450  0.43560  0.66130  Biso   1.000  H
  H775     1.0000 0.08870  0.37550  0.43560  Biso   1.000  H
  H776     1.0000 0.66130  0.87550  0.81440  Biso   1.000  H
  H777     1.0000 0.93560  0.08870  0.87550  Biso   1.000  H
  H778     1.0000 0.81440  0.58870  0.37450  Biso   1.000  H
  H779     1.0000 0.68560  0.62550  0.41130  Biso   1.000  H
  H780     1.0000 0.06440  0.12550  0.83870  Biso   1.000  H
  H781     1.0000 0.12550  0.33870  0.56440  Biso   1.000  H
  H782     1.0000 0.62450  0.83870  0.68560  Biso   1.000  H
  H783     1.0000 0.83870  0.18560  0.12450  Biso   1.000  H
  H784     1.0000 0.91130  0.68560  0.12550  Biso   1.000  H
  H785     1.0000 0.37450  0.31440  0.08870  Biso   1.000  H
  H786     1.0000 0.87450  0.93560  0.66130  Biso   1.000  H
  H787     1.0000 0.37550  0.81440  0.16130  Biso   1.000  H
  H788     1.0000 0.08870  0.37450  0.31440  Biso   1.000  H
  H789     1.0000 0.66130  0.87450  0.93560  Biso   1.000  H
  H790     1.0000 0.16130  0.37550  0.81440  Biso   1.000  H
  H791     1.0000 0.31440  0.08870  0.37450  Biso   1.000  H
  H792     1.0000 0.93560  0.66130  0.87450  Biso   1.000  H
  H793     1.0000 0.81440  0.16130  0.37550  Biso   1.000  H
  H794     1.0000 0.06440  0.62450  0.91130  Biso   1.000  H
  H795     1.0000 0.62450  0.91130  0.06440  Biso   1.000  H
  H796     1.0000 0.91130  0.06440  0.62450  Biso   1.000  H
  H797     1.0000 0.87450  0.43560  0.16130  Biso   1.000  H
  H798     1.0000 0.37550  0.31440  0.66130  Biso   1.000  H
  H799     1.0000 0.08870  0.87450  0.81440  Biso   1.000  H
  H800     1.0000 0.16130  0.87550  0.31440  Biso   1.000  H
  H801     1.0000 0.31440  0.58870  0.87450  Biso   1.000  H
  H802     1.0000 0.93560  0.16130  0.37450  Biso   1.000  H
  H803     1.0000 0.18560  0.62550  0.91130  Biso   1.000  H
  H804     1.0000 0.06440  0.12450  0.41130  Biso   1.000  H
  H805     1.0000 0.62550  0.33870  0.06440  Biso   1.000  H
  H806     1.0000 0.62450  0.41130  0.56440  Biso   1.000  H
  H807     1.0000 0.33870  0.18560  0.62450  Biso   1.000  H
  H808     1.0000 0.91130  0.56440  0.12450  Biso   1.000  H
  H809     1.0000 0.87450  0.31440  0.58870  Biso   1.000  H
  H810     1.0000 0.37450  0.93560  0.16130  Biso   1.000  H
  H811     1.0000 0.16130  0.87450  0.43560  Biso   1.000  H
  H812     1.0000 0.66130  0.37550  0.31440  Biso   1.000  H
  H813     1.0000 0.81440  0.08870  0.87450  Biso   1.000  H
  H814     1.0000 0.31440  0.16130  0.87550  Biso   1.000  H
  H815     1.0000 0.56440  0.62450  0.41130  Biso   1.000  H
  H816     1.0000 0.06440  0.62550  0.33870  Biso   1.000  H
  H817     1.0000 0.62450  0.33870  0.18560  Biso   1.000  H
  H818     1.0000 0.12450  0.91130  0.56440  Biso   1.000  H
  H819     1.0000 0.91130  0.18560  0.62550  Biso   1.000  H
  H820     1.0000 0.41130  0.06440  0.12450  Biso   1.000  H
  H821     1.0000 0.87450  0.81440  0.08870  Biso   1.000  H
  H822     1.0000 0.87550  0.31440  0.16130  Biso   1.000  H
  H823     1.0000 0.58870  0.87450  0.31440  Biso   1.000  H
  H824     1.0000 0.16130  0.37450  0.93560  Biso   1.000  H
  H825     1.0000 0.43560  0.16130  0.87450  Biso   1.000  H
  H826     1.0000 0.31440  0.66130  0.37550  Biso   1.000  H
  H827     1.0000 0.56440  0.12450  0.91130  Biso   1.000  H
  H828     1.0000 0.18560  0.62450  0.33870  Biso   1.000  H
  H829     1.0000 0.12450  0.41130  0.06440  Biso   1.000  H
  H830     1.0000 0.62550  0.91130  0.18560  Biso   1.000  H
  H831     1.0000 0.33870  0.06440  0.62550  Biso   1.000  H
  H832     1.0000 0.41130  0.56440  0.62450  Biso   1.000  H
