data_image0
_cell_length_a       23.934
_cell_length_b       29.782
_cell_length_c       10.9902
_cell_angle_alpha    90
_cell_angle_beta     90
_cell_angle_gamma    90

_symmetry_space_group_name_H-M    "P 1"
_symmetry_int_tables_number       1

loop_
  _symmetry_equiv_pos_as_xyz
  'x, y, z'

loop_
  _atom_site_label
  _atom_site_occupancy
  _atom_site_fract_x
  _atom_site_fract_y
  _atom_site_fract_z
  _atom_site_thermal_displace_type
  _atom_site_B_iso_or_equiv
  _atom_site_type_symbol
  Cu1      1.0000 0.36476  0.34042  0.88064  Biso   1.000  Cu
  Cu2      1.0000 0.63524  0.65958  0.88064  Biso   1.000  Cu
  Cu3      1.0000 0.88524  0.59042  0.13064  Biso   1.000  Cu
  Cu4      1.0000 0.11476  0.40958  0.13064  Biso   1.000  Cu
  Cu5      1.0000 0.36476  0.84042  0.38064  Biso   1.000  Cu
  Cu6      1.0000 0.63524  0.15958  0.38064  Biso   1.000  Cu
  Cu7      1.0000 0.88524  0.09042  0.63064  Biso   1.000  Cu
  Cu8      1.0000 0.11476  0.90958  0.63064  Biso   1.000  Cu
  Cu9      1.0000 0.86476  0.34042  0.38064  Biso   1.000  Cu
  Cu10     1.0000 0.13524  0.65958  0.38064  Biso   1.000  Cu
  Cu11     1.0000 0.38524  0.59042  0.63064  Biso   1.000  Cu
  Cu12     1.0000 0.61476  0.40958  0.63064  Biso   1.000  Cu
  Cu13     1.0000 0.86476  0.84042  0.88064  Biso   1.000  Cu
  Cu14     1.0000 0.13524  0.15958  0.88064  Biso   1.000  Cu
  Cu15     1.0000 0.38524  0.09042  0.13064  Biso   1.000  Cu
  Cu16     1.0000 0.61476  0.90958  0.13064  Biso   1.000  Cu
  O1       1.0000 0.29690  0.36520  0.80050  Biso   1.000  O
  O2       1.0000 0.70310  0.63480  0.80050  Biso   1.000  O
  O3       1.0000 0.95310  0.61520  0.05050  Biso   1.000  O
  O4       1.0000 0.04690  0.38480  0.05050  Biso   1.000  O
  O5       1.0000 0.29690  0.86520  0.30050  Biso   1.000  O
  O6       1.0000 0.70310  0.13480  0.30050  Biso   1.000  O
  O7       1.0000 0.95310  0.11520  0.55050  Biso   1.000  O
  O8       1.0000 0.04690  0.88480  0.55050  Biso   1.000  O
  O9       1.0000 0.79690  0.36520  0.30050  Biso   1.000  O
  O10      1.0000 0.20310  0.63480  0.30050  Biso   1.000  O
  O11      1.0000 0.45310  0.61520  0.55050  Biso   1.000  O
  O12      1.0000 0.54690  0.38480  0.55050  Biso   1.000  O
  O13      1.0000 0.79690  0.86520  0.80050  Biso   1.000  O
  O14      1.0000 0.20310  0.13480  0.80050  Biso   1.000  O
  O15      1.0000 0.45310  0.11520  0.05050  Biso   1.000  O
  O16      1.0000 0.54690  0.88480  0.05050  Biso   1.000  O
  O17      1.0000 0.34900  0.41180  0.69200  Biso   1.000  O
  O18      1.0000 0.65100  0.58820  0.69200  Biso   1.000  O
  O19      1.0000 0.90100  0.66180  0.94200  Biso   1.000  O
  O20      1.0000 0.09900  0.33820  0.94200  Biso   1.000  O
  O21      1.0000 0.34900  0.91180  0.19200  Biso   1.000  O
  O22      1.0000 0.65100  0.08820  0.19200  Biso   1.000  O
  O23      1.0000 0.90100  0.16180  0.44200  Biso   1.000  O
  O24      1.0000 0.09900  0.83820  0.44200  Biso   1.000  O
  O25      1.0000 0.84900  0.41180  0.19200  Biso   1.000  O
  O26      1.0000 0.15100  0.58820  0.19200  Biso   1.000  O
  O27      1.0000 0.40100  0.66180  0.44200  Biso   1.000  O
  O28      1.0000 0.59900  0.33820  0.44200  Biso   1.000  O
  O29      1.0000 0.84900  0.91180  0.69200  Biso   1.000  O
  O30      1.0000 0.15100  0.08820  0.69200  Biso   1.000  O
  O31      1.0000 0.40100  0.16180  0.94200  Biso   1.000  O
  O32      1.0000 0.59900  0.83820  0.94200  Biso   1.000  O
  O33      1.0000 0.21190  0.48680  0.44060  Biso   1.000  O
  O34      1.0000 0.78810  0.51320  0.44060  Biso   1.000  O
  O35      1.0000 0.03810  0.73680  0.69060  Biso   1.000  O
  O36      1.0000 0.96190  0.26320  0.69060  Biso   1.000  O
  O37      1.0000 0.21190  0.98680  0.94060  Biso   1.000  O
  O38      1.0000 0.78810  0.01320  0.94060  Biso   1.000  O
  O39      1.0000 0.03810  0.23680  0.19060  Biso   1.000  O
  O40      1.0000 0.96190  0.76320  0.19060  Biso   1.000  O
  O41      1.0000 0.71190  0.48680  0.94060  Biso   1.000  O
  O42      1.0000 0.28810  0.51320  0.94060  Biso   1.000  O
  O43      1.0000 0.53810  0.73680  0.19060  Biso   1.000  O
  O44      1.0000 0.46190  0.26320  0.19060  Biso   1.000  O
  O45      1.0000 0.71190  0.98680  0.44060  Biso   1.000  O
  O46      1.0000 0.28810  0.01320  0.44060  Biso   1.000  O
  O47      1.0000 0.53810  0.23680  0.69060  Biso   1.000  O
  O48      1.0000 0.46190  0.76320  0.69060  Biso   1.000  O
  O49      1.0000 0.17130  0.44540  0.22860  Biso   1.000  O
  O50      1.0000 0.82870  0.55460  0.22860  Biso   1.000  O
  O51      1.0000 0.07870  0.69540  0.47860  Biso   1.000  O
  O52      1.0000 0.92130  0.30460  0.47860  Biso   1.000  O
  O53      1.0000 0.17130  0.94540  0.72860  Biso   1.000  O
  O54      1.0000 0.82870  0.05460  0.72860  Biso   1.000  O
  O55      1.0000 0.07870  0.19540  0.97860  Biso   1.000  O
  O56      1.0000 0.92130  0.80460  0.97860  Biso   1.000  O
  O57      1.0000 0.67130  0.44540  0.72860  Biso   1.000  O
  O58      1.0000 0.32870  0.55460  0.72860  Biso   1.000  O
  O59      1.0000 0.57870  0.69540  0.97860  Biso   1.000  O
  O60      1.0000 0.42130  0.30460  0.97860  Biso   1.000  O
  O61      1.0000 0.67130  0.94540  0.22860  Biso   1.000  O
  O62      1.0000 0.32870  0.05460  0.22860  Biso   1.000  O
  O63      1.0000 0.57870  0.19540  0.47860  Biso   1.000  O
  O64      1.0000 0.42130  0.80460  0.47860  Biso   1.000  O
  O65      1.0000 0.08760  0.47270  0.26760  Biso   1.000  O
  O66      1.0000 0.91240  0.52730  0.26760  Biso   1.000  O
  O67      1.0000 0.16240  0.72270  0.51760  Biso   1.000  O
  O68      1.0000 0.83760  0.27730  0.51760  Biso   1.000  O
  O69      1.0000 0.08760  0.97270  0.76760  Biso   1.000  O
  O70      1.0000 0.91240  0.02730  0.76760  Biso   1.000  O
  O71      1.0000 0.16240  0.22270  0.01760  Biso   1.000  O
  O72      1.0000 0.83760  0.77730  0.01760  Biso   1.000  O
  O73      1.0000 0.58760  0.47270  0.76760  Biso   1.000  O
  O74      1.0000 0.41240  0.52730  0.76760  Biso   1.000  O
  O75      1.0000 0.66240  0.72270  0.01760  Biso   1.000  O
  O76      1.0000 0.33760  0.27730  0.01760  Biso   1.000  O
  O77      1.0000 0.58760  0.97270  0.26760  Biso   1.000  O
  O78      1.0000 0.41240  0.02730  0.26760  Biso   1.000  O
  O79      1.0000 0.66240  0.22270  0.51760  Biso   1.000  O
  O80      1.0000 0.33760  0.77730  0.51760  Biso   1.000  O
  O81      1.0000 0.44110  0.39070  0.78480  Biso   1.000  O
  O82      1.0000 0.55890  0.60930  0.78480  Biso   1.000  O
  O83      1.0000 0.80890  0.64070  0.03480  Biso   1.000  O
  O84      1.0000 0.19110  0.35930  0.03480  Biso   1.000  O
  O85      1.0000 0.44110  0.89070  0.28480  Biso   1.000  O
  O86      1.0000 0.55890  0.10930  0.28480  Biso   1.000  O
  O87      1.0000 0.80890  0.14070  0.53480  Biso   1.000  O
  O88      1.0000 0.19110  0.85930  0.53480  Biso   1.000  O
  O89      1.0000 0.94110  0.39070  0.28480  Biso   1.000  O
  O90      1.0000 0.05890  0.60930  0.28480  Biso   1.000  O
  O91      1.0000 0.30890  0.64070  0.53480  Biso   1.000  O
  O92      1.0000 0.69110  0.35930  0.53480  Biso   1.000  O
  O93      1.0000 0.94110  0.89070  0.78480  Biso   1.000  O
  O94      1.0000 0.05890  0.10930  0.78480  Biso   1.000  O
  O95      1.0000 0.30890  0.14070  0.03480  Biso   1.000  O
  O96      1.0000 0.69110  0.85930  0.03480  Biso   1.000  O
  H1       1.0000 0.45400  0.37770  0.72120  Biso   1.000  H
  H2       1.0000 0.54600  0.62230  0.72120  Biso   1.000  H
  H3       1.0000 0.79600  0.62770  0.97120  Biso   1.000  H
  H4       1.0000 0.20400  0.37230  0.97120  Biso   1.000  H
  H5       1.0000 0.45400  0.87770  0.22120  Biso   1.000  H
  H6       1.0000 0.54600  0.12230  0.22120  Biso   1.000  H
  H7       1.0000 0.79600  0.12770  0.47120  Biso   1.000  H
  H8       1.0000 0.20400  0.87230  0.47120  Biso   1.000  H
  H9       1.0000 0.95400  0.37770  0.22120  Biso   1.000  H
  H10      1.0000 0.04600  0.62230  0.22120  Biso   1.000  H
  H11      1.0000 0.29600  0.62770  0.47120  Biso   1.000  H
  H12      1.0000 0.70400  0.37230  0.47120  Biso   1.000  H
  H13      1.0000 0.95400  0.87770  0.72120  Biso   1.000  H
  H14      1.0000 0.04600  0.12230  0.72120  Biso   1.000  H
  H15      1.0000 0.29600  0.12770  0.97120  Biso   1.000  H
  H16      1.0000 0.70400  0.87230  0.97120  Biso   1.000  H
  H17      1.0000 0.42710  0.41610  0.76480  Biso   1.000  H
  H18      1.0000 0.57290  0.58390  0.76480  Biso   1.000  H
  H19      1.0000 0.82290  0.66610  0.01480  Biso   1.000  H
  H20      1.0000 0.17710  0.33390  0.01480  Biso   1.000  H
  H21      1.0000 0.42710  0.91610  0.26480  Biso   1.000  H
  H22      1.0000 0.57290  0.08390  0.26480  Biso   1.000  H
  H23      1.0000 0.82290  0.16610  0.51480  Biso   1.000  H
  H24      1.0000 0.17710  0.83390  0.51480  Biso   1.000  H
  H25      1.0000 0.92710  0.41610  0.26480  Biso   1.000  H
  H26      1.0000 0.07290  0.58390  0.26480  Biso   1.000  H
  H27      1.0000 0.32290  0.66610  0.51480  Biso   1.000  H
  H28      1.0000 0.67710  0.33390  0.51480  Biso   1.000  H
  H29      1.0000 0.92710  0.91610  0.76480  Biso   1.000  H
  H30      1.0000 0.07290  0.08390  0.76480  Biso   1.000  H
  H31      1.0000 0.32290  0.16610  0.01480  Biso   1.000  H
  H32      1.0000 0.67710  0.83390  0.01480  Biso   1.000  H
  N1       1.0000 0.36400  0.38450  0.01790  Biso   1.000  N
  N2       1.0000 0.63600  0.61550  0.01790  Biso   1.000  N
  N3       1.0000 0.88600  0.63450  0.26790  Biso   1.000  N
  N4       1.0000 0.11400  0.36550  0.26790  Biso   1.000  N
  N5       1.0000 0.36400  0.88450  0.51790  Biso   1.000  N
  N6       1.0000 0.63600  0.11550  0.51790  Biso   1.000  N
  N7       1.0000 0.88600  0.13450  0.76790  Biso   1.000  N
  N8       1.0000 0.11400  0.86550  0.76790  Biso   1.000  N
  N9       1.0000 0.86400  0.38450  0.51790  Biso   1.000  N
  N10      1.0000 0.13600  0.61550  0.51790  Biso   1.000  N
  N11      1.0000 0.38600  0.63450  0.76790  Biso   1.000  N
  N12      1.0000 0.61400  0.36550  0.76790  Biso   1.000  N
  N13      1.0000 0.86400  0.88450  0.01790  Biso   1.000  N
  N14      1.0000 0.13600  0.11550  0.01790  Biso   1.000  N
  N15      1.0000 0.38600  0.13450  0.26790  Biso   1.000  N
  N16      1.0000 0.61400  0.86550  0.26790  Biso   1.000  N
  N17      1.0000 0.37960  0.54410  0.49460  Biso   1.000  N
  N18      1.0000 0.62040  0.45590  0.49460  Biso   1.000  N
  N19      1.0000 0.87040  0.79410  0.74460  Biso   1.000  N
  N20      1.0000 0.12960  0.20590  0.74460  Biso   1.000  N
  N21      1.0000 0.37960  0.04410  0.99460  Biso   1.000  N
  N22      1.0000 0.62040  0.95590  0.99460  Biso   1.000  N
  N23      1.0000 0.87040  0.29410  0.24460  Biso   1.000  N
  N24      1.0000 0.12960  0.70590  0.24460  Biso   1.000  N
  N25      1.0000 0.87960  0.54410  0.99460  Biso   1.000  N
  N26      1.0000 0.12040  0.45590  0.99460  Biso   1.000  N
  N27      1.0000 0.37040  0.79410  0.24460  Biso   1.000  N
  N28      1.0000 0.62960  0.20590  0.24460  Biso   1.000  N
  N29      1.0000 0.87960  0.04410  0.49460  Biso   1.000  N
  N30      1.0000 0.12040  0.95590  0.49460  Biso   1.000  N
  N31      1.0000 0.37040  0.29410  0.74460  Biso   1.000  N
  N32      1.0000 0.62960  0.70590  0.74460  Biso   1.000  N
  C1       1.0000 0.30340  0.39360  0.72610  Biso   1.000  C
  C2       1.0000 0.69660  0.60640  0.72610  Biso   1.000  C
  C3       1.0000 0.94660  0.64360  0.97610  Biso   1.000  C
  C4       1.0000 0.05340  0.35640  0.97610  Biso   1.000  C
  C5       1.0000 0.30340  0.89360  0.22610  Biso   1.000  C
  C6       1.0000 0.69660  0.10640  0.22610  Biso   1.000  C
  C7       1.0000 0.94660  0.14360  0.47610  Biso   1.000  C
  C8       1.0000 0.05340  0.85640  0.47610  Biso   1.000  C
  C9       1.0000 0.80340  0.39360  0.22610  Biso   1.000  C
  C10      1.0000 0.19660  0.60640  0.22610  Biso   1.000  C
  C11      1.0000 0.44660  0.64360  0.47610  Biso   1.000  C
  C12      1.0000 0.55340  0.35640  0.47610  Biso   1.000  C
  C13      1.0000 0.80340  0.89360  0.72610  Biso   1.000  C
  C14      1.0000 0.19660  0.10640  0.72610  Biso   1.000  C
  C15      1.0000 0.44660  0.14360  0.97610  Biso   1.000  C
  C16      1.0000 0.55340  0.85640  0.97610  Biso   1.000  C
  C17      1.0000 0.24640  0.40580  0.67100  Biso   1.000  C
  C18      1.0000 0.75360  0.59420  0.67100  Biso   1.000  C
  C19      1.0000 0.00360  0.65580  0.92100  Biso   1.000  C
  C20      1.0000 0.99640  0.34420  0.92100  Biso   1.000  C
  C21      1.0000 0.24640  0.90580  0.17100  Biso   1.000  C
  C22      1.0000 0.75360  0.09420  0.17100  Biso   1.000  C
  C23      1.0000 0.00360  0.15580  0.42100  Biso   1.000  C
  C24      1.0000 0.99640  0.84420  0.42100  Biso   1.000  C
  C25      1.0000 0.74640  0.40580  0.17100  Biso   1.000  C
  C26      1.0000 0.25360  0.59420  0.17100  Biso   1.000  C
  C27      1.0000 0.50360  0.65580  0.42100  Biso   1.000  C
  C28      1.0000 0.49640  0.34420  0.42100  Biso   1.000  C
  C29      1.0000 0.74640  0.90580  0.67100  Biso   1.000  C
  C30      1.0000 0.25360  0.09420  0.67100  Biso   1.000  C
  C31      1.0000 0.50360  0.15580  0.92100  Biso   1.000  C
  C32      1.0000 0.49640  0.84420  0.92100  Biso   1.000  C
  C33      1.0000 0.19270  0.38890  0.69880  Biso   1.000  C
  C34      1.0000 0.80730  0.61110  0.69880  Biso   1.000  C
  C35      1.0000 0.05730  0.63890  0.94880  Biso   1.000  C
  C36      1.0000 0.94270  0.36110  0.94880  Biso   1.000  C
  C37      1.0000 0.19270  0.88890  0.19880  Biso   1.000  C
  C38      1.0000 0.80730  0.11110  0.19880  Biso   1.000  C
  C39      1.0000 0.05730  0.13890  0.44880  Biso   1.000  C
  C40      1.0000 0.94270  0.86110  0.44880  Biso   1.000  C
  C41      1.0000 0.69270  0.38890  0.19880  Biso   1.000  C
  C42      1.0000 0.30730  0.61110  0.19880  Biso   1.000  C
  C43      1.0000 0.55730  0.63890  0.44880  Biso   1.000  C
  C44      1.0000 0.44270  0.36110  0.44880  Biso   1.000  C
  C45      1.0000 0.69270  0.88890  0.69880  Biso   1.000  C
  C46      1.0000 0.30730  0.11110  0.69880  Biso   1.000  C
  C47      1.0000 0.55730  0.13890  0.94880  Biso   1.000  C
  C48      1.0000 0.44270  0.86110  0.94880  Biso   1.000  C
  H33      1.0000 0.18910  0.36680  0.75800  Biso   1.000  H
  H34      1.0000 0.81090  0.63320  0.75800  Biso   1.000  H
  H35      1.0000 0.06090  0.61680  0.00800  Biso   1.000  H
  H36      1.0000 0.93910  0.38320  0.00800  Biso   1.000  H
  H37      1.0000 0.18910  0.86680  0.25800  Biso   1.000  H
  H38      1.0000 0.81090  0.13320  0.25800  Biso   1.000  H
  H39      1.0000 0.06090  0.11680  0.50800  Biso   1.000  H
  H40      1.0000 0.93910  0.88320  0.50800  Biso   1.000  H
  H41      1.0000 0.68910  0.36680  0.25800  Biso   1.000  H
  H42      1.0000 0.31090  0.63320  0.25800  Biso   1.000  H
  H43      1.0000 0.56090  0.61680  0.50800  Biso   1.000  H
  H44      1.0000 0.43910  0.38320  0.50800  Biso   1.000  H
  H45      1.0000 0.68910  0.86680  0.75800  Biso   1.000  H
  H46      1.0000 0.31090  0.13320  0.75800  Biso   1.000  H
  H47      1.0000 0.56090  0.11680  0.00800  Biso   1.000  H
  H48      1.0000 0.43910  0.88320  0.00800  Biso   1.000  H
  C49      1.0000 0.14530  0.40430  0.64030  Biso   1.000  C
  C50      1.0000 0.85470  0.59570  0.64030  Biso   1.000  C
  C51      1.0000 0.10470  0.65430  0.89030  Biso   1.000  C
  C52      1.0000 0.89530  0.34570  0.89030  Biso   1.000  C
  C53      1.0000 0.14530  0.90430  0.14030  Biso   1.000  C
  C54      1.0000 0.85470  0.09570  0.14030  Biso   1.000  C
  C55      1.0000 0.10470  0.15430  0.39030  Biso   1.000  C
  C56      1.0000 0.89530  0.84570  0.39030  Biso   1.000  C
  C57      1.0000 0.64530  0.40430  0.14030  Biso   1.000  C
  C58      1.0000 0.35470  0.59570  0.14030  Biso   1.000  C
  C59      1.0000 0.60470  0.65430  0.39030  Biso   1.000  C
  C60      1.0000 0.39530  0.34570  0.39030  Biso   1.000  C
  C61      1.0000 0.64530  0.90430  0.64030  Biso   1.000  C
  C62      1.0000 0.35470  0.09570  0.64030  Biso   1.000  C
  C63      1.0000 0.60470  0.15430  0.89030  Biso   1.000  C
  C64      1.0000 0.39530  0.84570  0.89030  Biso   1.000  C
  C65      1.0000 0.14760  0.43750  0.55000  Biso   1.000  C
  C66      1.0000 0.85240  0.56250  0.55000  Biso   1.000  C
  C67      1.0000 0.10240  0.68750  0.80000  Biso   1.000  C
  C68      1.0000 0.89760  0.31250  0.80000  Biso   1.000  C
  C69      1.0000 0.14760  0.93750  0.05000  Biso   1.000  C
  C70      1.0000 0.85240  0.06250  0.05000  Biso   1.000  C
  C71      1.0000 0.10240  0.18750  0.30000  Biso   1.000  C
  C72      1.0000 0.89760  0.81250  0.30000  Biso   1.000  C
  C73      1.0000 0.64760  0.43750  0.05000  Biso   1.000  C
  C74      1.0000 0.35240  0.56250  0.05000  Biso   1.000  C
  C75      1.0000 0.60240  0.68750  0.30000  Biso   1.000  C
  C76      1.0000 0.39760  0.31250  0.30000  Biso   1.000  C
  C77      1.0000 0.64760  0.93750  0.55000  Biso   1.000  C
  C78      1.0000 0.35240  0.06250  0.55000  Biso   1.000  C
  C79      1.0000 0.60240  0.18750  0.80000  Biso   1.000  C
  C80      1.0000 0.39760  0.81250  0.80000  Biso   1.000  C
  H49      1.0000 0.11550  0.44830  0.51250  Biso   1.000  H
  H50      1.0000 0.88450  0.55170  0.51250  Biso   1.000  H
  H51      1.0000 0.13450  0.69830  0.76250  Biso   1.000  H
  H52      1.0000 0.86550  0.30170  0.76250  Biso   1.000  H
  H53      1.0000 0.11550  0.94830  0.01250  Biso   1.000  H
  H54      1.0000 0.88450  0.05170  0.01250  Biso   1.000  H
  H55      1.0000 0.13450  0.19830  0.26250  Biso   1.000  H
  H56      1.0000 0.86550  0.80170  0.26250  Biso   1.000  H
  H57      1.0000 0.61550  0.44830  0.01250  Biso   1.000  H
  H58      1.0000 0.38450  0.55170  0.01250  Biso   1.000  H
  H59      1.0000 0.63450  0.69830  0.26250  Biso   1.000  H
  H60      1.0000 0.36550  0.30170  0.26250  Biso   1.000  H
  H61      1.0000 0.61550  0.94830  0.51250  Biso   1.000  H
  H62      1.0000 0.38450  0.05170  0.51250  Biso   1.000  H
  H63      1.0000 0.63450  0.19830  0.76250  Biso   1.000  H
  H64      1.0000 0.36550  0.80170  0.76250  Biso   1.000  H
  C81      1.0000 0.19990  0.45340  0.51960  Biso   1.000  C
  C82      1.0000 0.80010  0.54660  0.51960  Biso   1.000  C
  C83      1.0000 0.05010  0.70340  0.76960  Biso   1.000  C
  C84      1.0000 0.94990  0.29660  0.76960  Biso   1.000  C
  C85      1.0000 0.19990  0.95340  0.01960  Biso   1.000  C
  C86      1.0000 0.80010  0.04660  0.01960  Biso   1.000  C
  C87      1.0000 0.05010  0.20340  0.26960  Biso   1.000  C
  C88      1.0000 0.94990  0.79660  0.26960  Biso   1.000  C
  C89      1.0000 0.69990  0.45340  0.01960  Biso   1.000  C
  C90      1.0000 0.30010  0.54660  0.01960  Biso   1.000  C
  C91      1.0000 0.55010  0.70340  0.26960  Biso   1.000  C
  C92      1.0000 0.44990  0.29660  0.26960  Biso   1.000  C
  C93      1.0000 0.69990  0.95340  0.51960  Biso   1.000  C
  C94      1.0000 0.30010  0.04660  0.51960  Biso   1.000  C
  C95      1.0000 0.55010  0.20340  0.76960  Biso   1.000  C
  C96      1.0000 0.44990  0.79660  0.76960  Biso   1.000  C
  C97      1.0000 0.24840  0.43840  0.58080  Biso   1.000  C
  C98      1.0000 0.75160  0.56160  0.58080  Biso   1.000  C
  C99      1.0000 0.00160  0.68840  0.83080  Biso   1.000  C
  C100     1.0000 0.99840  0.31160  0.83080  Biso   1.000  C
  C101     1.0000 0.24840  0.93840  0.08080  Biso   1.000  C
  C102     1.0000 0.75160  0.06160  0.08080  Biso   1.000  C
  C103     1.0000 0.00160  0.18840  0.33080  Biso   1.000  C
  C104     1.0000 0.99840  0.81160  0.33080  Biso   1.000  C
  C105     1.0000 0.74840  0.43840  0.08080  Biso   1.000  C
  C106     1.0000 0.25160  0.56160  0.08080  Biso   1.000  C
  C107     1.0000 0.50160  0.68840  0.33080  Biso   1.000  C
  C108     1.0000 0.49840  0.31160  0.33080  Biso   1.000  C
  C109     1.0000 0.74840  0.93840  0.58080  Biso   1.000  C
  C110     1.0000 0.25160  0.06160  0.58080  Biso   1.000  C
  C111     1.0000 0.50160  0.18840  0.83080  Biso   1.000  C
  C112     1.0000 0.49840  0.81160  0.83080  Biso   1.000  C
  H65      1.0000 0.28270  0.45080  0.56000  Biso   1.000  H
  H66      1.0000 0.71730  0.54920  0.56000  Biso   1.000  H
  H67      1.0000 0.96730  0.70080  0.81000  Biso   1.000  H
  H68      1.0000 0.03270  0.29920  0.81000  Biso   1.000  H
  H69      1.0000 0.28270  0.95080  0.06000  Biso   1.000  H
  H70      1.0000 0.71730  0.04920  0.06000  Biso   1.000  H
  H71      1.0000 0.96730  0.20080  0.31000  Biso   1.000  H
  H72      1.0000 0.03270  0.79920  0.31000  Biso   1.000  H
  H73      1.0000 0.78270  0.45080  0.06000  Biso   1.000  H
  H74      1.0000 0.21730  0.54920  0.06000  Biso   1.000  H
  H75      1.0000 0.46730  0.70080  0.31000  Biso   1.000  H
  H76      1.0000 0.53270  0.29920  0.31000  Biso   1.000  H
  H77      1.0000 0.78270  0.95080  0.56000  Biso   1.000  H
  H78      1.0000 0.21730  0.04920  0.56000  Biso   1.000  H
  H79      1.0000 0.46730  0.20080  0.81000  Biso   1.000  H
  H80      1.0000 0.53270  0.79920  0.81000  Biso   1.000  H
  C113     1.0000 0.08780  0.38970  0.67110  Biso   1.000  C
  C114     1.0000 0.91220  0.61030  0.67110  Biso   1.000  C
  C115     1.0000 0.16220  0.63970  0.92110  Biso   1.000  C
  C116     1.0000 0.83780  0.36030  0.92110  Biso   1.000  C
  C117     1.0000 0.08780  0.88970  0.17110  Biso   1.000  C
  C118     1.0000 0.91220  0.11030  0.17110  Biso   1.000  C
  C119     1.0000 0.16220  0.13970  0.42110  Biso   1.000  C
  C120     1.0000 0.83780  0.86030  0.42110  Biso   1.000  C
  C121     1.0000 0.58780  0.38970  0.17110  Biso   1.000  C
  C122     1.0000 0.41220  0.61030  0.17110  Biso   1.000  C
  C123     1.0000 0.66220  0.63970  0.42110  Biso   1.000  C
  C124     1.0000 0.33780  0.36030  0.42110  Biso   1.000  C
  C125     1.0000 0.58780  0.88970  0.67110  Biso   1.000  C
  C126     1.0000 0.41220  0.11030  0.67110  Biso   1.000  C
  C127     1.0000 0.66220  0.13970  0.92110  Biso   1.000  C
  C128     1.0000 0.33780  0.86030  0.92110  Biso   1.000  C
  H81      1.0000 0.07940  0.39810  0.75340  Biso   1.000  H
  H82      1.0000 0.92060  0.60190  0.75340  Biso   1.000  H
  H83      1.0000 0.17060  0.64810  0.00340  Biso   1.000  H
  H84      1.0000 0.82940  0.35190  0.00340  Biso   1.000  H
  H85      1.0000 0.07940  0.89810  0.25340  Biso   1.000  H
  H86      1.0000 0.92060  0.10190  0.25340  Biso   1.000  H
  H87      1.0000 0.17060  0.14810  0.50340  Biso   1.000  H
  H88      1.0000 0.82940  0.85190  0.50340  Biso   1.000  H
  H89      1.0000 0.57940  0.39810  0.25340  Biso   1.000  H
  H90      1.0000 0.42060  0.60190  0.25340  Biso   1.000  H
  H91      1.0000 0.67060  0.64810  0.50340  Biso   1.000  H
  H92      1.0000 0.32940  0.35190  0.50340  Biso   1.000  H
  H93      1.0000 0.57940  0.89810  0.75340  Biso   1.000  H
  H94      1.0000 0.42060  0.10190  0.75340  Biso   1.000  H
  H95      1.0000 0.67060  0.14810  0.00340  Biso   1.000  H
  H96      1.0000 0.32940  0.85190  0.00340  Biso   1.000  H
  H97      1.0000 0.06170  0.40390  0.61700  Biso   1.000  H
  H98      1.0000 0.93830  0.59610  0.61700  Biso   1.000  H
  H99      1.0000 0.18830  0.65390  0.86700  Biso   1.000  H
  H100     1.0000 0.81170  0.34610  0.86700  Biso   1.000  H
  H101     1.0000 0.06170  0.90390  0.11700  Biso   1.000  H
  H102     1.0000 0.93830  0.09610  0.11700  Biso   1.000  H
  H103     1.0000 0.18830  0.15390  0.36700  Biso   1.000  H
  H104     1.0000 0.81170  0.84610  0.36700  Biso   1.000  H
  H105     1.0000 0.56170  0.40390  0.11700  Biso   1.000  H
  H106     1.0000 0.43830  0.59610  0.11700  Biso   1.000  H
  H107     1.0000 0.68830  0.65390  0.36700  Biso   1.000  H
  H108     1.0000 0.31170  0.34610  0.36700  Biso   1.000  H
  H109     1.0000 0.56170  0.90390  0.61700  Biso   1.000  H
  H110     1.0000 0.43830  0.09610  0.61700  Biso   1.000  H
  H111     1.0000 0.68830  0.15390  0.86700  Biso   1.000  H
  H112     1.0000 0.31170  0.84610  0.86700  Biso   1.000  H
  H113     1.0000 0.08500  0.35770  0.66270  Biso   1.000  H
  H114     1.0000 0.91500  0.64230  0.66270  Biso   1.000  H
  H115     1.0000 0.16500  0.60770  0.91270  Biso   1.000  H
  H116     1.0000 0.83500  0.39230  0.91270  Biso   1.000  H
  H117     1.0000 0.08500  0.85770  0.16270  Biso   1.000  H
  H118     1.0000 0.91500  0.14230  0.16270  Biso   1.000  H
  H119     1.0000 0.16500  0.10770  0.41270  Biso   1.000  H
  H120     1.0000 0.83500  0.89230  0.41270  Biso   1.000  H
  H121     1.0000 0.58500  0.35770  0.16270  Biso   1.000  H
  H122     1.0000 0.41500  0.64230  0.16270  Biso   1.000  H
  H123     1.0000 0.66500  0.60770  0.41270  Biso   1.000  H
  H124     1.0000 0.33500  0.39230  0.41270  Biso   1.000  H
  H125     1.0000 0.58500  0.85770  0.66270  Biso   1.000  H
  H126     1.0000 0.41500  0.14230  0.66270  Biso   1.000  H
  H127     1.0000 0.66500  0.10770  0.91270  Biso   1.000  H
  H128     1.0000 0.33500  0.89230  0.91270  Biso   1.000  H
  C129     1.0000 0.16500  0.50430  0.37650  Biso   1.000  C
  C130     1.0000 0.83500  0.49570  0.37650  Biso   1.000  C
  C131     1.0000 0.08500  0.75430  0.62650  Biso   1.000  C
  C132     1.0000 0.91500  0.24570  0.62650  Biso   1.000  C
  C133     1.0000 0.16500  0.00430  0.87650  Biso   1.000  C
  C134     1.0000 0.83500  0.99570  0.87650  Biso   1.000  C
  C135     1.0000 0.08500  0.25430  0.12650  Biso   1.000  C
  C136     1.0000 0.91500  0.74570  0.12650  Biso   1.000  C
  C137     1.0000 0.66500  0.50430  0.87650  Biso   1.000  C
  C138     1.0000 0.33500  0.49570  0.87650  Biso   1.000  C
  C139     1.0000 0.58500  0.75430  0.12650  Biso   1.000  C
  C140     1.0000 0.41500  0.24570  0.12650  Biso   1.000  C
  C141     1.0000 0.66500  0.00430  0.37650  Biso   1.000  C
  C142     1.0000 0.33500  0.99570  0.37650  Biso   1.000  C
  C143     1.0000 0.58500  0.25430  0.62650  Biso   1.000  C
  C144     1.0000 0.41500  0.74570  0.62650  Biso   1.000  C
  H129     1.0000 0.13650  0.51250  0.43510  Biso   1.000  H
  H130     1.0000 0.86350  0.48750  0.43510  Biso   1.000  H
  H131     1.0000 0.11350  0.76250  0.68510  Biso   1.000  H
  H132     1.0000 0.88650  0.23750  0.68510  Biso   1.000  H
  H133     1.0000 0.13650  0.01250  0.93510  Biso   1.000  H
  H134     1.0000 0.86350  0.98750  0.93510  Biso   1.000  H
  H135     1.0000 0.11350  0.26250  0.18510  Biso   1.000  H
  H136     1.0000 0.88650  0.73750  0.18510  Biso   1.000  H
  H137     1.0000 0.63650  0.51250  0.93510  Biso   1.000  H
  H138     1.0000 0.36350  0.48750  0.93510  Biso   1.000  H
  H139     1.0000 0.61350  0.76250  0.18510  Biso   1.000  H
  H140     1.0000 0.38650  0.23750  0.18510  Biso   1.000  H
  H141     1.0000 0.63650  0.01250  0.43510  Biso   1.000  H
  H142     1.0000 0.36350  0.98750  0.43510  Biso   1.000  H
  H143     1.0000 0.61350  0.26250  0.68510  Biso   1.000  H
  H144     1.0000 0.38650  0.73750  0.68510  Biso   1.000  H
  H145     1.0000 0.17650  0.53160  0.33510  Biso   1.000  H
  H146     1.0000 0.82350  0.46840  0.33510  Biso   1.000  H
  H147     1.0000 0.07350  0.78160  0.58510  Biso   1.000  H
  H148     1.0000 0.92650  0.21840  0.58510  Biso   1.000  H
  H149     1.0000 0.17650  0.03160  0.83510  Biso   1.000  H
  H150     1.0000 0.82350  0.96840  0.83510  Biso   1.000  H
  H151     1.0000 0.07350  0.28160  0.08510  Biso   1.000  H
  H152     1.0000 0.92650  0.71840  0.08510  Biso   1.000  H
  H153     1.0000 0.67650  0.53160  0.83510  Biso   1.000  H
  H154     1.0000 0.32350  0.46840  0.83510  Biso   1.000  H
  H155     1.0000 0.57350  0.78160  0.08510  Biso   1.000  H
  H156     1.0000 0.42650  0.21840  0.08510  Biso   1.000  H
  H157     1.0000 0.67650  0.03160  0.33510  Biso   1.000  H
  H158     1.0000 0.32350  0.96840  0.33510  Biso   1.000  H
  H159     1.0000 0.57350  0.28160  0.58510  Biso   1.000  H
  H160     1.0000 0.42650  0.71840  0.58510  Biso   1.000  H
  C145     1.0000 0.13950  0.47290  0.28410  Biso   1.000  C
  C146     1.0000 0.86050  0.52710  0.28410  Biso   1.000  C
  C147     1.0000 0.11050  0.72290  0.53410  Biso   1.000  C
  C148     1.0000 0.88950  0.27710  0.53410  Biso   1.000  C
  C149     1.0000 0.13950  0.97290  0.78410  Biso   1.000  C
  C150     1.0000 0.86050  0.02710  0.78410  Biso   1.000  C
  C151     1.0000 0.11050  0.22290  0.03410  Biso   1.000  C
  C152     1.0000 0.88950  0.77710  0.03410  Biso   1.000  C
  C153     1.0000 0.63950  0.47290  0.78410  Biso   1.000  C
  C154     1.0000 0.36050  0.52710  0.78410  Biso   1.000  C
  C155     1.0000 0.61050  0.72290  0.03410  Biso   1.000  C
  C156     1.0000 0.38950  0.27710  0.03410  Biso   1.000  C
  C157     1.0000 0.63950  0.97290  0.28410  Biso   1.000  C
  C158     1.0000 0.36050  0.02710  0.28410  Biso   1.000  C
  C159     1.0000 0.61050  0.22290  0.53410  Biso   1.000  C
  C160     1.0000 0.38950  0.77710  0.53410  Biso   1.000  C
  C161     1.0000 0.31890  0.40180  0.06580  Biso   1.000  C
  C162     1.0000 0.68110  0.59820  0.06580  Biso   1.000  C
  C163     1.0000 0.93110  0.65180  0.31580  Biso   1.000  C
  C164     1.0000 0.06890  0.34820  0.31580  Biso   1.000  C
  C165     1.0000 0.31890  0.90180  0.56580  Biso   1.000  C
  C166     1.0000 0.68110  0.09820  0.56580  Biso   1.000  C
  C167     1.0000 0.93110  0.15180  0.81580  Biso   1.000  C
  C168     1.0000 0.06890  0.84820  0.81580  Biso   1.000  C
  C169     1.0000 0.81890  0.40180  0.56580  Biso   1.000  C
  C170     1.0000 0.18110  0.59820  0.56580  Biso   1.000  C
  C171     1.0000 0.43110  0.65180  0.81580  Biso   1.000  C
  C172     1.0000 0.56890  0.34820  0.81580  Biso   1.000  C
  C173     1.0000 0.81890  0.90180  0.06580  Biso   1.000  C
  C174     1.0000 0.18110  0.09820  0.06580  Biso   1.000  C
  C175     1.0000 0.43110  0.15180  0.31580  Biso   1.000  C
  C176     1.0000 0.56890  0.84820  0.31580  Biso   1.000  C
  H161     1.0000 0.28470  0.39290  0.03370  Biso   1.000  H
  H162     1.0000 0.71530  0.60710  0.03370  Biso   1.000  H
  H163     1.0000 0.96530  0.64290  0.28370  Biso   1.000  H
  H164     1.0000 0.03470  0.35710  0.28370  Biso   1.000  H
  H165     1.0000 0.28470  0.89290  0.53370  Biso   1.000  H
  H166     1.0000 0.71530  0.10710  0.53370  Biso   1.000  H
  H167     1.0000 0.96530  0.14290  0.78370  Biso   1.000  H
  H168     1.0000 0.03470  0.85710  0.78370  Biso   1.000  H
  H169     1.0000 0.78470  0.39290  0.53370  Biso   1.000  H
  H170     1.0000 0.21530  0.60710  0.53370  Biso   1.000  H
  H171     1.0000 0.46530  0.64290  0.78370  Biso   1.000  H
  H172     1.0000 0.53470  0.35710  0.78370  Biso   1.000  H
  H173     1.0000 0.78470  0.89290  0.03370  Biso   1.000  H
  H174     1.0000 0.21530  0.10710  0.03370  Biso   1.000  H
  H175     1.0000 0.46530  0.14290  0.28370  Biso   1.000  H
  H176     1.0000 0.53470  0.85710  0.28370  Biso   1.000  H
  C177     1.0000 0.31830  0.43330  0.16410  Biso   1.000  C
  C178     1.0000 0.68170  0.56670  0.16410  Biso   1.000  C
  C179     1.0000 0.93170  0.68330  0.41410  Biso   1.000  C
  C180     1.0000 0.06830  0.31670  0.41410  Biso   1.000  C
  C181     1.0000 0.31830  0.93330  0.66410  Biso   1.000  C
  C182     1.0000 0.68170  0.06670  0.66410  Biso   1.000  C
  C183     1.0000 0.93170  0.18330  0.91410  Biso   1.000  C
  C184     1.0000 0.06830  0.81670  0.91410  Biso   1.000  C
  C185     1.0000 0.81830  0.43330  0.66410  Biso   1.000  C
  C186     1.0000 0.18170  0.56670  0.66410  Biso   1.000  C
  C187     1.0000 0.43170  0.68330  0.91410  Biso   1.000  C
  C188     1.0000 0.56830  0.31670  0.91410  Biso   1.000  C
  C189     1.0000 0.81830  0.93330  0.16410  Biso   1.000  C
  C190     1.0000 0.18170  0.06670  0.16410  Biso   1.000  C
  C191     1.0000 0.43170  0.18330  0.41410  Biso   1.000  C
  C192     1.0000 0.56830  0.81670  0.41410  Biso   1.000  C
  H177     1.0000 0.28490  0.44390  0.19660  Biso   1.000  H
  H178     1.0000 0.71510  0.55610  0.19660  Biso   1.000  H
  H179     1.0000 0.96510  0.69390  0.44660  Biso   1.000  H
  H180     1.0000 0.03490  0.30610  0.44660  Biso   1.000  H
  H181     1.0000 0.28490  0.94390  0.69660  Biso   1.000  H
  H182     1.0000 0.71510  0.05610  0.69660  Biso   1.000  H
  H183     1.0000 0.96510  0.19390  0.94660  Biso   1.000  H
  H184     1.0000 0.03490  0.80610  0.94660  Biso   1.000  H
  H185     1.0000 0.78490  0.44390  0.69660  Biso   1.000  H
  H186     1.0000 0.21510  0.55610  0.69660  Biso   1.000  H
  H187     1.0000 0.46510  0.69390  0.94660  Biso   1.000  H
  H188     1.0000 0.53490  0.30610  0.94660  Biso   1.000  H
  H189     1.0000 0.78490  0.94390  0.19660  Biso   1.000  H
  H190     1.0000 0.21510  0.05610  0.19660  Biso   1.000  H
  H191     1.0000 0.46510  0.19390  0.44660  Biso   1.000  H
  H192     1.0000 0.53490  0.80610  0.44660  Biso   1.000  H
  C193     1.0000 0.37040  0.44770  0.20940  Biso   1.000  C
  C194     1.0000 0.62960  0.55230  0.20940  Biso   1.000  C
  C195     1.0000 0.87960  0.69770  0.45940  Biso   1.000  C
  C196     1.0000 0.12040  0.30230  0.45940  Biso   1.000  C
  C197     1.0000 0.37040  0.94770  0.70940  Biso   1.000  C
  C198     1.0000 0.62960  0.05230  0.70940  Biso   1.000  C
  C199     1.0000 0.87960  0.19770  0.95940  Biso   1.000  C
  C200     1.0000 0.12040  0.80230  0.95940  Biso   1.000  C
  C201     1.0000 0.87040  0.44770  0.70940  Biso   1.000  C
  C202     1.0000 0.12960  0.55230  0.70940  Biso   1.000  C
  C203     1.0000 0.37960  0.69770  0.95940  Biso   1.000  C
  C204     1.0000 0.62040  0.30230  0.95940  Biso   1.000  C
  C205     1.0000 0.87040  0.94770  0.20940  Biso   1.000  C
  C206     1.0000 0.12960  0.05230  0.20940  Biso   1.000  C
  C207     1.0000 0.37960  0.19770  0.45940  Biso   1.000  C
  C208     1.0000 0.62040  0.80230  0.45940  Biso   1.000  C
  C209     1.0000 0.41520  0.42920  0.15780  Biso   1.000  C
  C210     1.0000 0.58480  0.57080  0.15780  Biso   1.000  C
  C211     1.0000 0.83480  0.67920  0.40780  Biso   1.000  C
  C212     1.0000 0.16520  0.32080  0.40780  Biso   1.000  C
  C213     1.0000 0.41520  0.92920  0.65780  Biso   1.000  C
  C214     1.0000 0.58480  0.07080  0.65780  Biso   1.000  C
  C215     1.0000 0.83480  0.17920  0.90780  Biso   1.000  C
  C216     1.0000 0.16520  0.82080  0.90780  Biso   1.000  C
  C217     1.0000 0.91520  0.42920  0.65780  Biso   1.000  C
  C218     1.0000 0.08480  0.57080  0.65780  Biso   1.000  C
  C219     1.0000 0.33480  0.67920  0.90780  Biso   1.000  C
  C220     1.0000 0.66520  0.32080  0.90780  Biso   1.000  C
  C221     1.0000 0.91520  0.92920  0.15780  Biso   1.000  C
  C222     1.0000 0.08480  0.07080  0.15780  Biso   1.000  C
  C223     1.0000 0.33480  0.17920  0.40780  Biso   1.000  C
  C224     1.0000 0.66520  0.82080  0.40780  Biso   1.000  C
  H193     1.0000 0.45030  0.43760  0.18590  Biso   1.000  H
  H194     1.0000 0.54970  0.56240  0.18590  Biso   1.000  H
  H195     1.0000 0.79970  0.68760  0.43590  Biso   1.000  H
  H196     1.0000 0.20030  0.31240  0.43590  Biso   1.000  H
  H197     1.0000 0.45030  0.93760  0.68590  Biso   1.000  H
  H198     1.0000 0.54970  0.06240  0.68590  Biso   1.000  H
  H199     1.0000 0.79970  0.18760  0.93590  Biso   1.000  H
  H200     1.0000 0.20030  0.81240  0.93590  Biso   1.000  H
  H201     1.0000 0.95030  0.43760  0.68590  Biso   1.000  H
  H202     1.0000 0.04970  0.56240  0.68590  Biso   1.000  H
  H203     1.0000 0.29970  0.68760  0.93590  Biso   1.000  H
  H204     1.0000 0.70030  0.31240  0.93590  Biso   1.000  H
  H205     1.0000 0.95030  0.93760  0.18590  Biso   1.000  H
  H206     1.0000 0.04970  0.06240  0.18590  Biso   1.000  H
  H207     1.0000 0.29970  0.18760  0.43590  Biso   1.000  H
  H208     1.0000 0.70030  0.81240  0.43590  Biso   1.000  H
  C225     1.0000 0.41200  0.39880  0.06640  Biso   1.000  C
  C226     1.0000 0.58800  0.60120  0.06640  Biso   1.000  C
  C227     1.0000 0.83800  0.64880  0.31640  Biso   1.000  C
  C228     1.0000 0.16200  0.35120  0.31640  Biso   1.000  C
  C229     1.0000 0.41200  0.89880  0.56640  Biso   1.000  C
  C230     1.0000 0.58800  0.10120  0.56640  Biso   1.000  C
  C231     1.0000 0.83800  0.14880  0.81640  Biso   1.000  C
  C232     1.0000 0.16200  0.85120  0.81640  Biso   1.000  C
  C233     1.0000 0.91200  0.39880  0.56640  Biso   1.000  C
  C234     1.0000 0.08800  0.60120  0.56640  Biso   1.000  C
  C235     1.0000 0.33800  0.64880  0.81640  Biso   1.000  C
  C236     1.0000 0.66200  0.35120  0.81640  Biso   1.000  C
  C237     1.0000 0.91200  0.89880  0.06640  Biso   1.000  C
  C238     1.0000 0.08800  0.10120  0.06640  Biso   1.000  C
  C239     1.0000 0.33800  0.14880  0.31640  Biso   1.000  C
  C240     1.0000 0.66200  0.85120  0.31640  Biso   1.000  C
  H209     1.0000 0.44520  0.38730  0.03550  Biso   1.000  H
  H210     1.0000 0.55480  0.61270  0.03550  Biso   1.000  H
  H211     1.0000 0.80480  0.63730  0.28550  Biso   1.000  H
  H212     1.0000 0.19520  0.36270  0.28550  Biso   1.000  H
  H213     1.0000 0.44520  0.88730  0.53550  Biso   1.000  H
  H214     1.0000 0.55480  0.11270  0.53550  Biso   1.000  H
  H215     1.0000 0.80480  0.13730  0.78550  Biso   1.000  H
  H216     1.0000 0.19520  0.86270  0.78550  Biso   1.000  H
  H217     1.0000 0.94520  0.38730  0.53550  Biso   1.000  H
  H218     1.0000 0.05480  0.61270  0.53550  Biso   1.000  H
  H219     1.0000 0.30480  0.63730  0.78550  Biso   1.000  H
  H220     1.0000 0.69520  0.36270  0.78550  Biso   1.000  H
  H221     1.0000 0.94520  0.88730  0.03550  Biso   1.000  H
  H222     1.0000 0.05480  0.11270  0.03550  Biso   1.000  H
  H223     1.0000 0.30480  0.13730  0.28550  Biso   1.000  H
  H224     1.0000 0.69520  0.86270  0.28550  Biso   1.000  H
  C241     1.0000 0.33390  0.54010  0.43070  Biso   1.000  C
  C242     1.0000 0.66610  0.45990  0.43070  Biso   1.000  C
  C243     1.0000 0.91610  0.79010  0.68070  Biso   1.000  C
  C244     1.0000 0.08390  0.20990  0.68070  Biso   1.000  C
  C245     1.0000 0.33390  0.04010  0.93070  Biso   1.000  C
  C246     1.0000 0.66610  0.95990  0.93070  Biso   1.000  C
  C247     1.0000 0.91610  0.29010  0.18070  Biso   1.000  C
  C248     1.0000 0.08390  0.70990  0.18070  Biso   1.000  C
  C249     1.0000 0.83390  0.54010  0.93070  Biso   1.000  C
  C250     1.0000 0.16610  0.45990  0.93070  Biso   1.000  C
  C251     1.0000 0.41610  0.79010  0.18070  Biso   1.000  C
  C252     1.0000 0.58390  0.20990  0.18070  Biso   1.000  C
  C253     1.0000 0.83390  0.04010  0.43070  Biso   1.000  C
  C254     1.0000 0.16610  0.95990  0.43070  Biso   1.000  C
  C255     1.0000 0.41610  0.29010  0.68070  Biso   1.000  C
  C256     1.0000 0.58390  0.70990  0.68070  Biso   1.000  C
  H225     1.0000 0.30350  0.55880  0.44600  Biso   1.000  H
  H226     1.0000 0.69650  0.44120  0.44600  Biso   1.000  H
  H227     1.0000 0.94650  0.80880  0.69600  Biso   1.000  H
  H228     1.0000 0.05350  0.19120  0.69600  Biso   1.000  H
  H229     1.0000 0.30350  0.05880  0.94600  Biso   1.000  H
  H230     1.0000 0.69650  0.94120  0.94600  Biso   1.000  H
  H231     1.0000 0.94650  0.30880  0.19600  Biso   1.000  H
  H232     1.0000 0.05350  0.69120  0.19600  Biso   1.000  H
  H233     1.0000 0.80350  0.55880  0.94600  Biso   1.000  H
  H234     1.0000 0.19650  0.44120  0.94600  Biso   1.000  H
  H235     1.0000 0.44650  0.80880  0.19600  Biso   1.000  H
  H236     1.0000 0.55350  0.19120  0.19600  Biso   1.000  H
  H237     1.0000 0.80350  0.05880  0.44600  Biso   1.000  H
  H238     1.0000 0.19650  0.94120  0.44600  Biso   1.000  H
  H239     1.0000 0.44650  0.30880  0.69600  Biso   1.000  H
  H240     1.0000 0.55350  0.69120  0.69600  Biso   1.000  H
  C257     1.0000 0.33080  0.50780  0.33990  Biso   1.000  C
  C258     1.0000 0.66920  0.49220  0.33990  Biso   1.000  C
  C259     1.0000 0.91920  0.75780  0.58990  Biso   1.000  C
  C260     1.0000 0.08080  0.24220  0.58990  Biso   1.000  C
  C261     1.0000 0.33080  0.00780  0.83990  Biso   1.000  C
  C262     1.0000 0.66920  0.99220  0.83990  Biso   1.000  C
  C263     1.0000 0.91920  0.25780  0.08990  Biso   1.000  C
  C264     1.0000 0.08080  0.74220  0.08990  Biso   1.000  C
  C265     1.0000 0.83080  0.50780  0.83990  Biso   1.000  C
  C266     1.0000 0.16920  0.49220  0.83990  Biso   1.000  C
  C267     1.0000 0.41920  0.75780  0.08990  Biso   1.000  C
  C268     1.0000 0.58080  0.24220  0.08990  Biso   1.000  C
  C269     1.0000 0.83080  0.00780  0.33990  Biso   1.000  C
  C270     1.0000 0.16920  0.99220  0.33990  Biso   1.000  C
  C271     1.0000 0.41920  0.25780  0.58990  Biso   1.000  C
  C272     1.0000 0.58080  0.74220  0.58990  Biso   1.000  C
  H241     1.0000 0.29740  0.50490  0.29730  Biso   1.000  H
  H242     1.0000 0.70260  0.49510  0.29730  Biso   1.000  H
  H243     1.0000 0.95260  0.75490  0.54730  Biso   1.000  H
  H244     1.0000 0.04740  0.24510  0.54730  Biso   1.000  H
  H245     1.0000 0.29740  0.00490  0.79730  Biso   1.000  H
  H246     1.0000 0.70260  0.99510  0.79730  Biso   1.000  H
  H247     1.0000 0.95260  0.25490  0.04730  Biso   1.000  H
  H248     1.0000 0.04740  0.74510  0.04730  Biso   1.000  H
  H249     1.0000 0.79740  0.50490  0.79730  Biso   1.000  H
  H250     1.0000 0.20260  0.49510  0.79730  Biso   1.000  H
  H251     1.0000 0.45260  0.75490  0.04730  Biso   1.000  H
  H252     1.0000 0.54740  0.24510  0.04730  Biso   1.000  H
  H253     1.0000 0.79740  0.00490  0.29730  Biso   1.000  H
  H254     1.0000 0.20260  0.99510  0.29730  Biso   1.000  H
  H255     1.0000 0.45260  0.25490  0.54730  Biso   1.000  H
  H256     1.0000 0.54740  0.74510  0.54730  Biso   1.000  H
  C273     1.0000 0.37350  0.48050  0.31020  Biso   1.000  C
  C274     1.0000 0.62650  0.51950  0.31020  Biso   1.000  C
  C275     1.0000 0.87650  0.73050  0.56020  Biso   1.000  C
  C276     1.0000 0.12350  0.26950  0.56020  Biso   1.000  C
  C277     1.0000 0.37350  0.98050  0.81020  Biso   1.000  C
  C278     1.0000 0.62650  0.01950  0.81020  Biso   1.000  C
  C279     1.0000 0.87650  0.23050  0.06020  Biso   1.000  C
  C280     1.0000 0.12350  0.76950  0.06020  Biso   1.000  C
  C281     1.0000 0.87350  0.48050  0.81020  Biso   1.000  C
  C282     1.0000 0.12650  0.51950  0.81020  Biso   1.000  C
  C283     1.0000 0.37650  0.73050  0.06020  Biso   1.000  C
  C284     1.0000 0.62350  0.26950  0.06020  Biso   1.000  C
  C285     1.0000 0.87350  0.98050  0.31020  Biso   1.000  C
  C286     1.0000 0.12650  0.01950  0.31020  Biso   1.000  C
  C287     1.0000 0.37650  0.23050  0.56020  Biso   1.000  C
  C288     1.0000 0.62350  0.76950  0.56020  Biso   1.000  C
  C289     1.0000 0.41860  0.48460  0.38250  Biso   1.000  C
  C290     1.0000 0.58140  0.51540  0.38250  Biso   1.000  C
  C291     1.0000 0.83140  0.73460  0.63250  Biso   1.000  C
  C292     1.0000 0.16860  0.26540  0.63250  Biso   1.000  C
  C293     1.0000 0.41860  0.98460  0.88250  Biso   1.000  C
  C294     1.0000 0.58140  0.01540  0.88250  Biso   1.000  C
  C295     1.0000 0.83140  0.23460  0.13250  Biso   1.000  C
  C296     1.0000 0.16860  0.76540  0.13250  Biso   1.000  C
  C297     1.0000 0.91860  0.48460  0.88250  Biso   1.000  C
  C298     1.0000 0.08140  0.51540  0.88250  Biso   1.000  C
  C299     1.0000 0.33140  0.73460  0.13250  Biso   1.000  C
  C300     1.0000 0.66860  0.26540  0.13250  Biso   1.000  C
  C301     1.0000 0.91860  0.98460  0.38250  Biso   1.000  C
  C302     1.0000 0.08140  0.01540  0.38250  Biso   1.000  C
  C303     1.0000 0.33140  0.23460  0.63250  Biso   1.000  C
  C304     1.0000 0.66860  0.76540  0.63250  Biso   1.000  C
  H257     1.0000 0.44950  0.46610  0.37050  Biso   1.000  H
  H258     1.0000 0.55050  0.53390  0.37050  Biso   1.000  H
  H259     1.0000 0.80050  0.71610  0.62050  Biso   1.000  H
  H260     1.0000 0.19950  0.28390  0.62050  Biso   1.000  H
  H261     1.0000 0.44950  0.96610  0.87050  Biso   1.000  H
  H262     1.0000 0.55050  0.03390  0.87050  Biso   1.000  H
  H263     1.0000 0.80050  0.21610  0.12050  Biso   1.000  H
  H264     1.0000 0.19950  0.78390  0.12050  Biso   1.000  H
  H265     1.0000 0.94950  0.46610  0.87050  Biso   1.000  H
  H266     1.0000 0.05050  0.53390  0.87050  Biso   1.000  H
  H267     1.0000 0.30050  0.71610  0.12050  Biso   1.000  H
  H268     1.0000 0.69950  0.28390  0.12050  Biso   1.000  H
  H269     1.0000 0.94950  0.96610  0.37050  Biso   1.000  H
  H270     1.0000 0.05050  0.03390  0.37050  Biso   1.000  H
  H271     1.0000 0.30050  0.21610  0.62050  Biso   1.000  H
  H272     1.0000 0.69950  0.78390  0.62050  Biso   1.000  H
  C305     1.0000 0.41930  0.51560  0.47280  Biso   1.000  C
  C306     1.0000 0.58070  0.48440  0.47280  Biso   1.000  C
  C307     1.0000 0.83070  0.76560  0.72280  Biso   1.000  C
  C308     1.0000 0.16930  0.23440  0.72280  Biso   1.000  C
  C309     1.0000 0.41930  0.01560  0.97280  Biso   1.000  C
  C310     1.0000 0.58070  0.98440  0.97280  Biso   1.000  C
  C311     1.0000 0.83070  0.26560  0.22280  Biso   1.000  C
  C312     1.0000 0.16930  0.73440  0.22280  Biso   1.000  C
  C313     1.0000 0.91930  0.51560  0.97280  Biso   1.000  C
  C314     1.0000 0.08070  0.48440  0.97280  Biso   1.000  C
  C315     1.0000 0.33070  0.76560  0.22280  Biso   1.000  C
  C316     1.0000 0.66930  0.23440  0.22280  Biso   1.000  C
  C317     1.0000 0.91930  0.01560  0.47280  Biso   1.000  C
  C318     1.0000 0.08070  0.98440  0.47280  Biso   1.000  C
  C319     1.0000 0.33070  0.26560  0.72280  Biso   1.000  C
  C320     1.0000 0.66930  0.73440  0.72280  Biso   1.000  C
  H273     1.0000 0.45060  0.51650  0.52300  Biso   1.000  H
  H274     1.0000 0.54940  0.48350  0.52300  Biso   1.000  H
  H275     1.0000 0.79940  0.76650  0.77300  Biso   1.000  H
  H276     1.0000 0.20060  0.23350  0.77300  Biso   1.000  H
  H277     1.0000 0.45060  0.01650  0.02300  Biso   1.000  H
  H278     1.0000 0.54940  0.98350  0.02300  Biso   1.000  H
  H279     1.0000 0.79940  0.26650  0.27300  Biso   1.000  H
  H280     1.0000 0.20060  0.73350  0.27300  Biso   1.000  H
  H281     1.0000 0.95060  0.51650  0.02300  Biso   1.000  H
  H282     1.0000 0.04940  0.48350  0.02300  Biso   1.000  H
  H283     1.0000 0.29940  0.76650  0.27300  Biso   1.000  H
  H284     1.0000 0.70060  0.23350  0.27300  Biso   1.000  H
  H285     1.0000 0.95060  0.01650  0.52300  Biso   1.000  H
  H286     1.0000 0.04940  0.98350  0.52300  Biso   1.000  H
  H287     1.0000 0.29940  0.26650  0.77300  Biso   1.000  H
  H288     1.0000 0.70060  0.73350  0.77300  Biso   1.000  H
  O97      1.0000 0.49680  0.46010  0.89450  Biso   1.000  O
  O98      1.0000 0.50320  0.53990  0.89450  Biso   1.000  O
  O99      1.0000 0.75320  0.71010  0.14450  Biso   1.000  O
  O100     1.0000 0.24680  0.28990  0.14450  Biso   1.000  O
  O101     1.0000 0.49680  0.96010  0.39450  Biso   1.000  O
  O102     1.0000 0.50320  0.03990  0.39450  Biso   1.000  O
  O103     1.0000 0.75320  0.21010  0.64450  Biso   1.000  O
  O104     1.0000 0.24680  0.78990  0.64450  Biso   1.000  O
  O105     1.0000 0.99680  0.46010  0.39450  Biso   1.000  O
  O106     1.0000 0.00320  0.53990  0.39450  Biso   1.000  O
  O107     1.0000 0.25320  0.71010  0.64450  Biso   1.000  O
  O108     1.0000 0.74680  0.28990  0.64450  Biso   1.000  O
  O109     1.0000 0.99680  0.96010  0.89450  Biso   1.000  O
  O110     1.0000 0.00320  0.03990  0.89450  Biso   1.000  O
  O111     1.0000 0.25320  0.21010  0.14450  Biso   1.000  O
  O112     1.0000 0.74680  0.78990  0.14450  Biso   1.000  O
