data_image0
_cell_length_a       11.2073
_cell_length_b       28.6467
_cell_length_c       21.996
_cell_angle_alpha    90
_cell_angle_beta     117.764
_cell_angle_gamma    90

_symmetry_space_group_name_H-M    "P 1"
_symmetry_int_tables_number       1

loop_
  _symmetry_equiv_pos_as_xyz
  'x, y, z'

loop_
  _atom_site_label
  _atom_site_occupancy
  _atom_site_fract_x
  _atom_site_fract_y
  _atom_site_fract_z
  _atom_site_thermal_displace_type
  _atom_site_B_iso_or_equiv
  _atom_site_type_symbol
  Cu1      1.0000 0.49716  0.25132  0.29910  Biso   1.000  Cu
  Cu2      1.0000 0.50284  0.75132  0.20090  Biso   1.000  Cu
  Cu3      1.0000 0.50284  0.74868  0.70090  Biso   1.000  Cu
  Cu4      1.0000 0.49716  0.24868  0.79910  Biso   1.000  Cu
  Cu5      1.0000 0.50564  0.36738  0.28022  Biso   1.000  Cu
  Cu6      1.0000 0.49436  0.86738  0.21978  Biso   1.000  Cu
  Cu7      1.0000 0.49436  0.63262  0.71978  Biso   1.000  Cu
  Cu8      1.0000 0.50564  0.13262  0.78022  Biso   1.000  Cu
  Cu9      1.0000 0.00000  0.00000  0.00000  Biso   1.000  Cu
  Cu10     1.0000 0.00000  0.50000  0.50000  Biso   1.000  Cu
  Cu11     1.0000 0.00000  0.00000  0.50000  Biso   1.000  Cu
  Cu12     1.0000 0.00000  0.50000  0.00000  Biso   1.000  Cu
  Cl1      1.0000 0.69820  0.21579  0.54879  Biso   1.000  Cl
  Cl2      1.0000 0.30180  0.71579  0.95121  Biso   1.000  Cl
  Cl3      1.0000 0.30180  0.78421  0.45121  Biso   1.000  Cl
  Cl4      1.0000 0.69820  0.28421  0.04879  Biso   1.000  Cl
  Cl5      1.0000 0.50000  0.00000  0.00000  Biso   1.000  Cl
  Cl6      1.0000 0.50000  0.50000  0.50000  Biso   1.000  Cl
  O1       1.0000 0.10830  0.05860  0.02290  Biso   1.000  O
  O2       1.0000 0.89170  0.55860  0.47710  Biso   1.000  O
  O3       1.0000 0.89170  0.94140  0.97710  Biso   1.000  O
  O4       1.0000 0.10830  0.44140  0.52290  Biso   1.000  O
  O5       1.0000 0.96010  0.10920  0.02460  Biso   1.000  O
  O6       1.0000 0.03990  0.60920  0.47540  Biso   1.000  O
  O7       1.0000 0.03990  0.89080  0.97540  Biso   1.000  O
  O8       1.0000 0.96010  0.39080  0.52460  Biso   1.000  O
  O9       1.0000 0.17790  0.26370  0.05680  Biso   1.000  O
  O10      1.0000 0.82210  0.76370  0.44320  Biso   1.000  O
  O11      1.0000 0.82210  0.73630  0.94320  Biso   1.000  O
  O12      1.0000 0.17790  0.23630  0.55680  Biso   1.000  O
  O13      1.0000 0.39370  0.26738  0.18780  Biso   1.000  O
  O14      1.0000 0.60630  0.76738  0.31220  Biso   1.000  O
  O15      1.0000 0.60630  0.73262  0.81220  Biso   1.000  O
  O16      1.0000 0.39370  0.23262  0.68780  Biso   1.000  O
  O17      1.0000 0.41030  0.34457  0.17460  Biso   1.000  O
  O18      1.0000 0.58970  0.84457  0.32540  Biso   1.000  O
  O19      1.0000 0.58970  0.65543  0.82540  Biso   1.000  O
  O20      1.0000 0.41030  0.15543  0.67460  Biso   1.000  O
  O21      1.0000 0.15010  0.86210  0.61530  Biso   1.000  O
  O22      1.0000 0.84990  0.36210  0.88470  Biso   1.000  O
  O23      1.0000 0.84990  0.13790  0.38470  Biso   1.000  O
  O24      1.0000 0.15010  0.63790  0.11530  Biso   1.000  O
  O25      1.0000 0.08390  0.93750  0.52920  Biso   1.000  O
  O26      1.0000 0.91610  0.43750  0.97080  Biso   1.000  O
  O27      1.0000 0.91610  0.06250  0.47080  Biso   1.000  O
  O28      1.0000 0.08390  0.56250  0.02920  Biso   1.000  O
  O29      1.0000 0.92990  0.89440  0.44400  Biso   1.000  O
  O30      1.0000 0.07010  0.39440  0.05600  Biso   1.000  O
  O31      1.0000 0.07010  0.10560  0.55600  Biso   1.000  O
  O32      1.0000 0.92990  0.60560  0.94400  Biso   1.000  O
  O33      1.0000 0.54090  0.31304  0.33870  Biso   1.000  O
  O34      1.0000 0.45910  0.81304  0.16130  Biso   1.000  O
  O35      1.0000 0.45910  0.68696  0.66130  Biso   1.000  O
  O36      1.0000 0.54090  0.18696  0.83870  Biso   1.000  O
  O37      1.0000 0.21950  0.95850  0.04940  Biso   1.000  O
  O38      1.0000 0.78050  0.45850  0.45060  Biso   1.000  O
  O39      1.0000 0.78050  0.04150  0.95060  Biso   1.000  O
  O40      1.0000 0.21950  0.54150  0.54940  Biso   1.000  O
  H1       1.0000 0.20340  0.93100  0.03350  Biso   1.000  H
  H2       1.0000 0.79660  0.43100  0.46650  Biso   1.000  H
  H3       1.0000 0.79660  0.06900  0.96650  Biso   1.000  H
  H4       1.0000 0.20340  0.56900  0.53350  Biso   1.000  H
  H5       1.0000 0.28320  0.97060  0.04410  Biso   1.000  H
  H6       1.0000 0.71680  0.47060  0.45590  Biso   1.000  H
  H7       1.0000 0.71680  0.02940  0.95590  Biso   1.000  H
  H8       1.0000 0.28320  0.52940  0.54410  Biso   1.000  H
  O41      1.0000 0.63600  0.22200  0.47360  Biso   1.000  O
  O42      1.0000 0.36400  0.72200  0.02640  Biso   1.000  O
  O43      1.0000 0.36400  0.77800  0.52640  Biso   1.000  O
  O44      1.0000 0.63600  0.27800  0.97360  Biso   1.000  O
  O45      1.0000 0.77910  0.25680  0.58120  Biso   1.000  O
  O46      1.0000 0.22090  0.75680  0.91880  Biso   1.000  O
  O47      1.0000 0.22090  0.74320  0.41880  Biso   1.000  O
  O48      1.0000 0.77910  0.24320  0.08120  Biso   1.000  O
  O49      1.0000 0.59800  0.20960  0.57070  Biso   1.000  O
  O50      1.0000 0.40200  0.70960  0.92930  Biso   1.000  O
  O51      1.0000 0.40200  0.79040  0.42930  Biso   1.000  O
  O52      1.0000 0.59800  0.29040  0.07070  Biso   1.000  O
  O53      1.0000 0.78260  0.17510  0.56880  Biso   1.000  O
  O54      1.0000 0.21740  0.67510  0.93120  Biso   1.000  O
  O55      1.0000 0.21740  0.82490  0.43120  Biso   1.000  O
  O56      1.0000 0.78260  0.32490  0.06880  Biso   1.000  O
  N1       1.0000 0.00790  0.99810  0.09180  Biso   1.000  N
  N2       1.0000 0.99210  0.49810  0.40820  Biso   1.000  N
  N3       1.0000 0.99210  0.00190  0.90820  Biso   1.000  N
  N4       1.0000 0.00790  0.50190  0.59180  Biso   1.000  N
  N5       1.0000 0.00040  0.99630  0.41010  Biso   1.000  N
  N6       1.0000 0.99960  0.49630  0.08990  Biso   1.000  N
  N7       1.0000 0.99960  0.00370  0.58990  Biso   1.000  N
  N8       1.0000 0.00040  0.50370  0.91010  Biso   1.000  N
  N9       1.0000 0.48130  0.18090  0.28480  Biso   1.000  N
  N10      1.0000 0.51870  0.68090  0.21520  Biso   1.000  N
  N11      1.0000 0.51870  0.81910  0.71520  Biso   1.000  N
  N12      1.0000 0.48130  0.31910  0.78480  Biso   1.000  N
  N13      1.0000 0.50640  0.93690  0.24090  Biso   1.000  N
  N14      1.0000 0.49360  0.43690  0.25910  Biso   1.000  N
  N15      1.0000 0.49360  0.06310  0.75910  Biso   1.000  N
  N16      1.0000 0.50640  0.56310  0.74090  Biso   1.000  N
  N17      1.0000 0.31880  0.25050  0.30380  Biso   1.000  N
  N18      1.0000 0.68120  0.75050  0.19620  Biso   1.000  N
  N19      1.0000 0.68120  0.74950  0.69620  Biso   1.000  N
  N20      1.0000 0.31880  0.24950  0.80380  Biso   1.000  N
  N21      1.0000 0.68380  0.24640  0.30470  Biso   1.000  N
  N22      1.0000 0.31620  0.74640  0.19530  Biso   1.000  N
  N23      1.0000 0.31620  0.75360  0.69530  Biso   1.000  N
  N24      1.0000 0.68380  0.25360  0.80470  Biso   1.000  N
  N25      1.0000 0.32390  0.37330  0.28120  Biso   1.000  N
  N26      1.0000 0.67610  0.87330  0.21880  Biso   1.000  N
  N27      1.0000 0.67610  0.62670  0.71880  Biso   1.000  N
  N28      1.0000 0.32390  0.12670  0.78120  Biso   1.000  N
  N29      1.0000 0.69170  0.36660  0.28300  Biso   1.000  N
  N30      1.0000 0.30830  0.86660  0.21700  Biso   1.000  N
  N31      1.0000 0.30830  0.63340  0.71700  Biso   1.000  N
  N32      1.0000 0.69170  0.13340  0.78300  Biso   1.000  N
  C1       1.0000 0.06870  0.09860  0.02540  Biso   1.000  C
  C2       1.0000 0.93130  0.59860  0.47460  Biso   1.000  C
  C3       1.0000 0.93130  0.90140  0.97460  Biso   1.000  C
  C4       1.0000 0.06870  0.40140  0.52540  Biso   1.000  C
  C5       1.0000 0.16530  0.13900  0.03410  Biso   1.000  C
  C6       1.0000 0.83470  0.63900  0.46590  Biso   1.000  C
  C7       1.0000 0.83470  0.86100  0.96590  Biso   1.000  C
  C8       1.0000 0.16530  0.36100  0.53410  Biso   1.000  C
  C9       1.0000 0.28880  0.12960  0.03180  Biso   1.000  C
  C10      1.0000 0.71120  0.62960  0.46820  Biso   1.000  C
  C11      1.0000 0.71120  0.87040  0.96820  Biso   1.000  C
  C12      1.0000 0.28880  0.37040  0.53180  Biso   1.000  C
  H9       1.0000 0.31040  0.09920  0.02580  Biso   1.000  H
  H10      1.0000 0.68960  0.59920  0.47420  Biso   1.000  H
  H11      1.0000 0.68960  0.90080  0.97420  Biso   1.000  H
  H12      1.0000 0.31040  0.40080  0.52580  Biso   1.000  H
  C13      1.0000 0.37670  0.16630  0.03850  Biso   1.000  C
  C14      1.0000 0.62330  0.66630  0.46150  Biso   1.000  C
  C15      1.0000 0.62330  0.83370  0.96150  Biso   1.000  C
  C16      1.0000 0.37670  0.33370  0.53850  Biso   1.000  C
  C17      1.0000 0.33870  0.21140  0.04760  Biso   1.000  C
  C18      1.0000 0.66130  0.71140  0.45240  Biso   1.000  C
  C19      1.0000 0.66130  0.78860  0.95240  Biso   1.000  C
  C20      1.0000 0.33870  0.28860  0.54760  Biso   1.000  C
  H13      1.0000 0.39670  0.23600  0.05290  Biso   1.000  H
  H14      1.0000 0.60330  0.73600  0.44710  Biso   1.000  H
  H15      1.0000 0.60330  0.76400  0.94710  Biso   1.000  H
  H16      1.0000 0.39670  0.26400  0.55290  Biso   1.000  H
  C21      1.0000 0.22380  0.22050  0.04910  Biso   1.000  C
  C22      1.0000 0.77620  0.72050  0.45090  Biso   1.000  C
  C23      1.0000 0.77620  0.77950  0.95090  Biso   1.000  C
  C24      1.0000 0.22380  0.27950  0.54910  Biso   1.000  C
  C25      1.0000 0.13490  0.18410  0.04190  Biso   1.000  C
  C26      1.0000 0.86510  0.68410  0.45810  Biso   1.000  C
  C27      1.0000 0.86510  0.81590  0.95810  Biso   1.000  C
  C28      1.0000 0.13490  0.31590  0.54190  Biso   1.000  C
  H17      1.0000 0.05410  0.19060  0.04240  Biso   1.000  H
  H18      1.0000 0.94590  0.69060  0.45760  Biso   1.000  H
  H19      1.0000 0.94590  0.80940  0.95760  Biso   1.000  H
  H20      1.0000 0.05410  0.30940  0.54240  Biso   1.000  H
  C29      1.0000 0.50800  0.15600  0.03770  Biso   1.000  C
  C30      1.0000 0.49200  0.65600  0.46230  Biso   1.000  C
  C31      1.0000 0.49200  0.84400  0.96230  Biso   1.000  C
  C32      1.0000 0.50800  0.34400  0.53770  Biso   1.000  C
  H21      1.0000 0.57940  0.15430  0.08410  Biso   1.000  H
  H22      1.0000 0.42060  0.65430  0.41590  Biso   1.000  H
  H23      1.0000 0.42060  0.84570  0.91590  Biso   1.000  H
  H24      1.0000 0.57940  0.34570  0.58410  Biso   1.000  H
  H25      1.0000 0.52710  0.18040  0.01360  Biso   1.000  H
  H26      1.0000 0.47290  0.68040  0.48640  Biso   1.000  H
  H27      1.0000 0.47290  0.81960  0.98640  Biso   1.000  H
  H28      1.0000 0.52710  0.31960  0.51360  Biso   1.000  H
  H29      1.0000 0.50110  0.12680  0.01500  Biso   1.000  H
  H30      1.0000 0.49890  0.62680  0.48500  Biso   1.000  H
  H31      1.0000 0.49890  0.87320  0.98500  Biso   1.000  H
  H32      1.0000 0.50110  0.37320  0.51500  Biso   1.000  H
  C33      1.0000 0.27010  0.30260  0.07550  Biso   1.000  C
  C34      1.0000 0.72990  0.80260  0.42450  Biso   1.000  C
  C35      1.0000 0.72990  0.69740  0.92450  Biso   1.000  C
  C36      1.0000 0.27010  0.19740  0.57550  Biso   1.000  C
  H33      1.0000 0.21910  0.33150  0.06190  Biso   1.000  H
  H34      1.0000 0.78090  0.83150  0.43810  Biso   1.000  H
  H35      1.0000 0.78090  0.66850  0.93810  Biso   1.000  H
  H36      1.0000 0.21910  0.16850  0.56190  Biso   1.000  H
  H37      1.0000 0.32270  0.30030  0.05090  Biso   1.000  H
  H38      1.0000 0.67730  0.80030  0.44910  Biso   1.000  H
  H39      1.0000 0.67730  0.69970  0.94910  Biso   1.000  H
  H40      1.0000 0.32270  0.19970  0.55090  Biso   1.000  H
  C37      1.0000 0.36660  0.30380  0.15380  Biso   1.000  C
  C38      1.0000 0.63340  0.80380  0.34620  Biso   1.000  C
  C39      1.0000 0.63340  0.69620  0.84620  Biso   1.000  C
  C40      1.0000 0.36660  0.19620  0.65380  Biso   1.000  C
  C41      1.0000 0.67570  0.87820  0.57040  Biso   1.000  C
  C42      1.0000 0.32430  0.37820  0.92960  Biso   1.000  C
  C43      1.0000 0.32430  0.12180  0.42960  Biso   1.000  C
  C44      1.0000 0.67570  0.62180  0.07040  Biso   1.000  C
  H41      1.0000 0.64130  0.84690  0.56100  Biso   1.000  H
  H42      1.0000 0.35870  0.34690  0.93900  Biso   1.000  H
  H43      1.0000 0.35870  0.15310  0.43900  Biso   1.000  H
  H44      1.0000 0.64130  0.65310  0.06100  Biso   1.000  H
  H45      1.0000 0.62920  0.89560  0.59020  Biso   1.000  H
  H46      1.0000 0.37080  0.39560  0.90980  Biso   1.000  H
  H47      1.0000 0.37080  0.10440  0.40980  Biso   1.000  H
  H48      1.0000 0.62920  0.60440  0.09020  Biso   1.000  H
  H49      1.0000 0.66180  0.89290  0.52830  Biso   1.000  H
  H50      1.0000 0.33820  0.39290  0.97170  Biso   1.000  H
  H51      1.0000 0.33820  0.10710  0.47170  Biso   1.000  H
  H52      1.0000 0.66180  0.60710  0.02830  Biso   1.000  H
  C45      1.0000 0.82970  0.87710  0.62170  Biso   1.000  C
  C46      1.0000 0.17030  0.37710  0.87830  Biso   1.000  C
  C47      1.0000 0.17030  0.12290  0.37830  Biso   1.000  C
  C48      1.0000 0.82970  0.62290  0.12170  Biso   1.000  C
  C49      1.0000 0.91830  0.87130  0.59430  Biso   1.000  C
  C50      1.0000 0.08170  0.37130  0.90570  Biso   1.000  C
  C51      1.0000 0.08170  0.12870  0.40570  Biso   1.000  C
  C52      1.0000 0.91830  0.62870  0.09430  Biso   1.000  C
  H53      1.0000 0.88530  0.86960  0.54690  Biso   1.000  H
  H54      1.0000 0.11470  0.36960  0.95310  Biso   1.000  H
  H55      1.0000 0.11470  0.13040  0.45310  Biso   1.000  H
  H56      1.0000 0.88530  0.63040  0.04690  Biso   1.000  H
  C53      1.0000 0.05610  0.86810  0.63760  Biso   1.000  C
  C54      1.0000 0.94390  0.36810  0.86240  Biso   1.000  C
  C55      1.0000 0.94390  0.13190  0.36240  Biso   1.000  C
  C56      1.0000 0.05610  0.63190  0.13760  Biso   1.000  C
  C57      1.0000 0.10540  0.87060  0.70840  Biso   1.000  C
  C58      1.0000 0.89460  0.37060  0.79160  Biso   1.000  C
  C59      1.0000 0.89460  0.12940  0.29160  Biso   1.000  C
  C60      1.0000 0.10540  0.62940  0.20840  Biso   1.000  C
  H57      1.0000 0.19760  0.86850  0.73740  Biso   1.000  H
  H58      1.0000 0.80240  0.36850  0.76260  Biso   1.000  H
  H59      1.0000 0.80240  0.13150  0.26260  Biso   1.000  H
  H60      1.0000 0.19760  0.63150  0.23740  Biso   1.000  H
  C61      1.0000 0.01690  0.87640  0.73580  Biso   1.000  C
  C62      1.0000 0.98310  0.37640  0.76420  Biso   1.000  C
  C63      1.0000 0.98310  0.12360  0.26420  Biso   1.000  C
  C64      1.0000 0.01690  0.62360  0.23580  Biso   1.000  C
  C65      1.0000 0.87910  0.87970  0.69240  Biso   1.000  C
  C66      1.0000 0.12090  0.37970  0.80760  Biso   1.000  C
  C67      1.0000 0.12090  0.12030  0.30760  Biso   1.000  C
  C68      1.0000 0.87910  0.62030  0.19240  Biso   1.000  C
  H61      1.0000 0.81980  0.88350  0.71080  Biso   1.000  H
  H62      1.0000 0.18020  0.38350  0.78920  Biso   1.000  H
  H63      1.0000 0.18020  0.11650  0.28920  Biso   1.000  H
  H64      1.0000 0.81980  0.61650  0.21080  Biso   1.000  H
  C69      1.0000 0.09200  0.85580  0.54330  Biso   1.000  C
  C70      1.0000 0.90800  0.35580  0.95670  Biso   1.000  C
  C71      1.0000 0.90800  0.14420  0.45670  Biso   1.000  C
  C72      1.0000 0.09200  0.64420  0.04330  Biso   1.000  C
  H65      1.0000 0.16120  0.84480  0.53200  Biso   1.000  H
  H66      1.0000 0.83880  0.34480  0.96800  Biso   1.000  H
  H67      1.0000 0.83880  0.15520  0.46800  Biso   1.000  H
  H68      1.0000 0.16120  0.65520  0.03200  Biso   1.000  H
  H69      1.0000 0.02330  0.83180  0.52960  Biso   1.000  H
  H70      1.0000 0.97670  0.33180  0.97040  Biso   1.000  H
  H71      1.0000 0.97670  0.16820  0.47040  Biso   1.000  H
  H72      1.0000 0.02330  0.66820  0.02960  Biso   1.000  H
  C73      1.0000 0.02960  0.89950  0.50260  Biso   1.000  C
  C74      1.0000 0.97040  0.39950  0.99740  Biso   1.000  C
  C75      1.0000 0.97040  0.10050  0.49740  Biso   1.000  C
  C76      1.0000 0.02960  0.60050  0.00260  Biso   1.000  C
  C77      1.0000 0.89530  0.98770  0.09660  Biso   1.000  C
  C78      1.0000 0.10470  0.48770  0.40340  Biso   1.000  C
  C79      1.0000 0.10470  0.01230  0.90340  Biso   1.000  C
  C80      1.0000 0.89530  0.51230  0.59660  Biso   1.000  C
  H73      1.0000 0.81680  0.98030  0.05700  Biso   1.000  H
  H74      1.0000 0.18320  0.48030  0.44300  Biso   1.000  H
  H75      1.0000 0.18320  0.01970  0.94300  Biso   1.000  H
  H76      1.0000 0.81680  0.51970  0.55700  Biso   1.000  H
  C81      1.0000 0.89370  0.98780  0.15860  Biso   1.000  C
  C82      1.0000 0.10630  0.48780  0.34140  Biso   1.000  C
  C83      1.0000 0.10630  0.01220  0.84140  Biso   1.000  C
  C84      1.0000 0.89370  0.51220  0.65860  Biso   1.000  C
  H77      1.0000 0.81380  0.98120  0.16000  Biso   1.000  H
  H78      1.0000 0.18620  0.48120  0.34000  Biso   1.000  H
  H79      1.0000 0.18620  0.01880  0.84000  Biso   1.000  H
  H80      1.0000 0.81380  0.51880  0.66000  Biso   1.000  H
  C85      1.0000 0.00810  0.99740  0.21860  Biso   1.000  C
  C86      1.0000 0.99190  0.49740  0.28140  Biso   1.000  C
  C87      1.0000 0.99190  0.00260  0.78140  Biso   1.000  C
  C88      1.0000 0.00810  0.50260  0.71860  Biso   1.000  C
  C89      1.0000 0.12580  0.00770  0.21400  Biso   1.000  C
  C90      1.0000 0.87420  0.50770  0.28600  Biso   1.000  C
  C91      1.0000 0.87420  0.99230  0.78600  Biso   1.000  C
  C92      1.0000 0.12580  0.49230  0.71400  Biso   1.000  C
  H81      1.0000 0.20590  0.01430  0.25330  Biso   1.000  H
  H82      1.0000 0.79410  0.51430  0.24670  Biso   1.000  H
  H83      1.0000 0.79410  0.98570  0.74670  Biso   1.000  H
  H84      1.0000 0.20590  0.48570  0.75330  Biso   1.000  H
  C93      1.0000 0.12080  0.00800  0.15010  Biso   1.000  C
  C94      1.0000 0.87920  0.50800  0.34990  Biso   1.000  C
  C95      1.0000 0.87920  0.99200  0.84990  Biso   1.000  C
  C96      1.0000 0.12080  0.49200  0.65010  Biso   1.000  C
  H85      1.0000 0.19880  0.01530  0.14710  Biso   1.000  H
  H86      1.0000 0.80120  0.51530  0.35290  Biso   1.000  H
  H87      1.0000 0.80120  0.98470  0.85290  Biso   1.000  H
  H88      1.0000 0.19880  0.48470  0.64710  Biso   1.000  H
  C97      1.0000 0.89250  0.00940  0.35220  Biso   1.000  C
  C98      1.0000 0.10750  0.50940  0.14780  Biso   1.000  C
  C99      1.0000 0.10750  0.99060  0.64780  Biso   1.000  C
  C100     1.0000 0.89250  0.49060  0.85220  Biso   1.000  C
  H89      1.0000 0.81420  0.01790  0.35410  Biso   1.000  H
  H90      1.0000 0.18580  0.51790  0.14590  Biso   1.000  H
  H91      1.0000 0.18580  0.98210  0.64590  Biso   1.000  H
  H92      1.0000 0.81420  0.48210  0.85410  Biso   1.000  H
  C101     1.0000 0.89370  0.01070  0.28970  Biso   1.000  C
  C102     1.0000 0.10630  0.51070  0.21030  Biso   1.000  C
  C103     1.0000 0.10630  0.98930  0.71030  Biso   1.000  C
  C104     1.0000 0.89370  0.48930  0.78970  Biso   1.000  C
  H93      1.0000 0.81820  0.02120  0.25070  Biso   1.000  H
  H94      1.0000 0.18180  0.52120  0.24930  Biso   1.000  H
  H95      1.0000 0.18180  0.97880  0.74930  Biso   1.000  H
  H96      1.0000 0.81820  0.47880  0.75070  Biso   1.000  H
  C105     1.0000 0.00610  0.99670  0.28510  Biso   1.000  C
  C106     1.0000 0.99390  0.49670  0.21490  Biso   1.000  C
  C107     1.0000 0.99390  0.00330  0.71490  Biso   1.000  C
  C108     1.0000 0.00610  0.50330  0.78510  Biso   1.000  C
  C109     1.0000 0.11880  0.98130  0.34560  Biso   1.000  C
  C110     1.0000 0.88120  0.48130  0.15440  Biso   1.000  C
  C111     1.0000 0.88120  0.01870  0.65440  Biso   1.000  C
  C112     1.0000 0.11880  0.51870  0.84560  Biso   1.000  C
  H97      1.0000 0.19730  0.97170  0.34480  Biso   1.000  H
  H98      1.0000 0.80270  0.47170  0.15520  Biso   1.000  H
  H99      1.0000 0.80270  0.02830  0.65520  Biso   1.000  H
  H100     1.0000 0.19730  0.52830  0.84480  Biso   1.000  H
  C113     1.0000 0.10900  0.98100  0.40620  Biso   1.000  C
  C114     1.0000 0.89100  0.48100  0.09380  Biso   1.000  C
  C115     1.0000 0.89100  0.01900  0.59380  Biso   1.000  C
  C116     1.0000 0.10900  0.51900  0.90620  Biso   1.000  C
  H101     1.0000 0.18150  0.96970  0.44580  Biso   1.000  H
  H102     1.0000 0.81850  0.46970  0.05420  Biso   1.000  H
  H103     1.0000 0.81850  0.03030  0.55420  Biso   1.000  H
  H104     1.0000 0.18150  0.53030  0.94580  Biso   1.000  H
  C117     1.0000 0.41710  0.16150  0.22280  Biso   1.000  C
  C118     1.0000 0.58290  0.66150  0.27720  Biso   1.000  C
  C119     1.0000 0.58290  0.83850  0.77720  Biso   1.000  C
  C120     1.0000 0.41710  0.33850  0.72280  Biso   1.000  C
  H105     1.0000 0.37030  0.18090  0.18510  Biso   1.000  H
  H106     1.0000 0.62970  0.68090  0.31490  Biso   1.000  H
  H107     1.0000 0.62970  0.81910  0.81490  Biso   1.000  H
  H108     1.0000 0.37030  0.31910  0.68510  Biso   1.000  H
  C121     1.0000 0.41660  0.11290  0.21160  Biso   1.000  C
  C122     1.0000 0.58340  0.61290  0.28840  Biso   1.000  C
  C123     1.0000 0.58340  0.88710  0.78840  Biso   1.000  C
  C124     1.0000 0.41660  0.38710  0.71160  Biso   1.000  C
  H109     1.0000 0.36930  0.10020  0.16780  Biso   1.000  H
  H110     1.0000 0.63070  0.60020  0.33220  Biso   1.000  H
  H111     1.0000 0.63070  0.89980  0.83220  Biso   1.000  H
  H112     1.0000 0.36930  0.39980  0.66780  Biso   1.000  H
  C125     1.0000 0.49040  0.08450  0.26910  Biso   1.000  C
  C126     1.0000 0.50960  0.58450  0.23090  Biso   1.000  C
  C127     1.0000 0.50960  0.91550  0.73090  Biso   1.000  C
  C128     1.0000 0.49040  0.41550  0.76910  Biso   1.000  C
  C129     1.0000 0.55330  0.10430  0.33340  Biso   1.000  C
  C130     1.0000 0.44670  0.60430  0.16660  Biso   1.000  C
  C131     1.0000 0.44670  0.89570  0.66660  Biso   1.000  C
  C132     1.0000 0.55330  0.39570  0.83340  Biso   1.000  C
  H113     1.0000 0.59940  0.08590  0.37230  Biso   1.000  H
  H114     1.0000 0.40060  0.58590  0.12770  Biso   1.000  H
  H115     1.0000 0.40060  0.91410  0.62770  Biso   1.000  H
  H116     1.0000 0.59940  0.41410  0.87230  Biso   1.000  H
  C133     1.0000 0.54630  0.15320  0.33920  Biso   1.000  C
  C134     1.0000 0.45370  0.65320  0.16080  Biso   1.000  C
  C135     1.0000 0.45370  0.84680  0.66080  Biso   1.000  C
  C136     1.0000 0.54630  0.34680  0.83920  Biso   1.000  C
  H117     1.0000 0.58860  0.16660  0.38270  Biso   1.000  H
  H118     1.0000 0.41140  0.66660  0.11730  Biso   1.000  H
  H119     1.0000 0.41140  0.83340  0.61730  Biso   1.000  H
  H120     1.0000 0.58860  0.33340  0.88270  Biso   1.000  H
  C137     1.0000 0.50550  0.95430  0.29630  Biso   1.000  C
  C138     1.0000 0.49450  0.45430  0.20370  Biso   1.000  C
  C139     1.0000 0.49450  0.04570  0.70370  Biso   1.000  C
  C140     1.0000 0.50550  0.54570  0.79630  Biso   1.000  C
  H121     1.0000 0.50790  0.93360  0.32950  Biso   1.000  H
  H122     1.0000 0.49210  0.43360  0.17050  Biso   1.000  H
  H123     1.0000 0.49210  0.06640  0.67050  Biso   1.000  H
  H124     1.0000 0.50790  0.56640  0.82950  Biso   1.000  H
  C141     1.0000 0.50100  0.00150  0.30740  Biso   1.000  C
  C142     1.0000 0.49900  0.50150  0.19260  Biso   1.000  C
  C143     1.0000 0.49900  0.99850  0.69260  Biso   1.000  C
  C144     1.0000 0.50100  0.49850  0.80740  Biso   1.000  C
  H125     1.0000 0.50220  0.01190  0.34770  Biso   1.000  H
  H126     1.0000 0.49780  0.51190  0.15230  Biso   1.000  H
  H127     1.0000 0.49780  0.98810  0.65230  Biso   1.000  H
  H128     1.0000 0.50220  0.48810  0.84770  Biso   1.000  H
  C145     1.0000 0.49490  0.03330  0.25920  Biso   1.000  C
  C146     1.0000 0.50510  0.53330  0.24080  Biso   1.000  C
  C147     1.0000 0.50510  0.96670  0.74080  Biso   1.000  C
  C148     1.0000 0.49490  0.46670  0.75920  Biso   1.000  C
  C149     1.0000 0.49790  0.01580  0.20150  Biso   1.000  C
  C150     1.0000 0.50210  0.51580  0.29850  Biso   1.000  C
  C151     1.0000 0.50210  0.98420  0.79850  Biso   1.000  C
  C152     1.0000 0.49790  0.48420  0.70150  Biso   1.000  C
  H129     1.0000 0.49560  0.03600  0.16790  Biso   1.000  H
  H130     1.0000 0.50440  0.53600  0.33210  Biso   1.000  H
  H131     1.0000 0.50440  0.96400  0.83210  Biso   1.000  H
  H132     1.0000 0.49560  0.46400  0.66790  Biso   1.000  H
  C153     1.0000 0.50430  0.96740  0.19340  Biso   1.000  C
  C154     1.0000 0.49570  0.46740  0.30660  Biso   1.000  C
  C155     1.0000 0.49570  0.03260  0.80660  Biso   1.000  C
  C156     1.0000 0.50430  0.53260  0.69340  Biso   1.000  C
  H133     1.0000 0.50720  0.95600  0.15450  Biso   1.000  H
  H134     1.0000 0.49280  0.45600  0.34550  Biso   1.000  H
  H135     1.0000 0.49280  0.04400  0.84550  Biso   1.000  H
  H136     1.0000 0.50720  0.54400  0.65450  Biso   1.000  H
  C157     1.0000 0.19960  0.25330  0.24610  Biso   1.000  C
  C158     1.0000 0.80040  0.75330  0.25390  Biso   1.000  C
  C159     1.0000 0.80040  0.74670  0.75390  Biso   1.000  C
  C160     1.0000 0.19960  0.24670  0.74610  Biso   1.000  C
  H137     1.0000 0.20080  0.25610  0.20420  Biso   1.000  H
  H138     1.0000 0.79920  0.75610  0.29580  Biso   1.000  H
  H139     1.0000 0.79920  0.74390  0.79580  Biso   1.000  H
  H140     1.0000 0.20080  0.24390  0.70420  Biso   1.000  H
  C161     1.0000 0.07730  0.25230  0.24560  Biso   1.000  C
  C162     1.0000 0.92270  0.75230  0.25440  Biso   1.000  C
  C163     1.0000 0.92270  0.74770  0.75440  Biso   1.000  C
  C164     1.0000 0.07730  0.24770  0.74560  Biso   1.000  C
  H141     1.0000 0.99880  0.25520  0.20410  Biso   1.000  H
  H142     1.0000 0.00120  0.75520  0.29590  Biso   1.000  H
  H143     1.0000 0.00120  0.74480  0.79590  Biso   1.000  H
  H144     1.0000 0.99880  0.24480  0.70410  Biso   1.000  H
  C165     1.0000 0.06920  0.24710  0.30490  Biso   1.000  C
  C166     1.0000 0.93080  0.74710  0.19510  Biso   1.000  C
  C167     1.0000 0.93080  0.75290  0.69510  Biso   1.000  C
  C168     1.0000 0.06920  0.25290  0.80490  Biso   1.000  C
  C169     1.0000 0.19180  0.24360  0.36640  Biso   1.000  C
  C170     1.0000 0.80820  0.74360  0.13360  Biso   1.000  C
  C171     1.0000 0.80820  0.75640  0.63360  Biso   1.000  C
  C172     1.0000 0.19180  0.25640  0.86640  Biso   1.000  C
  H145     1.0000 0.19250  0.23980  0.40860  Biso   1.000  H
  H146     1.0000 0.80750  0.73980  0.09140  Biso   1.000  H
  H147     1.0000 0.80750  0.76020  0.59140  Biso   1.000  H
  H148     1.0000 0.19250  0.26020  0.90860  Biso   1.000  H
  C173     1.0000 0.31250  0.24600  0.36190  Biso   1.000  C
  C174     1.0000 0.68750  0.74600  0.13810  Biso   1.000  C
  C175     1.0000 0.68750  0.75400  0.63810  Biso   1.000  C
  C176     1.0000 0.31250  0.25400  0.86190  Biso   1.000  C
  H149     1.0000 0.39320  0.24440  0.40250  Biso   1.000  H
  H150     1.0000 0.60680  0.74440  0.09750  Biso   1.000  H
  H151     1.0000 0.60680  0.75560  0.59750  Biso   1.000  H
  H152     1.0000 0.39320  0.25560  0.90250  Biso   1.000  H
  C177     1.0000 0.69360  0.23860  0.24550  Biso   1.000  C
  C178     1.0000 0.30640  0.73860  0.25450  Biso   1.000  C
  C179     1.0000 0.30640  0.76140  0.75450  Biso   1.000  C
  C180     1.0000 0.69360  0.26140  0.74550  Biso   1.000  C
  H153     1.0000 0.61580  0.23360  0.20430  Biso   1.000  H
  H154     1.0000 0.38420  0.73360  0.29570  Biso   1.000  H
  H155     1.0000 0.38420  0.76640  0.79570  Biso   1.000  H
  H156     1.0000 0.61580  0.26640  0.70430  Biso   1.000  H
  C181     1.0000 0.81580  0.23810  0.24670  Biso   1.000  C
  C182     1.0000 0.18420  0.73810  0.25330  Biso   1.000  C
  C183     1.0000 0.18420  0.76190  0.75330  Biso   1.000  C
  C184     1.0000 0.81580  0.26190  0.74670  Biso   1.000  C
  H157     1.0000 0.82000  0.23270  0.20600  Biso   1.000  H
  H158     1.0000 0.18000  0.73270  0.29400  Biso   1.000  H
  H159     1.0000 0.18000  0.76730  0.79400  Biso   1.000  H
  H160     1.0000 0.82000  0.26730  0.70600  Biso   1.000  H
  C185     1.0000 0.93310  0.24550  0.30590  Biso   1.000  C
  C186     1.0000 0.06690  0.74550  0.19410  Biso   1.000  C
  C187     1.0000 0.06690  0.75450  0.69410  Biso   1.000  C
  C188     1.0000 0.93310  0.25450  0.80590  Biso   1.000  C
  C189     1.0000 0.92390  0.25370  0.36550  Biso   1.000  C
  C190     1.0000 0.07610  0.75370  0.13450  Biso   1.000  C
  C191     1.0000 0.07610  0.74630  0.63450  Biso   1.000  C
  C192     1.0000 0.92390  0.24630  0.86550  Biso   1.000  C
  H161     1.0000 0.00110  0.25970  0.40650  Biso   1.000  H
  H162     1.0000 0.99890  0.75970  0.09350  Biso   1.000  H
  H163     1.0000 0.99890  0.74030  0.59350  Biso   1.000  H
  H164     1.0000 0.00110  0.24030  0.90650  Biso   1.000  H
  C193     1.0000 0.79990  0.25300  0.36360  Biso   1.000  C
  C194     1.0000 0.20010  0.75300  0.13640  Biso   1.000  C
  C195     1.0000 0.20010  0.74700  0.63640  Biso   1.000  C
  C196     1.0000 0.79990  0.24700  0.86360  Biso   1.000  C
  H165     1.0000 0.79540  0.25730  0.40440  Biso   1.000  H
  H166     1.0000 0.20460  0.75730  0.09560  Biso   1.000  H
  H167     1.0000 0.20460  0.74270  0.59560  Biso   1.000  H
  H168     1.0000 0.79540  0.24270  0.90440  Biso   1.000  H
  C197     1.0000 0.21030  0.38060  0.22350  Biso   1.000  C
  C198     1.0000 0.78970  0.88060  0.27650  Biso   1.000  C
  C199     1.0000 0.78970  0.61940  0.77650  Biso   1.000  C
  C200     1.0000 0.21030  0.11940  0.72350  Biso   1.000  C
  H169     1.0000 0.21560  0.38600  0.18310  Biso   1.000  H
  H170     1.0000 0.78440  0.88600  0.31690  Biso   1.000  H
  H171     1.0000 0.78440  0.61400  0.81690  Biso   1.000  H
  H172     1.0000 0.21560  0.11400  0.68310  Biso   1.000  H
  C201     1.0000 0.08420  0.38060  0.22100  Biso   1.000  C
  C202     1.0000 0.91580  0.88060  0.27900  Biso   1.000  C
  C203     1.0000 0.91580  0.61940  0.77900  Biso   1.000  C
  C204     1.0000 0.08420  0.11940  0.72100  Biso   1.000  C
  H173     1.0000 0.00700  0.38540  0.17950  Biso   1.000  H
  H174     1.0000 0.99300  0.88540  0.32050  Biso   1.000  H
  H175     1.0000 0.99300  0.61460  0.82050  Biso   1.000  H
  H176     1.0000 0.00700  0.11460  0.67950  Biso   1.000  H
  C205     1.0000 0.07410  0.37350  0.28120  Biso   1.000  C
  C206     1.0000 0.92590  0.87350  0.21880  Biso   1.000  C
  C207     1.0000 0.92590  0.62650  0.71880  Biso   1.000  C
  C208     1.0000 0.07410  0.12650  0.78120  Biso   1.000  C
  C209     1.0000 0.19510  0.36710  0.34220  Biso   1.000  C
  C210     1.0000 0.80490  0.86710  0.15780  Biso   1.000  C
  C211     1.0000 0.80490  0.63290  0.65780  Biso   1.000  C
  C212     1.0000 0.19510  0.13290  0.84220  Biso   1.000  C
  H177     1.0000 0.19380  0.36320  0.38380  Biso   1.000  H
  H178     1.0000 0.80620  0.86320  0.11620  Biso   1.000  H
  H179     1.0000 0.80620  0.63680  0.61620  Biso   1.000  H
  H180     1.0000 0.19380  0.13680  0.88380  Biso   1.000  H
  C213     1.0000 0.31680  0.36680  0.33960  Biso   1.000  C
  C214     1.0000 0.68320  0.86680  0.16040  Biso   1.000  C
  C215     1.0000 0.68320  0.63320  0.66040  Biso   1.000  C
  C216     1.0000 0.31680  0.13320  0.83960  Biso   1.000  C
  H181     1.0000 0.39620  0.36190  0.38000  Biso   1.000  H
  H182     1.0000 0.60380  0.86190  0.12000  Biso   1.000  H
  H183     1.0000 0.60380  0.63810  0.62000  Biso   1.000  H
  H184     1.0000 0.39620  0.13810  0.88000  Biso   1.000  H
  C217     1.0000 0.70150  0.35810  0.22520  Biso   1.000  C
  C218     1.0000 0.29850  0.85810  0.27480  Biso   1.000  C
  C219     1.0000 0.29850  0.64190  0.77480  Biso   1.000  C
  C220     1.0000 0.70150  0.14190  0.72520  Biso   1.000  C
  H185     1.0000 0.62350  0.35080  0.18520  Biso   1.000  H
  H186     1.0000 0.37650  0.85080  0.31480  Biso   1.000  H
  H187     1.0000 0.37650  0.64920  0.81480  Biso   1.000  H
  H188     1.0000 0.62350  0.14920  0.68520  Biso   1.000  H
  C221     1.0000 0.82440  0.35970  0.22300  Biso   1.000  C
  C222     1.0000 0.17560  0.85970  0.27700  Biso   1.000  C
  C223     1.0000 0.17560  0.64030  0.77700  Biso   1.000  C
  C224     1.0000 0.82440  0.14030  0.72300  Biso   1.000  C
  H189     1.0000 0.82860  0.35260  0.18280  Biso   1.000  H
  H190     1.0000 0.17140  0.85260  0.31720  Biso   1.000  H
  H191     1.0000 0.17140  0.64740  0.81720  Biso   1.000  H
  H192     1.0000 0.82860  0.14740  0.68280  Biso   1.000  H
  C225     1.0000 0.94070  0.37220  0.28260  Biso   1.000  C
  C226     1.0000 0.05930  0.87220  0.21740  Biso   1.000  C
  C227     1.0000 0.05930  0.62780  0.71740  Biso   1.000  C
  C228     1.0000 0.94070  0.12780  0.78260  Biso   1.000  C
  C229     1.0000 0.92870  0.38140  0.34070  Biso   1.000  C
  C230     1.0000 0.07130  0.88140  0.15930  Biso   1.000  C
  C231     1.0000 0.07130  0.61860  0.65930  Biso   1.000  C
  C232     1.0000 0.92870  0.11860  0.84070  Biso   1.000  C
  H193     1.0000 0.00450  0.38880  0.38160  Biso   1.000  H
  H194     1.0000 0.99550  0.88880  0.11840  Biso   1.000  H
  H195     1.0000 0.99550  0.61120  0.61840  Biso   1.000  H
  H196     1.0000 0.00450  0.11120  0.88160  Biso   1.000  H
  C233     1.0000 0.80170  0.37940  0.33800  Biso   1.000  C
  C234     1.0000 0.19830  0.87940  0.16200  Biso   1.000  C
  C235     1.0000 0.19830  0.62060  0.66200  Biso   1.000  C
  C236     1.0000 0.80170  0.12060  0.83800  Biso   1.000  C
  H197     1.0000 0.79460  0.38760  0.37710  Biso   1.000  H
  H198     1.0000 0.20540  0.88760  0.12290  Biso   1.000  H
  H199     1.0000 0.20540  0.61240  0.62290  Biso   1.000  H
  H200     1.0000 0.79460  0.11240  0.87710  Biso   1.000  H
  C237     1.0000 0.06460  0.87792  0.81410  Biso   1.000  C
  C238     1.0000 0.93540  0.37792  0.68590  Biso   1.000  C
  C239     1.0000 0.93540  0.12208  0.18590  Biso   1.000  C
  C240     1.0000 0.06460  0.62208  0.31410  Biso   1.000  C
  H201     1.0000 0.11820  0.90540  0.83290  Biso   1.000  H
  H202     1.0000 0.88180  0.40540  0.66710  Biso   1.000  H
  H203     1.0000 0.88180  0.09460  0.16710  Biso   1.000  H
  H204     1.0000 0.11820  0.59460  0.33290  Biso   1.000  H
  H205     1.0000 0.98850  0.87850  0.82300  Biso   1.000  H
  H206     1.0000 0.01150  0.37850  0.67700  Biso   1.000  H
  H207     1.0000 0.01150  0.12150  0.17700  Biso   1.000  H
  H208     1.0000 0.98850  0.62150  0.32300  Biso   1.000  H
  H209     1.0000 0.11820  0.85070  0.83500  Biso   1.000  H
  H210     1.0000 0.88180  0.35070  0.66500  Biso   1.000  H
  H211     1.0000 0.88180  0.14930  0.16500  Biso   1.000  H
  H212     1.0000 0.11820  0.64930  0.33500  Biso   1.000  H
  Cl7      1.0000 0.51000  0.47990  0.01510  Biso   1.000  Cl
  Cl8      1.0000 0.49000  0.97990  0.48490  Biso   1.000  Cl
  Cl9      1.0000 0.49000  0.52010  0.98490  Biso   1.000  Cl
  Cl10     1.0000 0.51000  0.02010  0.51510  Biso   1.000  Cl
  O57      1.0000 0.54000  0.48100  0.96000  Biso   1.000  O
  O58      1.0000 0.46000  0.98100  0.54000  Biso   1.000  O
  O59      1.0000 0.46000  0.51900  0.04000  Biso   1.000  O
  O60      1.0000 0.54000  0.01900  0.46000  Biso   1.000  O
  O61      1.0000 0.37440  0.49380  0.98000  Biso   1.000  O
  O62      1.0000 0.62560  0.99380  0.52000  Biso   1.000  O
  O63      1.0000 0.62560  0.50620  0.02000  Biso   1.000  O
  O64      1.0000 0.37440  0.00620  0.48000  Biso   1.000  O
  O65      1.0000 0.55500  0.43690  0.05430  Biso   1.000  O
  O66      1.0000 0.44500  0.93690  0.44570  Biso   1.000  O
  O67      1.0000 0.44500  0.56310  0.94570  Biso   1.000  O
  O68      1.0000 0.55500  0.06310  0.55430  Biso   1.000  O
  O69      1.0000 0.57200  0.51790  0.05880  Biso   1.000  O
  O70      1.0000 0.42800  0.01790  0.44120  Biso   1.000  O
  O71      1.0000 0.42800  0.48210  0.94120  Biso   1.000  O
  O72      1.0000 0.57200  0.98210  0.55880  Biso   1.000  O
  O73      1.0000 0.41830  0.01394  0.03170  Biso   1.000  O
  O74      1.0000 0.58170  0.51394  0.46830  Biso   1.000  O
  O75      1.0000 0.58170  0.98606  0.96830  Biso   1.000  O
  O76      1.0000 0.41830  0.48606  0.53170  Biso   1.000  O
  O77      1.0000 0.58060  0.96063  0.04360  Biso   1.000  O
  O78      1.0000 0.41940  0.46063  0.45640  Biso   1.000  O
  O79      1.0000 0.41940  0.03937  0.95640  Biso   1.000  O
  O80      1.0000 0.58060  0.53937  0.54360  Biso   1.000  O
  O81      1.0000 0.41670  0.97553  0.93680  Biso   1.000  O
  O82      1.0000 0.58330  0.47553  0.56320  Biso   1.000  O
  O83      1.0000 0.58330  0.02447  0.06320  Biso   1.000  O
  O84      1.0000 0.41670  0.52447  0.43680  Biso   1.000  O
  O85      1.0000 0.58910  0.03382  0.99800  Biso   1.000  O
  O86      1.0000 0.41090  0.53382  0.50200  Biso   1.000  O
  O87      1.0000 0.41090  0.96618  0.00200  Biso   1.000  O
  O88      1.0000 0.58910  0.46618  0.49800  Biso   1.000  O
  O89      1.0000 0.75790  0.32380  0.47410  Biso   1.000  O
  O90      1.0000 0.24210  0.82380  0.02590  Biso   1.000  O
  O91      1.0000 0.24210  0.67620  0.52590  Biso   1.000  O
  O92      1.0000 0.75790  0.17620  0.97410  Biso   1.000  O
  H213     1.0000 0.74980  0.30460  0.50580  Biso   1.000  H
  H214     1.0000 0.25020  0.80460  0.99420  Biso   1.000  H
  H215     1.0000 0.25020  0.69540  0.49420  Biso   1.000  H
  H216     1.0000 0.74980  0.19540  0.00580  Biso   1.000  H
  H217     1.0000 0.66340  0.32520  0.43120  Biso   1.000  H
  H218     1.0000 0.33660  0.82520  0.06880  Biso   1.000  H
  H219     1.0000 0.33660  0.67480  0.56880  Biso   1.000  H
  H220     1.0000 0.66340  0.17480  0.93120  Biso   1.000  H
  O93      1.0000 0.22890  0.03300  0.55760  Biso   1.000  O
  O94      1.0000 0.77110  0.53300  0.94240  Biso   1.000  O
  O95      1.0000 0.77110  0.96700  0.44240  Biso   1.000  O
  O96      1.0000 0.22890  0.46700  0.05760  Biso   1.000  O
  H221     1.0000 0.19820  0.06040  0.55500  Biso   1.000  H
  H222     1.0000 0.80180  0.56040  0.94500  Biso   1.000  H
  H223     1.0000 0.80180  0.93960  0.44500  Biso   1.000  H
  H224     1.0000 0.19820  0.43960  0.05500  Biso   1.000  H
  H225     1.0000 0.27000  0.03120  0.53350  Biso   1.000  H
  H226     1.0000 0.73000  0.53120  0.96650  Biso   1.000  H
  H227     1.0000 0.73000  0.96880  0.46650  Biso   1.000  H
  H228     1.0000 0.27000  0.46880  0.03350  Biso   1.000  H
  C241     1.0000 0.27000  0.11155  0.37290  Biso   1.000  C
  C242     1.0000 0.73000  0.61155  0.12710  Biso   1.000  C
  C243     1.0000 0.73000  0.88845  0.62710  Biso   1.000  C
  C244     1.0000 0.27000  0.38845  0.87290  Biso   1.000  C
  C245     1.0000 0.11720  0.12000  0.33420  Biso   1.000  C
  C246     1.0000 0.88280  0.62000  0.16580  Biso   1.000  C
  C247     1.0000 0.88280  0.88000  0.66580  Biso   1.000  C
  C248     1.0000 0.11720  0.38000  0.83420  Biso   1.000  C
  C249     1.0000 0.05940  0.12570  0.37760  Biso   1.000  C
  C250     1.0000 0.94060  0.62570  0.12240  Biso   1.000  C
  C251     1.0000 0.94060  0.87430  0.62240  Biso   1.000  C
  C252     1.0000 0.05940  0.37430  0.87760  Biso   1.000  C
  C253     1.0000 0.92020  0.12900  0.35030  Biso   1.000  C
  C254     1.0000 0.07980  0.62900  0.14970  Biso   1.000  C
  C255     1.0000 0.07980  0.87100  0.64970  Biso   1.000  C
  C256     1.0000 0.92020  0.37100  0.85030  Biso   1.000  C
  C257     1.0000 0.83870  0.12680  0.27960  Biso   1.000  C
  C258     1.0000 0.16130  0.62680  0.22040  Biso   1.000  C
  C259     1.0000 0.16130  0.87320  0.72040  Biso   1.000  C
  C260     1.0000 0.83870  0.37320  0.77960  Biso   1.000  C
  C261     1.0000 0.89650  0.12110  0.23620  Biso   1.000  C
  C262     1.0000 0.10350  0.62110  0.26380  Biso   1.000  C
  C263     1.0000 0.10350  0.87890  0.76380  Biso   1.000  C
  C264     1.0000 0.89650  0.37890  0.73620  Biso   1.000  C
  C265     1.0000 0.03570  0.11770  0.26350  Biso   1.000  C
  C266     1.0000 0.96430  0.61770  0.23650  Biso   1.000  C
  C267     1.0000 0.96430  0.88230  0.73650  Biso   1.000  C
  C268     1.0000 0.03570  0.38230  0.76350  Biso   1.000  C
  C269     1.0000 0.82680  0.11715  0.15830  Biso   1.000  C
  C270     1.0000 0.17320  0.61715  0.34170  Biso   1.000  C
  C271     1.0000 0.17320  0.88285  0.84170  Biso   1.000  C
  C272     1.0000 0.82680  0.38285  0.65830  Biso   1.000  C
  H229     1.0000 0.29320  0.08630  0.35170  Biso   1.000  H
  H230     1.0000 0.70680  0.58630  0.14830  Biso   1.000  H
  H231     1.0000 0.70680  0.91370  0.64830  Biso   1.000  H
  H232     1.0000 0.29320  0.41370  0.85170  Biso   1.000  H
  H233     1.0000 0.29580  0.10370  0.41990  Biso   1.000  H
  H234     1.0000 0.70420  0.60370  0.08010  Biso   1.000  H
  H235     1.0000 0.70420  0.89630  0.58010  Biso   1.000  H
  H236     1.0000 0.29580  0.39630  0.91990  Biso   1.000  H
  H237     1.0000 0.31640  0.13930  0.37140  Biso   1.000  H
  H238     1.0000 0.68360  0.63930  0.12860  Biso   1.000  H
  H239     1.0000 0.68360  0.86070  0.62860  Biso   1.000  H
  H240     1.0000 0.31640  0.36070  0.87140  Biso   1.000  H
  H241     1.0000 0.11390  0.12720  0.42490  Biso   1.000  H
  H242     1.0000 0.88610  0.62720  0.07510  Biso   1.000  H
  H243     1.0000 0.88610  0.87280  0.57510  Biso   1.000  H
  H244     1.0000 0.11390  0.37280  0.92490  Biso   1.000  H
  H245     1.0000 0.74560  0.12900  0.26140  Biso   1.000  H
  H246     1.0000 0.25440  0.62900  0.23860  Biso   1.000  H
  H247     1.0000 0.25440  0.87100  0.73860  Biso   1.000  H
  H248     1.0000 0.74560  0.37100  0.76140  Biso   1.000  H
  H249     1.0000 0.07430  0.11390  0.23450  Biso   1.000  H
  H250     1.0000 0.92570  0.61390  0.26550  Biso   1.000  H
  H251     1.0000 0.92570  0.88610  0.76550  Biso   1.000  H
  H252     1.0000 0.07430  0.38610  0.73450  Biso   1.000  H
  H253     1.0000 0.79730  0.14750  0.13850  Biso   1.000  H
  H254     1.0000 0.20270  0.64750  0.36150  Biso   1.000  H
  H255     1.0000 0.20270  0.85250  0.86150  Biso   1.000  H
  H256     1.0000 0.79730  0.35250  0.63850  Biso   1.000  H
  H257     1.0000 0.75020  0.09680  0.14380  Biso   1.000  H
  H258     1.0000 0.24980  0.59680  0.35620  Biso   1.000  H
  H259     1.0000 0.24980  0.90320  0.85620  Biso   1.000  H
  H260     1.0000 0.75020  0.40320  0.64380  Biso   1.000  H
  H261     1.0000 0.88830  0.10470  0.14340  Biso   1.000  H
  H262     1.0000 0.11170  0.60470  0.35660  Biso   1.000  H
  H263     1.0000 0.11170  0.89530  0.85660  Biso   1.000  H
  H264     1.0000 0.88830  0.39530  0.64340  Biso   1.000  H
