data_image0
_cell_length_a       38.98
_cell_length_b       8.8344
_cell_length_c       19.434
_cell_angle_alpha    90
_cell_angle_beta     101.07
_cell_angle_gamma    90

_symmetry_space_group_name_H-M    "P 1"
_symmetry_int_tables_number       1

loop_
  _symmetry_equiv_pos_as_xyz
  'x, y, z'

loop_
  _atom_site_label
  _atom_site_occupancy
  _atom_site_fract_x
  _atom_site_fract_y
  _atom_site_fract_z
  _atom_site_thermal_displace_type
  _atom_site_B_iso_or_equiv
  _atom_site_type_symbol
  Cu1      1.0000 0.13092  0.78521  0.14128  Biso   1.000  Cu
  Cu2      1.0000 0.86908  0.78521  0.35872  Biso   1.000  Cu
  Cu3      1.0000 0.63092  0.28521  0.14128  Biso   1.000  Cu
  Cu4      1.0000 0.36908  0.28521  0.35872  Biso   1.000  Cu
  Cu5      1.0000 0.86908  0.21479  0.85872  Biso   1.000  Cu
  Cu6      1.0000 0.13092  0.21479  0.64128  Biso   1.000  Cu
  Cu7      1.0000 0.36908  0.71479  0.85872  Biso   1.000  Cu
  Cu8      1.0000 0.63092  0.71479  0.64128  Biso   1.000  Cu
  O1       1.0000 0.06392  0.98360  0.22970  Biso   1.000  O
  O2       1.0000 0.93608  0.98360  0.27030  Biso   1.000  O
  O3       1.0000 0.56392  0.48360  0.22970  Biso   1.000  O
  O4       1.0000 0.43608  0.48360  0.27030  Biso   1.000  O
  O5       1.0000 0.93608  0.01640  0.77030  Biso   1.000  O
  O6       1.0000 0.06392  0.01640  0.72970  Biso   1.000  O
  O7       1.0000 0.43608  0.51640  0.77030  Biso   1.000  O
  O8       1.0000 0.56392  0.51640  0.72970  Biso   1.000  O
  O9       1.0000 0.05082  0.71620  0.24650  Biso   1.000  O
  O10      1.0000 0.94918  0.71620  0.25350  Biso   1.000  O
  O11      1.0000 0.55082  0.21620  0.24650  Biso   1.000  O
  O12      1.0000 0.44918  0.21620  0.25350  Biso   1.000  O
  O13      1.0000 0.94918  0.28380  0.75350  Biso   1.000  O
  O14      1.0000 0.05082  0.28380  0.74650  Biso   1.000  O
  O15      1.0000 0.44918  0.78380  0.75350  Biso   1.000  O
  O16      1.0000 0.55082  0.78380  0.74650  Biso   1.000  O
  H1       1.0000 0.05810  0.63430  0.23570  Biso   1.000  H
  H2       1.0000 0.94190  0.63430  0.26430  Biso   1.000  H
  H3       1.0000 0.55810  0.13430  0.23570  Biso   1.000  H
  H4       1.0000 0.44190  0.13430  0.26430  Biso   1.000  H
  H5       1.0000 0.94190  0.36570  0.76430  Biso   1.000  H
  H6       1.0000 0.05810  0.36570  0.73570  Biso   1.000  H
  H7       1.0000 0.44190  0.86570  0.76430  Biso   1.000  H
  H8       1.0000 0.55810  0.86570  0.73570  Biso   1.000  H
  O17      1.0000 0.08059  0.78980  0.14580  Biso   1.000  O
  O18      1.0000 0.91941  0.78980  0.35420  Biso   1.000  O
  O19      1.0000 0.58059  0.28980  0.14580  Biso   1.000  O
  O20      1.0000 0.41941  0.28980  0.35420  Biso   1.000  O
  O21      1.0000 0.91941  0.21020  0.85420  Biso   1.000  O
  O22      1.0000 0.08059  0.21020  0.64580  Biso   1.000  O
  O23      1.0000 0.41941  0.71020  0.85420  Biso   1.000  O
  O24      1.0000 0.58059  0.71020  0.64580  Biso   1.000  O
  O25      1.0000 0.14353  0.65640  0.22240  Biso   1.000  O
  O26      1.0000 0.85647  0.65640  0.27760  Biso   1.000  O
  O27      1.0000 0.64353  0.15640  0.22240  Biso   1.000  O
  O28      1.0000 0.35647  0.15640  0.27760  Biso   1.000  O
  O29      1.0000 0.85647  0.34360  0.77760  Biso   1.000  O
  O30      1.0000 0.14353  0.34360  0.72240  Biso   1.000  O
  O31      1.0000 0.35647  0.84360  0.77760  Biso   1.000  O
  O32      1.0000 0.64353  0.84360  0.72240  Biso   1.000  O
  O33      1.0000 0.19487  0.63110  0.32240  Biso   1.000  O
  O34      1.0000 0.80513  0.63110  0.17760  Biso   1.000  O
  O35      1.0000 0.69487  0.13110  0.32240  Biso   1.000  O
  O36      1.0000 0.30513  0.13110  0.17760  Biso   1.000  O
  O37      1.0000 0.80513  0.36890  0.67760  Biso   1.000  O
  O38      1.0000 0.19487  0.36890  0.82240  Biso   1.000  O
  O39      1.0000 0.30513  0.86890  0.67760  Biso   1.000  O
  O40      1.0000 0.69487  0.86890  0.82240  Biso   1.000  O
  H9       1.0000 0.20200  0.70700  0.30520  Biso   1.000  H
  H10      1.0000 0.79800  0.70700  0.19480  Biso   1.000  H
  H11      1.0000 0.70200  0.20700  0.30520  Biso   1.000  H
  H12      1.0000 0.29800  0.20700  0.19480  Biso   1.000  H
  H13      1.0000 0.79800  0.29300  0.69480  Biso   1.000  H
  H14      1.0000 0.20200  0.29300  0.80520  Biso   1.000  H
  H15      1.0000 0.29800  0.79300  0.69480  Biso   1.000  H
  H16      1.0000 0.70200  0.79300  0.80520  Biso   1.000  H
  O41      1.0000 0.14367  0.46260  0.31760  Biso   1.000  O
  O42      1.0000 0.85633  0.46260  0.18240  Biso   1.000  O
  O43      1.0000 0.64367  0.96260  0.31760  Biso   1.000  O
  O44      1.0000 0.35633  0.96260  0.18240  Biso   1.000  O
  O45      1.0000 0.85633  0.53740  0.68240  Biso   1.000  O
  O46      1.0000 0.14367  0.53740  0.81760  Biso   1.000  O
  O47      1.0000 0.35633  0.03740  0.68240  Biso   1.000  O
  O48      1.0000 0.64367  0.03740  0.81760  Biso   1.000  O
  O49      1.0000 0.15485  0.00960  0.69390  Biso   1.000  O
  O50      1.0000 0.84515  0.00960  0.80610  Biso   1.000  O
  O51      1.0000 0.65485  0.50960  0.69390  Biso   1.000  O
  O52      1.0000 0.34515  0.50960  0.80610  Biso   1.000  O
  O53      1.0000 0.84515  0.99040  0.30610  Biso   1.000  O
  O54      1.0000 0.15485  0.99040  0.19390  Biso   1.000  O
  O55      1.0000 0.34515  0.49040  0.30610  Biso   1.000  O
  O56      1.0000 0.65485  0.49040  0.19390  Biso   1.000  O
  O57      1.0000 0.10250  0.83390  0.68710  Biso   1.000  O
  O58      1.0000 0.89750  0.83390  0.81290  Biso   1.000  O
  O59      1.0000 0.60250  0.33390  0.68710  Biso   1.000  O
  O60      1.0000 0.39750  0.33390  0.81290  Biso   1.000  O
  O61      1.0000 0.89750  0.16610  0.31290  Biso   1.000  O
  O62      1.0000 0.10250  0.16610  0.18710  Biso   1.000  O
  O63      1.0000 0.39750  0.66610  0.31290  Biso   1.000  O
  O64      1.0000 0.60250  0.66610  0.18710  Biso   1.000  O
  H17      1.0000 0.09340  0.90360  0.70490  Biso   1.000  H
  H18      1.0000 0.90660  0.90360  0.79510  Biso   1.000  H
  H19      1.0000 0.59340  0.40360  0.70490  Biso   1.000  H
  H20      1.0000 0.40660  0.40360  0.79510  Biso   1.000  H
  H21      1.0000 0.90660  0.09640  0.29510  Biso   1.000  H
  H22      1.0000 0.09340  0.09640  0.20490  Biso   1.000  H
  H23      1.0000 0.40660  0.59640  0.29510  Biso   1.000  H
  H24      1.0000 0.59340  0.59640  0.20490  Biso   1.000  H
  O65      1.0000 0.15747  0.80520  0.78100  Biso   1.000  O
  O66      1.0000 0.84253  0.80520  0.71900  Biso   1.000  O
  O67      1.0000 0.65747  0.30520  0.78100  Biso   1.000  O
  O68      1.0000 0.34253  0.30520  0.71900  Biso   1.000  O
  O69      1.0000 0.84253  0.19480  0.21900  Biso   1.000  O
  O70      1.0000 0.15747  0.19480  0.28100  Biso   1.000  O
  O71      1.0000 0.34253  0.69480  0.21900  Biso   1.000  O
  O72      1.0000 0.65747  0.69480  0.28100  Biso   1.000  O
  H25      1.0000 0.15170  0.71780  0.78730  Biso   1.000  H
  H26      1.0000 0.84830  0.71780  0.71270  Biso   1.000  H
  H27      1.0000 0.65170  0.21780  0.78730  Biso   1.000  H
  H28      1.0000 0.34830  0.21780  0.71270  Biso   1.000  H
  H29      1.0000 0.84830  0.28220  0.21270  Biso   1.000  H
  H30      1.0000 0.15170  0.28220  0.28730  Biso   1.000  H
  H31      1.0000 0.34830  0.78220  0.21270  Biso   1.000  H
  H32      1.0000 0.65170  0.78220  0.28730  Biso   1.000  H
  N1       1.0000 0.11750  0.86720  0.04430  Biso   1.000  N
  N2       1.0000 0.88250  0.86720  0.45570  Biso   1.000  N
  N3       1.0000 0.61750  0.36720  0.04430  Biso   1.000  N
  N4       1.0000 0.38250  0.36720  0.45570  Biso   1.000  N
  N5       1.0000 0.88250  0.13280  0.95570  Biso   1.000  N
  N6       1.0000 0.11750  0.13280  0.54430  Biso   1.000  N
  N7       1.0000 0.38250  0.63280  0.95570  Biso   1.000  N
  N8       1.0000 0.61750  0.63280  0.54430  Biso   1.000  N
  N9       1.0000 0.16940  0.69320  0.09710  Biso   1.000  N
  N10      1.0000 0.83060  0.69320  0.40290  Biso   1.000  N
  N11      1.0000 0.66940  0.19320  0.09710  Biso   1.000  N
  N12      1.0000 0.33060  0.19320  0.40290  Biso   1.000  N
  N13      1.0000 0.83060  0.30680  0.90290  Biso   1.000  N
  N14      1.0000 0.16940  0.30680  0.59710  Biso   1.000  N
  N15      1.0000 0.33060  0.80680  0.90290  Biso   1.000  N
  N16      1.0000 0.66940  0.80680  0.59710  Biso   1.000  N
  P1       1.0000 0.05512  0.83810  0.18955  Biso   1.000  P
  P2       1.0000 0.94488  0.83810  0.31045  Biso   1.000  P
  P3       1.0000 0.55512  0.33810  0.18955  Biso   1.000  P
  P4       1.0000 0.44488  0.33810  0.31045  Biso   1.000  P
  P5       1.0000 0.94488  0.16190  0.81045  Biso   1.000  P
  P6       1.0000 0.05512  0.16190  0.68955  Biso   1.000  P
  P7       1.0000 0.44488  0.66190  0.81045  Biso   1.000  P
  P8       1.0000 0.55512  0.66190  0.68955  Biso   1.000  P
  P9       1.0000 0.15358  0.61990  0.29851  Biso   1.000  P
  P10      1.0000 0.84642  0.61990  0.20149  Biso   1.000  P
  P11      1.0000 0.65358  0.11990  0.29851  Biso   1.000  P
  P12      1.0000 0.34642  0.11990  0.20149  Biso   1.000  P
  P13      1.0000 0.84642  0.38010  0.70149  Biso   1.000  P
  P14      1.0000 0.15358  0.38010  0.79851  Biso   1.000  P
  P15      1.0000 0.34642  0.88010  0.70149  Biso   1.000  P
  P16      1.0000 0.65358  0.88010  0.79851  Biso   1.000  P
  P17      1.0000 0.14232  0.85300  0.70376  Biso   1.000  P
  P18      1.0000 0.85768  0.85300  0.79624  Biso   1.000  P
  P19      1.0000 0.64232  0.35300  0.70376  Biso   1.000  P
  P20      1.0000 0.35768  0.35300  0.79624  Biso   1.000  P
  P21      1.0000 0.85768  0.14700  0.29624  Biso   1.000  P
  P22      1.0000 0.14232  0.14700  0.20376  Biso   1.000  P
  P23      1.0000 0.35768  0.64700  0.29624  Biso   1.000  P
  P24      1.0000 0.64232  0.64700  0.20376  Biso   1.000  P
  C1       1.0000 0.01600  0.68100  0.01010  Biso   1.000  C
  C2       1.0000 0.98400  0.68100  0.48990  Biso   1.000  C
  C3       1.0000 0.51600  0.18100  0.01010  Biso   1.000  C
  C4       1.0000 0.48400  0.18100  0.48990  Biso   1.000  C
  C5       1.0000 0.98400  0.31900  0.98990  Biso   1.000  C
  C6       1.0000 0.01600  0.31900  0.51010  Biso   1.000  C
  C7       1.0000 0.48400  0.81900  0.98990  Biso   1.000  C
  C8       1.0000 0.51600  0.81900  0.51010  Biso   1.000  C
  H33      1.0000 0.02070  0.65030  0.05840  Biso   1.000  H
  H34      1.0000 0.97930  0.65030  0.44160  Biso   1.000  H
  H35      1.0000 0.52070  0.15030  0.05840  Biso   1.000  H
  H36      1.0000 0.47930  0.15030  0.44160  Biso   1.000  H
  H37      1.0000 0.97930  0.34970  0.94160  Biso   1.000  H
  H38      1.0000 0.02070  0.34970  0.55840  Biso   1.000  H
  H39      1.0000 0.47930  0.84970  0.94160  Biso   1.000  H
  H40      1.0000 0.52070  0.84970  0.55840  Biso   1.000  H
  H41      1.0000 0.03620  0.66280  0.98980  Biso   1.000  H
  H42      1.0000 0.96380  0.66280  0.51020  Biso   1.000  H
  H43      1.0000 0.53620  0.16280  0.98980  Biso   1.000  H
  H44      1.0000 0.46380  0.16280  0.51020  Biso   1.000  H
  H45      1.0000 0.96380  0.33720  0.01020  Biso   1.000  H
  H46      1.0000 0.03620  0.33720  0.48980  Biso   1.000  H
  H47      1.0000 0.46380  0.83720  0.01020  Biso   1.000  H
  H48      1.0000 0.53620  0.83720  0.48980  Biso   1.000  H
  H49      1.0000 0.99650  0.62400  0.98510  Biso   1.000  H
  H50      1.0000 0.00350  0.62400  0.51490  Biso   1.000  H
  H51      1.0000 0.49650  0.12400  0.98510  Biso   1.000  H
  H52      1.0000 0.50350  0.12400  0.51490  Biso   1.000  H
  H53      1.0000 0.00350  0.37600  0.01490  Biso   1.000  H
  H54      1.0000 0.99650  0.37600  0.48510  Biso   1.000  H
  H55      1.0000 0.50350  0.87600  0.01490  Biso   1.000  H
  H56      1.0000 0.49650  0.87600  0.48510  Biso   1.000  H
  C9       1.0000 0.00724  0.84640  0.00550  Biso   1.000  C
  C10      1.0000 0.99276  0.84640  0.49450  Biso   1.000  C
  C11      1.0000 0.50724  0.34640  0.00550  Biso   1.000  C
  C12      1.0000 0.49276  0.34640  0.49450  Biso   1.000  C
  C13      1.0000 0.99276  0.15360  0.99450  Biso   1.000  C
  C14      1.0000 0.00724  0.15360  0.50550  Biso   1.000  C
  C15      1.0000 0.49276  0.65360  0.99450  Biso   1.000  C
  C16      1.0000 0.50724  0.65360  0.50550  Biso   1.000  C
  C17      1.0000 0.00710  0.93060  0.06570  Biso   1.000  C
  C18      1.0000 0.99290  0.93060  0.43430  Biso   1.000  C
  C19      1.0000 0.50710  0.43060  0.06570  Biso   1.000  C
  C20      1.0000 0.49290  0.43060  0.43430  Biso   1.000  C
  C21      1.0000 0.99290  0.06940  0.93430  Biso   1.000  C
  C22      1.0000 0.00710  0.06940  0.56570  Biso   1.000  C
  C23      1.0000 0.49290  0.56940  0.93430  Biso   1.000  C
  C24      1.0000 0.50710  0.56940  0.56570  Biso   1.000  C
  C25      1.0000 0.00038  0.08560  0.06060  Biso   1.000  C
  C26      1.0000 0.99962  0.08560  0.43940  Biso   1.000  C
  C27      1.0000 0.50038  0.58560  0.06060  Biso   1.000  C
  C28      1.0000 0.49962  0.58560  0.43940  Biso   1.000  C
  C29      1.0000 0.99962  0.91440  0.93940  Biso   1.000  C
  C30      1.0000 0.00038  0.91440  0.56060  Biso   1.000  C
  C31      1.0000 0.49962  0.41440  0.93940  Biso   1.000  C
  C32      1.0000 0.50038  0.41440  0.56060  Biso   1.000  C
  C33      1.0000 0.00100  0.18300  0.12560  Biso   1.000  C
  C34      1.0000 0.99900  0.18300  0.37440  Biso   1.000  C
  C35      1.0000 0.50100  0.68300  0.12560  Biso   1.000  C
  C36      1.0000 0.49900  0.68300  0.37440  Biso   1.000  C
  C37      1.0000 0.99900  0.81700  0.87440  Biso   1.000  C
  C38      1.0000 0.00100  0.81700  0.62560  Biso   1.000  C
  C39      1.0000 0.49900  0.31700  0.87440  Biso   1.000  C
  C40      1.0000 0.50100  0.31700  0.62560  Biso   1.000  C
  H57      1.0000 0.99580  0.28600  0.11170  Biso   1.000  H
  H58      1.0000 0.00420  0.28600  0.38830  Biso   1.000  H
  H59      1.0000 0.49580  0.78600  0.11170  Biso   1.000  H
  H60      1.0000 0.50420  0.78600  0.38830  Biso   1.000  H
  H61      1.0000 0.00420  0.71400  0.88830  Biso   1.000  H
  H62      1.0000 0.99580  0.71400  0.61170  Biso   1.000  H
  H63      1.0000 0.50420  0.21400  0.88830  Biso   1.000  H
  H64      1.0000 0.49580  0.21400  0.61170  Biso   1.000  H
  H65      1.0000 0.02370  0.17790  0.15510  Biso   1.000  H
  H66      1.0000 0.97630  0.17790  0.34490  Biso   1.000  H
  H67      1.0000 0.52370  0.67790  0.15510  Biso   1.000  H
  H68      1.0000 0.47630  0.67790  0.34490  Biso   1.000  H
  H69      1.0000 0.97630  0.82210  0.84490  Biso   1.000  H
  H70      1.0000 0.02370  0.82210  0.65510  Biso   1.000  H
  H71      1.0000 0.47630  0.32210  0.84490  Biso   1.000  H
  H72      1.0000 0.52370  0.32210  0.65510  Biso   1.000  H
  H73      1.0000 0.98380  0.14640  0.15090  Biso   1.000  H
  H74      1.0000 0.01620  0.14640  0.34910  Biso   1.000  H
  H75      1.0000 0.48380  0.64640  0.15090  Biso   1.000  H
  H76      1.0000 0.51620  0.64640  0.34910  Biso   1.000  H
  H77      1.0000 0.01620  0.85360  0.84910  Biso   1.000  H
  H78      1.0000 0.98380  0.85360  0.65090  Biso   1.000  H
  H79      1.0000 0.51620  0.35360  0.84910  Biso   1.000  H
  H80      1.0000 0.48380  0.35360  0.65090  Biso   1.000  H
  C41      1.0000 0.01207  0.84880  0.13580  Biso   1.000  C
  C42      1.0000 0.98793  0.84880  0.36420  Biso   1.000  C
  C43      1.0000 0.51207  0.34880  0.13580  Biso   1.000  C
  C44      1.0000 0.48793  0.34880  0.36420  Biso   1.000  C
  C45      1.0000 0.98793  0.15120  0.86420  Biso   1.000  C
  C46      1.0000 0.01207  0.15120  0.63580  Biso   1.000  C
  C47      1.0000 0.48793  0.65120  0.86420  Biso   1.000  C
  C48      1.0000 0.51207  0.65120  0.63580  Biso   1.000  C
  H81      1.0000 0.00370  0.74600  0.12670  Biso   1.000  H
  H82      1.0000 0.99630  0.74600  0.37330  Biso   1.000  H
  H83      1.0000 0.50370  0.24600  0.12670  Biso   1.000  H
  H84      1.0000 0.49630  0.24600  0.37330  Biso   1.000  H
  H85      1.0000 0.99630  0.25400  0.87330  Biso   1.000  H
  H86      1.0000 0.00370  0.25400  0.62670  Biso   1.000  H
  H87      1.0000 0.49630  0.75400  0.87330  Biso   1.000  H
  H88      1.0000 0.50370  0.75400  0.62670  Biso   1.000  H
  H89      1.0000 0.99690  0.89700  0.16350  Biso   1.000  H
  H90      1.0000 0.00310  0.89700  0.33650  Biso   1.000  H
  H91      1.0000 0.49690  0.39700  0.16350  Biso   1.000  H
  H92      1.0000 0.50310  0.39700  0.33650  Biso   1.000  H
  H93      1.0000 0.00310  0.10300  0.83650  Biso   1.000  H
  H94      1.0000 0.99690  0.10300  0.66350  Biso   1.000  H
  H95      1.0000 0.50310  0.60300  0.83650  Biso   1.000  H
  H96      1.0000 0.49690  0.60300  0.66350  Biso   1.000  H
  C49      1.0000 0.15260  0.72870  0.57360  Biso   1.000  C
  C50      1.0000 0.84740  0.72870  0.92640  Biso   1.000  C
  C51      1.0000 0.65260  0.22870  0.57360  Biso   1.000  C
  C52      1.0000 0.34740  0.22870  0.92640  Biso   1.000  C
  C53      1.0000 0.84740  0.27130  0.42640  Biso   1.000  C
  C54      1.0000 0.15260  0.27130  0.07360  Biso   1.000  C
  C55      1.0000 0.34740  0.77130  0.42640  Biso   1.000  C
  C56      1.0000 0.65260  0.77130  0.07360  Biso   1.000  C
  C57      1.0000 0.12389  0.65730  0.53250  Biso   1.000  C
  C58      1.0000 0.87611  0.65730  0.96750  Biso   1.000  C
  C59      1.0000 0.62389  0.15730  0.53250  Biso   1.000  C
  C60      1.0000 0.37611  0.15730  0.96750  Biso   1.000  C
  C61      1.0000 0.87611  0.34270  0.46750  Biso   1.000  C
  C62      1.0000 0.12389  0.34270  0.03250  Biso   1.000  C
  C63      1.0000 0.37611  0.84270  0.46750  Biso   1.000  C
  C64      1.0000 0.62389  0.84270  0.03250  Biso   1.000  C
  C65      1.0000 0.11862  0.66420  0.45920  Biso   1.000  C
  C66      1.0000 0.88138  0.66420  0.04080  Biso   1.000  C
  C67      1.0000 0.61862  0.16420  0.45920  Biso   1.000  C
  C68      1.0000 0.38138  0.16420  0.04080  Biso   1.000  C
  C69      1.0000 0.88138  0.33580  0.54080  Biso   1.000  C
  C70      1.0000 0.11862  0.33580  0.95920  Biso   1.000  C
  C71      1.0000 0.38138  0.83580  0.54080  Biso   1.000  C
  C72      1.0000 0.61862  0.83580  0.95920  Biso   1.000  C
  C73      1.0000 0.14174  0.74570  0.42670  Biso   1.000  C
  C74      1.0000 0.85826  0.74570  0.07330  Biso   1.000  C
  C75      1.0000 0.64174  0.24570  0.42670  Biso   1.000  C
  C76      1.0000 0.35826  0.24570  0.07330  Biso   1.000  C
  C77      1.0000 0.85826  0.25430  0.57330  Biso   1.000  C
  C78      1.0000 0.14174  0.25430  0.92670  Biso   1.000  C
  C79      1.0000 0.35826  0.75430  0.57330  Biso   1.000  C
  C80      1.0000 0.64174  0.75430  0.92670  Biso   1.000  C
  C81      1.0000 0.17031  0.82300  0.46780  Biso   1.000  C
  C82      1.0000 0.82969  0.82300  0.03220  Biso   1.000  C
  C83      1.0000 0.67031  0.32300  0.46780  Biso   1.000  C
  C84      1.0000 0.32969  0.32300  0.03220  Biso   1.000  C
  C85      1.0000 0.82969  0.17700  0.53220  Biso   1.000  C
  C86      1.0000 0.17031  0.17700  0.96780  Biso   1.000  C
  C87      1.0000 0.32969  0.67700  0.53220  Biso   1.000  C
  C88      1.0000 0.67031  0.67700  0.96780  Biso   1.000  C
  C89      1.0000 0.17595  0.81230  0.54130  Biso   1.000  C
  C90      1.0000 0.82405  0.81230  0.95870  Biso   1.000  C
  C91      1.0000 0.67595  0.31230  0.54130  Biso   1.000  C
  C92      1.0000 0.32405  0.31230  0.95870  Biso   1.000  C
  C93      1.0000 0.82405  0.18770  0.45870  Biso   1.000  C
  C94      1.0000 0.17595  0.18770  0.04130  Biso   1.000  C
  C95      1.0000 0.32405  0.68770  0.45870  Biso   1.000  C
  C96      1.0000 0.67595  0.68770  0.04130  Biso   1.000  C
  C97      1.0000 0.15990  0.71410  0.65320  Biso   1.000  C
  C98      1.0000 0.84010  0.71410  0.84680  Biso   1.000  C
  C99      1.0000 0.65990  0.21410  0.65320  Biso   1.000  C
  C100     1.0000 0.34010  0.21410  0.84680  Biso   1.000  C
  C101     1.0000 0.84010  0.28590  0.34680  Biso   1.000  C
  C102     1.0000 0.15990  0.28590  0.15320  Biso   1.000  C
  C103     1.0000 0.34010  0.78590  0.34680  Biso   1.000  C
  C104     1.0000 0.65990  0.78590  0.15320  Biso   1.000  C
  H97      1.0000 0.18500  0.71310  0.66900  Biso   1.000  H
  H98      1.0000 0.81500  0.71310  0.83100  Biso   1.000  H
  H99      1.0000 0.68500  0.21310  0.66900  Biso   1.000  H
  H100     1.0000 0.31500  0.21310  0.83100  Biso   1.000  H
  H101     1.0000 0.81500  0.28690  0.33100  Biso   1.000  H
  H102     1.0000 0.18500  0.28690  0.16900  Biso   1.000  H
  H103     1.0000 0.31500  0.78690  0.33100  Biso   1.000  H
  H104     1.0000 0.68500  0.78690  0.16900  Biso   1.000  H
  H105     1.0000 0.15120  0.61610  0.66450  Biso   1.000  H
  H106     1.0000 0.84880  0.61610  0.83550  Biso   1.000  H
  H107     1.0000 0.65120  0.11610  0.66450  Biso   1.000  H
  H108     1.0000 0.34880  0.11610  0.83550  Biso   1.000  H
  H109     1.0000 0.84880  0.38390  0.33550  Biso   1.000  H
  H110     1.0000 0.15120  0.38390  0.16450  Biso   1.000  H
  H111     1.0000 0.34880  0.88390  0.33550  Biso   1.000  H
  H112     1.0000 0.65120  0.88390  0.16450  Biso   1.000  H
  C105     1.0000 0.09710  0.57570  0.56590  Biso   1.000  C
  C106     1.0000 0.90290  0.57570  0.93410  Biso   1.000  C
  C107     1.0000 0.59710  0.07570  0.56590  Biso   1.000  C
  C108     1.0000 0.40290  0.07570  0.93410  Biso   1.000  C
  C109     1.0000 0.90290  0.42430  0.43410  Biso   1.000  C
  C110     1.0000 0.09710  0.42430  0.06590  Biso   1.000  C
  C111     1.0000 0.40290  0.92430  0.43410  Biso   1.000  C
  C112     1.0000 0.59710  0.92430  0.06590  Biso   1.000  C
  H113     1.0000 0.10390  0.58070  0.61600  Biso   1.000  H
  H114     1.0000 0.89610  0.58070  0.88400  Biso   1.000  H
  H115     1.0000 0.60390  0.08070  0.61600  Biso   1.000  H
  H116     1.0000 0.39610  0.08070  0.88400  Biso   1.000  H
  H117     1.0000 0.89610  0.41930  0.38400  Biso   1.000  H
  H118     1.0000 0.10390  0.41930  0.11600  Biso   1.000  H
  H119     1.0000 0.39610  0.91930  0.38400  Biso   1.000  H
  H120     1.0000 0.60390  0.91930  0.11600  Biso   1.000  H
  H121     1.0000 0.09560  0.47180  0.55130  Biso   1.000  H
  H122     1.0000 0.90440  0.47180  0.94870  Biso   1.000  H
  H123     1.0000 0.59560  0.97180  0.55130  Biso   1.000  H
  H124     1.0000 0.40440  0.97180  0.94870  Biso   1.000  H
  H125     1.0000 0.90440  0.52820  0.44870  Biso   1.000  H
  H126     1.0000 0.09560  0.52820  0.05130  Biso   1.000  H
  H127     1.0000 0.40440  0.02820  0.44870  Biso   1.000  H
  H128     1.0000 0.59560  0.02820  0.05130  Biso   1.000  H
  H129     1.0000 0.07470  0.62300  0.55160  Biso   1.000  H
  H130     1.0000 0.92530  0.62300  0.94840  Biso   1.000  H
  H131     1.0000 0.57470  0.12300  0.55160  Biso   1.000  H
  H132     1.0000 0.42530  0.12300  0.94840  Biso   1.000  H
  H133     1.0000 0.92530  0.37700  0.44840  Biso   1.000  H
  H134     1.0000 0.07470  0.37700  0.05160  Biso   1.000  H
  H135     1.0000 0.42530  0.87700  0.44840  Biso   1.000  H
  H136     1.0000 0.57470  0.87700  0.05160  Biso   1.000  H
  C113     1.0000 0.08720  0.58700  0.41610  Biso   1.000  C
  C114     1.0000 0.91280  0.58700  0.08390  Biso   1.000  C
  C115     1.0000 0.58720  0.08700  0.41610  Biso   1.000  C
  C116     1.0000 0.41280  0.08700  0.08390  Biso   1.000  C
  C117     1.0000 0.91280  0.41300  0.58390  Biso   1.000  C
  C118     1.0000 0.08720  0.41300  0.91610  Biso   1.000  C
  C119     1.0000 0.41280  0.91300  0.58390  Biso   1.000  C
  C120     1.0000 0.58720  0.91300  0.91610  Biso   1.000  C
  H137     1.0000 0.08730  0.60110  0.36720  Biso   1.000  H
  H138     1.0000 0.91270  0.60110  0.13280  Biso   1.000  H
  H139     1.0000 0.58730  0.10110  0.36720  Biso   1.000  H
  H140     1.0000 0.41270  0.10110  0.13280  Biso   1.000  H
  H141     1.0000 0.91270  0.39890  0.63280  Biso   1.000  H
  H142     1.0000 0.08730  0.39890  0.86720  Biso   1.000  H
  H143     1.0000 0.41270  0.89890  0.63280  Biso   1.000  H
  H144     1.0000 0.58730  0.89890  0.86720  Biso   1.000  H
  H145     1.0000 0.06630  0.62980  0.42700  Biso   1.000  H
  H146     1.0000 0.93370  0.62980  0.07300  Biso   1.000  H
  H147     1.0000 0.56630  0.12980  0.42700  Biso   1.000  H
  H148     1.0000 0.43370  0.12980  0.07300  Biso   1.000  H
  H149     1.0000 0.93370  0.37020  0.57300  Biso   1.000  H
  H150     1.0000 0.06630  0.37020  0.92700  Biso   1.000  H
  H151     1.0000 0.43370  0.87020  0.57300  Biso   1.000  H
  H152     1.0000 0.56630  0.87020  0.92700  Biso   1.000  H
  H153     1.0000 0.08800  0.48070  0.42670  Biso   1.000  H
  H154     1.0000 0.91200  0.48070  0.07330  Biso   1.000  H
  H155     1.0000 0.58800  0.98070  0.42670  Biso   1.000  H
  H156     1.0000 0.41200  0.98070  0.07330  Biso   1.000  H
  H157     1.0000 0.91200  0.51930  0.57330  Biso   1.000  H
  H158     1.0000 0.08800  0.51930  0.92670  Biso   1.000  H
  H159     1.0000 0.41200  0.01930  0.57330  Biso   1.000  H
  H160     1.0000 0.58800  0.01930  0.92670  Biso   1.000  H
  C121     1.0000 0.13523  0.75950  0.34710  Biso   1.000  C
  C122     1.0000 0.86477  0.75950  0.15290  Biso   1.000  C
  C123     1.0000 0.63523  0.25950  0.34710  Biso   1.000  C
  C124     1.0000 0.36477  0.25950  0.15290  Biso   1.000  C
  C125     1.0000 0.86477  0.24050  0.65290  Biso   1.000  C
  C126     1.0000 0.13523  0.24050  0.84710  Biso   1.000  C
  C127     1.0000 0.36477  0.74050  0.65290  Biso   1.000  C
  C128     1.0000 0.63523  0.74050  0.84710  Biso   1.000  C
  H161     1.0000 0.14390  0.85750  0.33580  Biso   1.000  H
  H162     1.0000 0.85610  0.85750  0.16420  Biso   1.000  H
  H163     1.0000 0.64390  0.35750  0.33580  Biso   1.000  H
  H164     1.0000 0.35610  0.35750  0.16420  Biso   1.000  H
  H165     1.0000 0.85610  0.14250  0.66420  Biso   1.000  H
  H166     1.0000 0.14390  0.14250  0.83580  Biso   1.000  H
  H167     1.0000 0.35610  0.64250  0.66420  Biso   1.000  H
  H168     1.0000 0.64390  0.64250  0.83580  Biso   1.000  H
  H169     1.0000 0.11010  0.75990  0.33020  Biso   1.000  H
  H170     1.0000 0.88990  0.75990  0.16980  Biso   1.000  H
  H171     1.0000 0.61010  0.25990  0.33020  Biso   1.000  H
  H172     1.0000 0.38990  0.25990  0.16980  Biso   1.000  H
  H173     1.0000 0.88990  0.24010  0.66980  Biso   1.000  H
  H174     1.0000 0.11010  0.24010  0.83020  Biso   1.000  H
  H175     1.0000 0.38990  0.74010  0.66980  Biso   1.000  H
  H176     1.0000 0.61010  0.74010  0.83020  Biso   1.000  H
  C129     1.0000 0.19560  0.91170  0.43450  Biso   1.000  C
  C130     1.0000 0.80440  0.91170  0.06550  Biso   1.000  C
  C131     1.0000 0.69560  0.41170  0.43450  Biso   1.000  C
  C132     1.0000 0.30440  0.41170  0.06550  Biso   1.000  C
  C133     1.0000 0.80440  0.08830  0.56550  Biso   1.000  C
  C134     1.0000 0.19560  0.08830  0.93450  Biso   1.000  C
  C135     1.0000 0.30440  0.58830  0.56550  Biso   1.000  C
  C136     1.0000 0.69560  0.58830  0.93450  Biso   1.000  C
  H177     1.0000 0.21340  0.95400  0.47040  Biso   1.000  H
  H178     1.0000 0.78660  0.95400  0.02960  Biso   1.000  H
  H179     1.0000 0.71340  0.45400  0.47040  Biso   1.000  H
  H180     1.0000 0.28660  0.45400  0.02960  Biso   1.000  H
  H181     1.0000 0.78660  0.04600  0.52960  Biso   1.000  H
  H182     1.0000 0.21340  0.04600  0.97040  Biso   1.000  H
  H183     1.0000 0.28660  0.54600  0.52960  Biso   1.000  H
  H184     1.0000 0.71340  0.54600  0.97040  Biso   1.000  H
  H185     1.0000 0.18340  0.99190  0.40660  Biso   1.000  H
  H186     1.0000 0.81660  0.99190  0.09340  Biso   1.000  H
  H187     1.0000 0.68340  0.49190  0.40660  Biso   1.000  H
  H188     1.0000 0.31660  0.49190  0.09340  Biso   1.000  H
  H189     1.0000 0.81660  0.00810  0.59340  Biso   1.000  H
  H190     1.0000 0.18340  0.00810  0.90660  Biso   1.000  H
  H191     1.0000 0.31660  0.50810  0.59340  Biso   1.000  H
  H192     1.0000 0.68340  0.50810  0.90660  Biso   1.000  H
  H193     1.0000 0.20620  0.84610  0.40510  Biso   1.000  H
  H194     1.0000 0.79380  0.84610  0.09490  Biso   1.000  H
  H195     1.0000 0.70620  0.34610  0.40510  Biso   1.000  H
  H196     1.0000 0.29380  0.34610  0.09490  Biso   1.000  H
  H197     1.0000 0.79380  0.15390  0.59490  Biso   1.000  H
  H198     1.0000 0.20620  0.15390  0.90510  Biso   1.000  H
  H199     1.0000 0.29380  0.65390  0.59490  Biso   1.000  H
  H200     1.0000 0.70620  0.65390  0.90510  Biso   1.000  H
  C137     1.0000 0.20770  0.88850  0.58520  Biso   1.000  C
  C138     1.0000 0.79230  0.88850  0.91480  Biso   1.000  C
  C139     1.0000 0.70770  0.38850  0.58520  Biso   1.000  C
  C140     1.0000 0.29230  0.38850  0.91480  Biso   1.000  C
  C141     1.0000 0.79230  0.11150  0.41480  Biso   1.000  C
  C142     1.0000 0.20770  0.11150  0.08520  Biso   1.000  C
  C143     1.0000 0.29230  0.61150  0.41480  Biso   1.000  C
  C144     1.0000 0.70770  0.61150  0.08520  Biso   1.000  C
  H201     1.0000 0.20770  0.87180  0.63400  Biso   1.000  H
  H202     1.0000 0.79230  0.87180  0.86600  Biso   1.000  H
  H203     1.0000 0.70770  0.37180  0.63400  Biso   1.000  H
  H204     1.0000 0.29230  0.37180  0.86600  Biso   1.000  H
  H205     1.0000 0.79230  0.12820  0.36600  Biso   1.000  H
  H206     1.0000 0.20770  0.12820  0.13400  Biso   1.000  H
  H207     1.0000 0.29230  0.62820  0.36600  Biso   1.000  H
  H208     1.0000 0.70770  0.62820  0.13400  Biso   1.000  H
  H209     1.0000 0.20680  0.99520  0.57580  Biso   1.000  H
  H210     1.0000 0.79320  0.99520  0.92420  Biso   1.000  H
  H211     1.0000 0.70680  0.49520  0.57580  Biso   1.000  H
  H212     1.0000 0.29320  0.49520  0.92420  Biso   1.000  H
  H213     1.0000 0.79320  0.00480  0.42420  Biso   1.000  H
  H214     1.0000 0.20680  0.00480  0.07580  Biso   1.000  H
  H215     1.0000 0.29320  0.50480  0.42420  Biso   1.000  H
  H216     1.0000 0.70680  0.50480  0.07580  Biso   1.000  H
  H217     1.0000 0.22860  0.84670  0.57360  Biso   1.000  H
  H218     1.0000 0.77140  0.84670  0.92640  Biso   1.000  H
  H219     1.0000 0.72860  0.34670  0.57360  Biso   1.000  H
  H220     1.0000 0.27140  0.34670  0.92640  Biso   1.000  H
  H221     1.0000 0.77140  0.15330  0.42640  Biso   1.000  H
  H222     1.0000 0.22860  0.15330  0.07360  Biso   1.000  H
  H223     1.0000 0.27140  0.65330  0.42640  Biso   1.000  H
  H224     1.0000 0.72860  0.65330  0.07360  Biso   1.000  H
  C145     1.0000 0.09240  0.96890  0.02300  Biso   1.000  C
  C146     1.0000 0.90760  0.96890  0.47700  Biso   1.000  C
  C147     1.0000 0.59240  0.46890  0.02300  Biso   1.000  C
  C148     1.0000 0.40760  0.46890  0.47700  Biso   1.000  C
  C149     1.0000 0.90760  0.03110  0.97700  Biso   1.000  C
  C150     1.0000 0.09240  0.03110  0.52300  Biso   1.000  C
  C151     1.0000 0.40760  0.53110  0.97700  Biso   1.000  C
  C152     1.0000 0.59240  0.53110  0.52300  Biso   1.000  C
  H225     1.0000 0.08230  0.01840  0.05620  Biso   1.000  H
  H226     1.0000 0.91770  0.01840  0.44380  Biso   1.000  H
  H227     1.0000 0.58230  0.51840  0.05620  Biso   1.000  H
  H228     1.0000 0.41770  0.51840  0.44380  Biso   1.000  H
  H229     1.0000 0.91770  0.98160  0.94380  Biso   1.000  H
  H230     1.0000 0.08230  0.98160  0.55620  Biso   1.000  H
  H231     1.0000 0.41770  0.48160  0.94380  Biso   1.000  H
  H232     1.0000 0.58230  0.48160  0.55620  Biso   1.000  H
  C153     1.0000 0.08120  0.00260  0.95300  Biso   1.000  C
  C154     1.0000 0.91880  0.00260  0.54700  Biso   1.000  C
  C155     1.0000 0.58120  0.50260  0.95300  Biso   1.000  C
  C156     1.0000 0.41880  0.50260  0.54700  Biso   1.000  C
  C157     1.0000 0.91880  0.99740  0.04700  Biso   1.000  C
  C158     1.0000 0.08120  0.99740  0.45300  Biso   1.000  C
  C159     1.0000 0.41880  0.49740  0.04700  Biso   1.000  C
  C160     1.0000 0.58120  0.49740  0.45300  Biso   1.000  C
  H233     1.0000 0.06420  0.07630  0.93940  Biso   1.000  H
  H234     1.0000 0.93580  0.07630  0.56060  Biso   1.000  H
  H235     1.0000 0.56420  0.57630  0.93940  Biso   1.000  H
  H236     1.0000 0.43580  0.57630  0.56060  Biso   1.000  H
  H237     1.0000 0.93580  0.92370  0.06060  Biso   1.000  H
  H238     1.0000 0.06420  0.92370  0.43940  Biso   1.000  H
  H239     1.0000 0.43580  0.42370  0.06060  Biso   1.000  H
  H240     1.0000 0.56420  0.42370  0.43940  Biso   1.000  H
  C161     1.0000 0.09540  0.92570  0.90350  Biso   1.000  C
  C162     1.0000 0.90460  0.92570  0.59650  Biso   1.000  C
  C163     1.0000 0.59540  0.42570  0.90350  Biso   1.000  C
  C164     1.0000 0.40460  0.42570  0.59650  Biso   1.000  C
  C165     1.0000 0.90460  0.07430  0.09650  Biso   1.000  C
  C166     1.0000 0.09540  0.07430  0.40350  Biso   1.000  C
  C167     1.0000 0.40460  0.57430  0.09650  Biso   1.000  C
  C168     1.0000 0.59540  0.57430  0.40350  Biso   1.000  C
  H241     1.0000 0.08740  0.94250  0.85590  Biso   1.000  H
  H242     1.0000 0.91260  0.94250  0.64410  Biso   1.000  H
  H243     1.0000 0.58740  0.44250  0.85590  Biso   1.000  H
  H244     1.0000 0.41260  0.44250  0.64410  Biso   1.000  H
  H245     1.0000 0.91260  0.05750  0.14410  Biso   1.000  H
  H246     1.0000 0.08740  0.05750  0.35590  Biso   1.000  H
  H247     1.0000 0.41260  0.55750  0.14410  Biso   1.000  H
  H248     1.0000 0.58740  0.55750  0.35590  Biso   1.000  H
  C169     1.0000 0.12180  0.82360  0.92590  Biso   1.000  C
  C170     1.0000 0.87820  0.82360  0.57410  Biso   1.000  C
  C171     1.0000 0.62180  0.32360  0.92590  Biso   1.000  C
  C172     1.0000 0.37820  0.32360  0.57410  Biso   1.000  C
  C173     1.0000 0.87820  0.17640  0.07410  Biso   1.000  C
  C174     1.0000 0.12180  0.17640  0.42590  Biso   1.000  C
  C175     1.0000 0.37820  0.67640  0.07410  Biso   1.000  C
  C176     1.0000 0.62180  0.67640  0.42590  Biso   1.000  C
  H249     1.0000 0.13200  0.77120  0.89350  Biso   1.000  H
  H250     1.0000 0.86800  0.77120  0.60650  Biso   1.000  H
  H251     1.0000 0.63200  0.27120  0.89350  Biso   1.000  H
  H252     1.0000 0.36800  0.27120  0.60650  Biso   1.000  H
  H253     1.0000 0.86800  0.22880  0.10650  Biso   1.000  H
  H254     1.0000 0.13200  0.22880  0.39350  Biso   1.000  H
  H255     1.0000 0.36800  0.72880  0.10650  Biso   1.000  H
  H256     1.0000 0.63200  0.72880  0.39350  Biso   1.000  H
  C177     1.0000 0.13290  0.79940  0.99620  Biso   1.000  C
  C178     1.0000 0.86710  0.79940  0.50380  Biso   1.000  C
  C179     1.0000 0.63290  0.29940  0.99620  Biso   1.000  C
  C180     1.0000 0.36710  0.29940  0.50380  Biso   1.000  C
  C181     1.0000 0.86710  0.20060  0.00380  Biso   1.000  C
  C182     1.0000 0.13290  0.20060  0.49620  Biso   1.000  C
  C183     1.0000 0.36710  0.70060  0.00380  Biso   1.000  C
  C184     1.0000 0.63290  0.70060  0.49620  Biso   1.000  C
  C185     1.0000 0.16280  0.70170  0.02740  Biso   1.000  C
  C186     1.0000 0.83720  0.70170  0.47260  Biso   1.000  C
  C187     1.0000 0.66280  0.20170  0.02740  Biso   1.000  C
  C188     1.0000 0.33720  0.20170  0.47260  Biso   1.000  C
  C189     1.0000 0.83720  0.29830  0.97260  Biso   1.000  C
  C190     1.0000 0.16280  0.29830  0.52740  Biso   1.000  C
  C191     1.0000 0.33720  0.79830  0.97260  Biso   1.000  C
  C192     1.0000 0.66280  0.79830  0.52740  Biso   1.000  C
  C193     1.0000 0.18390  0.62640  0.98740  Biso   1.000  C
  C194     1.0000 0.81610  0.62640  0.51260  Biso   1.000  C
  C195     1.0000 0.68390  0.12640  0.98740  Biso   1.000  C
  C196     1.0000 0.31610  0.12640  0.51260  Biso   1.000  C
  C197     1.0000 0.81610  0.37360  0.01260  Biso   1.000  C
  C198     1.0000 0.18390  0.37360  0.48740  Biso   1.000  C
  C199     1.0000 0.31610  0.87360  0.01260  Biso   1.000  C
  C200     1.0000 0.68390  0.87360  0.48740  Biso   1.000  C
  H257     1.0000 0.17830  0.62820  0.93860  Biso   1.000  H
  H258     1.0000 0.82170  0.62820  0.56140  Biso   1.000  H
  H259     1.0000 0.67830  0.12820  0.93860  Biso   1.000  H
  H260     1.0000 0.32170  0.12820  0.56140  Biso   1.000  H
  H261     1.0000 0.82170  0.37180  0.06140  Biso   1.000  H
  H262     1.0000 0.17830  0.37180  0.43860  Biso   1.000  H
  H263     1.0000 0.32170  0.87180  0.06140  Biso   1.000  H
  H264     1.0000 0.67830  0.87180  0.43860  Biso   1.000  H
  C201     1.0000 0.21230  0.55170  0.02050  Biso   1.000  C
  C202     1.0000 0.78770  0.55170  0.47950  Biso   1.000  C
  C203     1.0000 0.71230  0.05170  0.02050  Biso   1.000  C
  C204     1.0000 0.28770  0.05170  0.47950  Biso   1.000  C
  C205     1.0000 0.78770  0.44830  0.97950  Biso   1.000  C
  C206     1.0000 0.21230  0.44830  0.52050  Biso   1.000  C
  C207     1.0000 0.28770  0.94830  0.97950  Biso   1.000  C
  C208     1.0000 0.71230  0.94830  0.52050  Biso   1.000  C
  H265     1.0000 0.22700  0.50410  0.99480  Biso   1.000  H
  H266     1.0000 0.77300  0.50410  0.50520  Biso   1.000  H
  H267     1.0000 0.72700  0.00410  0.99480  Biso   1.000  H
  H268     1.0000 0.27300  0.00410  0.50520  Biso   1.000  H
  H269     1.0000 0.77300  0.49590  0.00520  Biso   1.000  H
  H270     1.0000 0.22700  0.49590  0.49480  Biso   1.000  H
  H271     1.0000 0.27300  0.99590  0.00520  Biso   1.000  H
  H272     1.0000 0.72700  0.99590  0.49480  Biso   1.000  H
  C209     1.0000 0.21970  0.54570  0.09250  Biso   1.000  C
  C210     1.0000 0.78030  0.54570  0.40750  Biso   1.000  C
  C211     1.0000 0.71970  0.04570  0.09250  Biso   1.000  C
  C212     1.0000 0.28030  0.04570  0.40750  Biso   1.000  C
  C213     1.0000 0.78030  0.45430  0.90750  Biso   1.000  C
  C214     1.0000 0.21970  0.45430  0.59250  Biso   1.000  C
  C215     1.0000 0.28030  0.95430  0.90750  Biso   1.000  C
  C216     1.0000 0.71970  0.95430  0.59250  Biso   1.000  C
  H273     1.0000 0.23930  0.49460  0.11620  Biso   1.000  H
  H274     1.0000 0.76070  0.49460  0.38380  Biso   1.000  H
  H275     1.0000 0.73930  0.99460  0.11620  Biso   1.000  H
  H276     1.0000 0.26070  0.99460  0.38380  Biso   1.000  H
  H277     1.0000 0.76070  0.50540  0.88380  Biso   1.000  H
  H278     1.0000 0.23930  0.50540  0.61620  Biso   1.000  H
  H279     1.0000 0.26070  0.00540  0.88380  Biso   1.000  H
  H280     1.0000 0.73930  0.00540  0.61620  Biso   1.000  H
  C217     1.0000 0.19740  0.61670  0.12830  Biso   1.000  C
  C218     1.0000 0.80260  0.61670  0.37170  Biso   1.000  C
  C219     1.0000 0.69740  0.11670  0.12830  Biso   1.000  C
  C220     1.0000 0.30260  0.11670  0.37170  Biso   1.000  C
  C221     1.0000 0.80260  0.38330  0.87170  Biso   1.000  C
  C222     1.0000 0.19740  0.38330  0.62830  Biso   1.000  C
  C223     1.0000 0.30260  0.88330  0.87170  Biso   1.000  C
  C224     1.0000 0.69740  0.88330  0.62830  Biso   1.000  C
  H281     1.0000 0.20210  0.61120  0.17700  Biso   1.000  H
  H282     1.0000 0.79790  0.61120  0.32300  Biso   1.000  H
  H283     1.0000 0.70210  0.11120  0.17700  Biso   1.000  H
  H284     1.0000 0.29790  0.11120  0.32300  Biso   1.000  H
  H285     1.0000 0.79790  0.38880  0.82300  Biso   1.000  H
  H286     1.0000 0.20210  0.38880  0.67700  Biso   1.000  H
  H287     1.0000 0.29790  0.88880  0.82300  Biso   1.000  H
  H288     1.0000 0.70210  0.88880  0.67700  Biso   1.000  H
  O73      1.0000 0.28135  0.38000  0.23250  Biso   1.000  O
  O74      1.0000 0.71865  0.38000  0.26750  Biso   1.000  O
  O75      1.0000 0.78135  0.88000  0.23250  Biso   1.000  O
  O76      1.0000 0.21865  0.88000  0.26750  Biso   1.000  O
  O77      1.0000 0.71865  0.62000  0.76750  Biso   1.000  O
  O78      1.0000 0.28135  0.62000  0.73250  Biso   1.000  O
  O79      1.0000 0.21865  0.12000  0.76750  Biso   1.000  O
  O80      1.0000 0.78135  0.12000  0.73250  Biso   1.000  O
  H289     1.0000 0.29760  0.41050  0.26520  Biso   1.000  H
  H290     1.0000 0.70240  0.41050  0.23480  Biso   1.000  H
  H291     1.0000 0.79760  0.91050  0.26520  Biso   1.000  H
  H292     1.0000 0.20240  0.91050  0.23480  Biso   1.000  H
  H293     1.0000 0.70240  0.58950  0.73480  Biso   1.000  H
  H294     1.0000 0.29760  0.58950  0.76520  Biso   1.000  H
  H295     1.0000 0.20240  0.08950  0.73480  Biso   1.000  H
  H296     1.0000 0.79760  0.08950  0.76520  Biso   1.000  H
  H297     1.0000 0.26480  0.31700  0.23100  Biso   1.000  H
  H298     1.0000 0.73520  0.31700  0.26900  Biso   1.000  H
  H299     1.0000 0.76480  0.81700  0.23100  Biso   1.000  H
  H300     1.0000 0.23520  0.81700  0.26900  Biso   1.000  H
  H301     1.0000 0.73520  0.68300  0.76900  Biso   1.000  H
  H302     1.0000 0.26480  0.68300  0.73100  Biso   1.000  H
  H303     1.0000 0.23520  0.18300  0.76900  Biso   1.000  H
  H304     1.0000 0.76480  0.18300  0.73100  Biso   1.000  H
  O81      1.0000 0.23044  0.34840  0.31750  Biso   1.000  O
  O82      1.0000 0.76956  0.34840  0.18250  Biso   1.000  O
  O83      1.0000 0.73044  0.84840  0.31750  Biso   1.000  O
  O84      1.0000 0.26956  0.84840  0.18250  Biso   1.000  O
  O85      1.0000 0.76956  0.65160  0.68250  Biso   1.000  O
  O86      1.0000 0.23044  0.65160  0.81750  Biso   1.000  O
  O87      1.0000 0.26956  0.15160  0.68250  Biso   1.000  O
  O88      1.0000 0.73044  0.15160  0.81750  Biso   1.000  O
  H305     1.0000 0.22330  0.43890  0.31950  Biso   1.000  H
  H306     1.0000 0.77670  0.43890  0.18050  Biso   1.000  H
  H307     1.0000 0.72330  0.93890  0.31950  Biso   1.000  H
  H308     1.0000 0.27670  0.93890  0.18050  Biso   1.000  H
  H309     1.0000 0.77670  0.56110  0.68050  Biso   1.000  H
  H310     1.0000 0.22330  0.56110  0.81950  Biso   1.000  H
  H311     1.0000 0.27670  0.06110  0.68050  Biso   1.000  H
  H312     1.0000 0.72330  0.06110  0.81950  Biso   1.000  H
  H313     1.0000 0.23500  0.25540  0.31230  Biso   1.000  H
  H314     1.0000 0.76500  0.25540  0.18770  Biso   1.000  H
  H315     1.0000 0.73500  0.75540  0.31230  Biso   1.000  H
  H316     1.0000 0.26500  0.75540  0.18770  Biso   1.000  H
  H317     1.0000 0.76500  0.74460  0.68770  Biso   1.000  H
  H318     1.0000 0.23500  0.74460  0.81230  Biso   1.000  H
  H319     1.0000 0.26500  0.24460  0.68770  Biso   1.000  H
  H320     1.0000 0.73500  0.24460  0.81230  Biso   1.000  H
  O89      1.0000 0.06810  0.43270  0.24510  Biso   1.000  O
  O90      1.0000 0.93190  0.43270  0.25490  Biso   1.000  O
  O91      1.0000 0.56810  0.93270  0.24510  Biso   1.000  O
  O92      1.0000 0.43190  0.93270  0.25490  Biso   1.000  O
  O93      1.0000 0.93190  0.56730  0.75490  Biso   1.000  O
  O94      1.0000 0.06810  0.56730  0.74510  Biso   1.000  O
  O95      1.0000 0.43190  0.06730  0.75490  Biso   1.000  O
  O96      1.0000 0.56810  0.06730  0.74510  Biso   1.000  O
  H321     1.0000 0.08050  0.38020  0.27730  Biso   1.000  H
  H322     1.0000 0.91950  0.38020  0.22270  Biso   1.000  H
  H323     1.0000 0.58050  0.88020  0.27730  Biso   1.000  H
  H324     1.0000 0.41950  0.88020  0.22270  Biso   1.000  H
  H325     1.0000 0.91950  0.61980  0.72270  Biso   1.000  H
  H326     1.0000 0.08050  0.61980  0.77730  Biso   1.000  H
  H327     1.0000 0.41950  0.11980  0.72270  Biso   1.000  H
  H328     1.0000 0.58050  0.11980  0.77730  Biso   1.000  H
  H329     1.0000 0.06900  0.39260  0.20580  Biso   1.000  H
  H330     1.0000 0.93100  0.39260  0.29420  Biso   1.000  H
  H331     1.0000 0.56900  0.89260  0.20580  Biso   1.000  H
  H332     1.0000 0.43100  0.89260  0.29420  Biso   1.000  H
  H333     1.0000 0.93100  0.60740  0.79420  Biso   1.000  H
  H334     1.0000 0.06900  0.60740  0.70580  Biso   1.000  H
  H335     1.0000 0.43100  0.10740  0.79420  Biso   1.000  H
  H336     1.0000 0.56900  0.10740  0.70580  Biso   1.000  H
