data_image0
_cell_length_a       26.547
_cell_length_b       19.279
_cell_length_c       17.995
_cell_angle_alpha    90
_cell_angle_beta     113.82
_cell_angle_gamma    90

_symmetry_space_group_name_H-M    "P 1"
_symmetry_int_tables_number       1

loop_
  _symmetry_equiv_pos_as_xyz
  'x, y, z'

loop_
  _atom_site_label
  _atom_site_occupancy
  _atom_site_fract_x
  _atom_site_fract_y
  _atom_site_fract_z
  _atom_site_thermal_displace_type
  _atom_site_B_iso_or_equiv
  _atom_site_type_symbol
  Ru1      1.0000 0.34280  0.19000  0.26158  Biso   1.000  Ru
  Ru2      1.0000 0.65720  0.19000  0.23842  Biso   1.000  Ru
  Ru3      1.0000 0.84280  0.69000  0.26158  Biso   1.000  Ru
  Ru4      1.0000 0.15720  0.69000  0.23842  Biso   1.000  Ru
  Ru5      1.0000 0.65720  0.81000  0.73842  Biso   1.000  Ru
  Ru6      1.0000 0.34280  0.81000  0.76158  Biso   1.000  Ru
  Ru7      1.0000 0.15720  0.31000  0.73842  Biso   1.000  Ru
  Ru8      1.0000 0.84280  0.31000  0.76158  Biso   1.000  Ru
  Cu1      1.0000 0.15475  0.31238  0.24454  Biso   1.000  Cu
  Cu2      1.0000 0.84525  0.31238  0.25546  Biso   1.000  Cu
  Cu3      1.0000 0.65475  0.81238  0.24454  Biso   1.000  Cu
  Cu4      1.0000 0.34525  0.81238  0.25546  Biso   1.000  Cu
  Cu5      1.0000 0.84525  0.68762  0.75546  Biso   1.000  Cu
  Cu6      1.0000 0.15475  0.68762  0.74454  Biso   1.000  Cu
  Cu7      1.0000 0.34525  0.18762  0.75546  Biso   1.000  Cu
  Cu8      1.0000 0.65475  0.18762  0.74454  Biso   1.000  Cu
  O1       1.0000 0.42297  0.20764  0.31722  Biso   1.000  O
  O2       1.0000 0.57703  0.20764  0.18278  Biso   1.000  O
  O3       1.0000 0.92297  0.70764  0.31722  Biso   1.000  O
  O4       1.0000 0.07703  0.70764  0.18278  Biso   1.000  O
  O5       1.0000 0.57703  0.79236  0.68278  Biso   1.000  O
  O6       1.0000 0.42297  0.79236  0.81722  Biso   1.000  O
  O7       1.0000 0.07703  0.29236  0.68278  Biso   1.000  O
  O8       1.0000 0.92297  0.29236  0.81722  Biso   1.000  O
  O9       1.0000 0.34959  0.26390  0.18326  Biso   1.000  O
  O10      1.0000 0.65041  0.26390  0.31674  Biso   1.000  O
  O11      1.0000 0.84959  0.76390  0.18326  Biso   1.000  O
  O12      1.0000 0.15041  0.76390  0.31674  Biso   1.000  O
  O13      1.0000 0.65041  0.73610  0.81674  Biso   1.000  O
  O14      1.0000 0.34959  0.73610  0.68326  Biso   1.000  O
  O15      1.0000 0.15041  0.23610  0.81674  Biso   1.000  O
  O16      1.0000 0.84959  0.23610  0.68326  Biso   1.000  O
  O17      1.0000 0.48832  0.27914  0.32175  Biso   1.000  O
  O18      1.0000 0.51168  0.27914  0.17825  Biso   1.000  O
  O19      1.0000 0.98832  0.77914  0.32175  Biso   1.000  O
  O20      1.0000 0.01168  0.77914  0.17825  Biso   1.000  O
  O21      1.0000 0.51168  0.72086  0.67825  Biso   1.000  O
  O22      1.0000 0.48832  0.72086  0.82175  Biso   1.000  O
  O23      1.0000 0.01168  0.22086  0.67825  Biso   1.000  O
  O24      1.0000 0.98832  0.22086  0.82175  Biso   1.000  O
  O25      1.0000 0.41097  0.34043  0.18600  Biso   1.000  O
  O26      1.0000 0.58903  0.34043  0.31400  Biso   1.000  O
  O27      1.0000 0.91097  0.84043  0.18600  Biso   1.000  O
  O28      1.0000 0.08903  0.84043  0.31400  Biso   1.000  O
  O29      1.0000 0.58903  0.65957  0.81400  Biso   1.000  O
  O30      1.0000 0.41097  0.65957  0.68600  Biso   1.000  O
  O31      1.0000 0.08903  0.15957  0.81400  Biso   1.000  O
  O32      1.0000 0.91097  0.15957  0.68600  Biso   1.000  O
  O33      1.0000 0.26160  0.18641  0.18389  Biso   1.000  O
  O34      1.0000 0.73840  0.18641  0.31611  Biso   1.000  O
  O35      1.0000 0.76160  0.68641  0.18389  Biso   1.000  O
  O36      1.0000 0.23840  0.68641  0.31611  Biso   1.000  O
  O37      1.0000 0.73840  0.81359  0.81611  Biso   1.000  O
  O38      1.0000 0.26160  0.81359  0.68389  Biso   1.000  O
  O39      1.0000 0.23840  0.31359  0.81611  Biso   1.000  O
  O40      1.0000 0.76160  0.31359  0.68389  Biso   1.000  O
  O41      1.0000 0.32228  0.25449  0.31614  Biso   1.000  O
  O42      1.0000 0.67772  0.25449  0.18386  Biso   1.000  O
  O43      1.0000 0.82228  0.75449  0.31614  Biso   1.000  O
  O44      1.0000 0.17772  0.75449  0.18386  Biso   1.000  O
  O45      1.0000 0.67772  0.74551  0.68386  Biso   1.000  O
  O46      1.0000 0.32228  0.74551  0.81614  Biso   1.000  O
  O47      1.0000 0.17772  0.24551  0.68386  Biso   1.000  O
  O48      1.0000 0.82228  0.24551  0.81614  Biso   1.000  O
  O49      1.0000 0.18432  0.23479  0.17490  Biso   1.000  O
  O50      1.0000 0.81568  0.23479  0.32510  Biso   1.000  O
  O51      1.0000 0.68432  0.73479  0.17490  Biso   1.000  O
  O52      1.0000 0.31568  0.73479  0.32510  Biso   1.000  O
  O53      1.0000 0.81568  0.76521  0.82510  Biso   1.000  O
  O54      1.0000 0.18432  0.76521  0.67490  Biso   1.000  O
  O55      1.0000 0.31568  0.26521  0.82510  Biso   1.000  O
  O56      1.0000 0.68432  0.26521  0.67490  Biso   1.000  O
  O57      1.0000 0.24684  0.29755  0.32030  Biso   1.000  O
  O58      1.0000 0.75316  0.29755  0.17970  Biso   1.000  O
  O59      1.0000 0.74684  0.79755  0.32030  Biso   1.000  O
  O60      1.0000 0.25316  0.79755  0.17970  Biso   1.000  O
  O61      1.0000 0.75316  0.70245  0.67970  Biso   1.000  O
  O62      1.0000 0.24684  0.70245  0.82030  Biso   1.000  O
  O63      1.0000 0.25316  0.20245  0.67970  Biso   1.000  O
  O64      1.0000 0.74684  0.20245  0.82030  Biso   1.000  O
  O65      1.0000 0.34279  0.11714  0.32210  Biso   1.000  O
  O66      1.0000 0.65721  0.11714  0.17790  Biso   1.000  O
  O67      1.0000 0.84279  0.61714  0.32210  Biso   1.000  O
  O68      1.0000 0.15721  0.61714  0.17790  Biso   1.000  O
  O69      1.0000 0.65721  0.88286  0.67790  Biso   1.000  O
  O70      1.0000 0.34279  0.88286  0.82210  Biso   1.000  O
  O71      1.0000 0.15721  0.38286  0.67790  Biso   1.000  O
  O72      1.0000 0.84279  0.38286  0.82210  Biso   1.000  O
  O73      1.0000 0.35563  0.11795  0.18960  Biso   1.000  O
  O74      1.0000 0.64437  0.11795  0.31040  Biso   1.000  O
  O75      1.0000 0.85563  0.61795  0.18960  Biso   1.000  O
  O76      1.0000 0.14437  0.61795  0.31040  Biso   1.000  O
  O77      1.0000 0.64437  0.88205  0.81040  Biso   1.000  O
  O78      1.0000 0.35563  0.88205  0.68960  Biso   1.000  O
  O79      1.0000 0.14437  0.38205  0.81040  Biso   1.000  O
  O80      1.0000 0.85563  0.38205  0.68960  Biso   1.000  O
  O81      1.0000 0.35200  0.00734  0.33610  Biso   1.000  O
  O82      1.0000 0.64800  0.00734  0.16390  Biso   1.000  O
  O83      1.0000 0.85200  0.50734  0.33610  Biso   1.000  O
  O84      1.0000 0.14800  0.50734  0.16390  Biso   1.000  O
  O85      1.0000 0.64800  0.99266  0.66390  Biso   1.000  O
  O86      1.0000 0.35200  0.99266  0.83610  Biso   1.000  O
  O87      1.0000 0.14800  0.49266  0.66390  Biso   1.000  O
  O88      1.0000 0.85200  0.49266  0.83610  Biso   1.000  O
  O89      1.0000 0.35960  0.00784  0.18540  Biso   1.000  O
  O90      1.0000 0.64040  0.00784  0.31460  Biso   1.000  O
  O91      1.0000 0.85960  0.50784  0.18540  Biso   1.000  O
  O92      1.0000 0.14040  0.50784  0.31460  Biso   1.000  O
  O93      1.0000 0.64040  0.99216  0.81460  Biso   1.000  O
  O94      1.0000 0.35960  0.99216  0.68540  Biso   1.000  O
  O95      1.0000 0.14040  0.49216  0.81460  Biso   1.000  O
  O96      1.0000 0.85960  0.49216  0.68540  Biso   1.000  O
  O97      1.0000 0.00678  0.20417  0.17991  Biso   1.000  O
  O98      1.0000 0.99322  0.20417  0.32009  Biso   1.000  O
  O99      1.0000 0.50678  0.70417  0.17991  Biso   1.000  O
  O100     1.0000 0.49322  0.70417  0.32009  Biso   1.000  O
  O101     1.0000 0.99322  0.79583  0.82009  Biso   1.000  O
  O102     1.0000 0.00678  0.79583  0.67991  Biso   1.000  O
  O103     1.0000 0.49322  0.29583  0.82009  Biso   1.000  O
  O104     1.0000 0.50678  0.29583  0.67991  Biso   1.000  O
  O105     1.0000 0.08172  0.14227  0.30751  Biso   1.000  O
  O106     1.0000 0.91828  0.14227  0.19249  Biso   1.000  O
  O107     1.0000 0.58172  0.64227  0.30751  Biso   1.000  O
  O108     1.0000 0.41828  0.64227  0.19249  Biso   1.000  O
  O109     1.0000 0.91828  0.85773  0.69249  Biso   1.000  O
  O110     1.0000 0.08172  0.85773  0.80751  Biso   1.000  O
  O111     1.0000 0.41828  0.35773  0.69249  Biso   1.000  O
  O112     1.0000 0.58172  0.35773  0.80751  Biso   1.000  O
  O113     1.0000 0.07052  0.27275  0.17460  Biso   1.000  O
  O114     1.0000 0.92948  0.27275  0.32540  Biso   1.000  O
  O115     1.0000 0.57052  0.77275  0.17460  Biso   1.000  O
  O116     1.0000 0.42948  0.77275  0.32540  Biso   1.000  O
  O117     1.0000 0.92948  0.72725  0.82540  Biso   1.000  O
  O118     1.0000 0.07052  0.72725  0.67460  Biso   1.000  O
  O119     1.0000 0.42948  0.22725  0.82540  Biso   1.000  O
  O120     1.0000 0.57052  0.22725  0.67460  Biso   1.000  O
  O121     1.0000 0.14617  0.21743  0.31700  Biso   1.000  O
  O122     1.0000 0.85383  0.21743  0.18300  Biso   1.000  O
  O123     1.0000 0.64617  0.71743  0.31700  Biso   1.000  O
  O124     1.0000 0.35383  0.71743  0.18300  Biso   1.000  O
  O125     1.0000 0.85383  0.78257  0.68300  Biso   1.000  O
  O126     1.0000 0.14617  0.78257  0.81700  Biso   1.000  O
  O127     1.0000 0.35383  0.28257  0.68300  Biso   1.000  O
  O128     1.0000 0.64617  0.28257  0.81700  Biso   1.000  O
  O129     1.0000 0.99016  0.03547  0.17272  Biso   1.000  O
  O130     1.0000 0.00984  0.03547  0.32728  Biso   1.000  O
  O131     1.0000 0.49016  0.53547  0.17272  Biso   1.000  O
  O132     1.0000 0.50984  0.53547  0.32728  Biso   1.000  O
  O133     1.0000 0.00984  0.96453  0.82728  Biso   1.000  O
  O134     1.0000 0.99016  0.96453  0.67272  Biso   1.000  O
  O135     1.0000 0.50984  0.46453  0.82728  Biso   1.000  O
  O136     1.0000 0.49016  0.46453  0.67272  Biso   1.000  O
  O137     1.0000 0.98800  0.92385  0.16943  Biso   1.000  O
  O138     1.0000 0.01200  0.92385  0.33057  Biso   1.000  O
  O139     1.0000 0.48800  0.42385  0.16943  Biso   1.000  O
  O140     1.0000 0.51200  0.42385  0.33057  Biso   1.000  O
  O141     1.0000 0.01200  0.07615  0.83057  Biso   1.000  O
  O142     1.0000 0.98800  0.07615  0.66943  Biso   1.000  O
  O143     1.0000 0.51200  0.57615  0.83057  Biso   1.000  O
  O144     1.0000 0.48800  0.57615  0.66943  Biso   1.000  O
  O145     1.0000 0.13680  0.37650  0.31040  Biso   1.000  O
  O146     1.0000 0.86320  0.37650  0.18960  Biso   1.000  O
  O147     1.0000 0.63680  0.87650  0.31040  Biso   1.000  O
  O148     1.0000 0.36320  0.87650  0.18960  Biso   1.000  O
  O149     1.0000 0.86320  0.62350  0.68960  Biso   1.000  O
  O150     1.0000 0.13680  0.62350  0.81040  Biso   1.000  O
  O151     1.0000 0.36320  0.12350  0.68960  Biso   1.000  O
  O152     1.0000 0.63680  0.12350  0.81040  Biso   1.000  O
  H1       1.0000 0.16050  0.40700  0.31600  Biso   1.000  H
  H2       1.0000 0.83950  0.40700  0.18400  Biso   1.000  H
  H3       1.0000 0.66050  0.90700  0.31600  Biso   1.000  H
  H4       1.0000 0.33950  0.90700  0.18400  Biso   1.000  H
  H5       1.0000 0.83950  0.59300  0.68400  Biso   1.000  H
  H6       1.0000 0.16050  0.59300  0.81600  Biso   1.000  H
  H7       1.0000 0.33950  0.09300  0.68400  Biso   1.000  H
  H8       1.0000 0.66050  0.09300  0.81600  Biso   1.000  H
  H9       1.0000 0.14300  0.37000  0.36000  Biso   1.000  H
  H10      1.0000 0.85700  0.37000  0.14000  Biso   1.000  H
  H11      1.0000 0.64300  0.87000  0.36000  Biso   1.000  H
  H12      1.0000 0.35700  0.87000  0.14000  Biso   1.000  H
  H13      1.0000 0.85700  0.63000  0.64000  Biso   1.000  H
  H14      1.0000 0.14300  0.63000  0.86000  Biso   1.000  H
  H15      1.0000 0.35700  0.13000  0.64000  Biso   1.000  H
  H16      1.0000 0.64300  0.13000  0.86000  Biso   1.000  H
  O153     1.0000 0.15980  0.37910  0.16800  Biso   1.000  O
  O154     1.0000 0.84020  0.37910  0.33200  Biso   1.000  O
  O155     1.0000 0.65980  0.87910  0.16800  Biso   1.000  O
  O156     1.0000 0.34020  0.87910  0.33200  Biso   1.000  O
  O157     1.0000 0.84020  0.62090  0.83200  Biso   1.000  O
  O158     1.0000 0.15980  0.62090  0.66800  Biso   1.000  O
  O159     1.0000 0.34020  0.12090  0.83200  Biso   1.000  O
  O160     1.0000 0.65980  0.12090  0.66800  Biso   1.000  O
  H17      1.0000 0.16500  0.37200  0.12800  Biso   1.000  H
  H18      1.0000 0.83500  0.37200  0.37200  Biso   1.000  H
  H19      1.0000 0.66500  0.87200  0.12800  Biso   1.000  H
  H20      1.0000 0.33500  0.87200  0.37200  Biso   1.000  H
  H21      1.0000 0.83500  0.62800  0.87200  Biso   1.000  H
  H22      1.0000 0.16500  0.62800  0.62800  Biso   1.000  H
  H23      1.0000 0.33500  0.12800  0.87200  Biso   1.000  H
  H24      1.0000 0.66500  0.12800  0.62800  Biso   1.000  H
  H25      1.0000 0.16100  0.41700  0.18200  Biso   1.000  H
  H26      1.0000 0.83900  0.41700  0.31800  Biso   1.000  H
  H27      1.0000 0.66100  0.91700  0.18200  Biso   1.000  H
  H28      1.0000 0.33900  0.91700  0.31800  Biso   1.000  H
  H29      1.0000 0.83900  0.58300  0.81800  Biso   1.000  H
  H30      1.0000 0.16100  0.58300  0.68200  Biso   1.000  H
  H31      1.0000 0.33900  0.08300  0.81800  Biso   1.000  H
  H32      1.0000 0.66100  0.08300  0.68200  Biso   1.000  H
  C1       1.0000 0.44070  0.25660  0.29170  Biso   1.000  C
  C2       1.0000 0.55930  0.25660  0.20830  Biso   1.000  C
  C3       1.0000 0.94070  0.75660  0.29170  Biso   1.000  C
  C4       1.0000 0.05930  0.75660  0.20830  Biso   1.000  C
  C5       1.0000 0.55930  0.74340  0.70830  Biso   1.000  C
  C6       1.0000 0.44070  0.74340  0.79170  Biso   1.000  C
  C7       1.0000 0.05930  0.24340  0.70830  Biso   1.000  C
  C8       1.0000 0.94070  0.24340  0.79170  Biso   1.000  C
  C9       1.0000 0.39711  0.29070  0.21310  Biso   1.000  C
  C10      1.0000 0.60289  0.29070  0.28690  Biso   1.000  C
  C11      1.0000 0.89711  0.79070  0.21310  Biso   1.000  C
  C12      1.0000 0.10289  0.79070  0.28690  Biso   1.000  C
  C13      1.0000 0.60289  0.70930  0.78690  Biso   1.000  C
  C14      1.0000 0.39711  0.70930  0.71310  Biso   1.000  C
  C15      1.0000 0.10289  0.20930  0.78690  Biso   1.000  C
  C16      1.0000 0.89711  0.20930  0.71310  Biso   1.000  C
  C17      1.0000 0.23480  0.22543  0.20880  Biso   1.000  C
  C18      1.0000 0.76520  0.22543  0.29120  Biso   1.000  C
  C19      1.0000 0.73480  0.72543  0.20880  Biso   1.000  C
  C20      1.0000 0.26520  0.72543  0.29120  Biso   1.000  C
  C21      1.0000 0.76520  0.77457  0.79120  Biso   1.000  C
  C22      1.0000 0.23480  0.77457  0.70880  Biso   1.000  C
  C23      1.0000 0.26520  0.27457  0.79120  Biso   1.000  C
  C24      1.0000 0.73480  0.27457  0.70880  Biso   1.000  C
  C25      1.0000 0.27050  0.26274  0.28880  Biso   1.000  C
  C26      1.0000 0.72950  0.26274  0.21120  Biso   1.000  C
  C27      1.0000 0.77050  0.76274  0.28880  Biso   1.000  C
  C28      1.0000 0.22950  0.76274  0.21120  Biso   1.000  C
  C29      1.0000 0.72950  0.73726  0.71120  Biso   1.000  C
  C30      1.0000 0.27050  0.73726  0.78880  Biso   1.000  C
  C31      1.0000 0.22950  0.23726  0.71120  Biso   1.000  C
  C32      1.0000 0.77050  0.23726  0.78880  Biso   1.000  C
  C33      1.0000 0.34970  0.05950  0.29820  Biso   1.000  C
  C34      1.0000 0.65030  0.05950  0.20180  Biso   1.000  C
  C35      1.0000 0.84970  0.55950  0.29820  Biso   1.000  C
  C36      1.0000 0.15030  0.55950  0.20180  Biso   1.000  C
  C37      1.0000 0.65030  0.94050  0.70180  Biso   1.000  C
  C38      1.0000 0.34970  0.94050  0.79820  Biso   1.000  C
  C39      1.0000 0.15030  0.44050  0.70180  Biso   1.000  C
  C40      1.0000 0.84970  0.44050  0.79820  Biso   1.000  C
  C41      1.0000 0.35470  0.06020  0.21720  Biso   1.000  C
  C42      1.0000 0.64530  0.06020  0.28280  Biso   1.000  C
  C43      1.0000 0.85470  0.56020  0.21720  Biso   1.000  C
  C44      1.0000 0.14530  0.56020  0.28280  Biso   1.000  C
  C45      1.0000 0.64530  0.93980  0.78280  Biso   1.000  C
  C46      1.0000 0.35470  0.93980  0.71720  Biso   1.000  C
  C47      1.0000 0.14530  0.43980  0.78280  Biso   1.000  C
  C48      1.0000 0.85470  0.43980  0.71720  Biso   1.000  C
  C49      1.0000 0.05565  0.22653  0.20610  Biso   1.000  C
  C50      1.0000 0.94435  0.22653  0.29390  Biso   1.000  C
  C51      1.0000 0.55565  0.72653  0.20610  Biso   1.000  C
  C52      1.0000 0.44435  0.72653  0.29390  Biso   1.000  C
  C53      1.0000 0.94435  0.77347  0.79390  Biso   1.000  C
  C54      1.0000 0.05565  0.77347  0.70610  Biso   1.000  C
  C55      1.0000 0.44435  0.27347  0.79390  Biso   1.000  C
  C56      1.0000 0.55565  0.27347  0.70610  Biso   1.000  C
  C57      1.0000 0.09921  0.19300  0.28390  Biso   1.000  C
  C58      1.0000 0.90079  0.19300  0.21610  Biso   1.000  C
  C59      1.0000 0.59921  0.69300  0.28390  Biso   1.000  C
  C60      1.0000 0.40079  0.69300  0.21610  Biso   1.000  C
  C61      1.0000 0.90079  0.80700  0.71610  Biso   1.000  C
  C62      1.0000 0.09921  0.80700  0.78390  Biso   1.000  C
  C63      1.0000 0.40079  0.30700  0.71610  Biso   1.000  C
  C64      1.0000 0.59921  0.30700  0.78390  Biso   1.000  C
  C65      1.0000 0.99379  0.97810  0.20448  Biso   1.000  C
  C66      1.0000 0.00621  0.97810  0.29552  Biso   1.000  C
  C67      1.0000 0.49379  0.47810  0.20448  Biso   1.000  C
  C68      1.0000 0.50621  0.47810  0.29552  Biso   1.000  C
  C69      1.0000 0.00621  0.02190  0.79552  Biso   1.000  C
  C70      1.0000 0.99379  0.02190  0.70448  Biso   1.000  C
  C71      1.0000 0.50621  0.52190  0.79552  Biso   1.000  C
  C72      1.0000 0.49379  0.52190  0.70448  Biso   1.000  C
  K1       1.0000 0.35660  0.97854  0.48098  Biso   1.000  K
  K2       1.0000 0.64340  0.97854  0.01902  Biso   1.000  K
  K3       1.0000 0.85660  0.47854  0.48098  Biso   1.000  K
  K4       1.0000 0.14340  0.47854  0.01902  Biso   1.000  K
  K5       1.0000 0.64340  0.02146  0.51902  Biso   1.000  K
  K6       1.0000 0.35660  0.02146  0.98098  Biso   1.000  K
  K7       1.0000 0.14340  0.52146  0.51902  Biso   1.000  K
  K8       1.0000 0.85660  0.52146  0.98098  Biso   1.000  K
  O161     1.0000 0.25816  0.10534  0.43544  Biso   1.000  O
  O162     1.0000 0.74184  0.10534  0.06456  Biso   1.000  O
  O163     1.0000 0.75816  0.60534  0.43544  Biso   1.000  O
  O164     1.0000 0.24184  0.60534  0.06456  Biso   1.000  O
  O165     1.0000 0.74184  0.89466  0.56456  Biso   1.000  O
  O166     1.0000 0.25816  0.89466  0.93544  Biso   1.000  O
  O167     1.0000 0.24184  0.39466  0.56456  Biso   1.000  O
  O168     1.0000 0.75816  0.39466  0.93544  Biso   1.000  O
  C73      1.0000 0.20691  0.08637  0.42616  Biso   1.000  C
  C74      1.0000 0.79309  0.08637  0.07384  Biso   1.000  C
  C75      1.0000 0.70691  0.58637  0.42616  Biso   1.000  C
  C76      1.0000 0.29309  0.58637  0.07384  Biso   1.000  C
  C77      1.0000 0.79309  0.91363  0.57384  Biso   1.000  C
  C78      1.0000 0.20691  0.91363  0.92616  Biso   1.000  C
  C79      1.0000 0.29309  0.41363  0.57384  Biso   1.000  C
  C80      1.0000 0.70691  0.41363  0.92616  Biso   1.000  C
  H33      1.0000 0.18019  0.12089  0.39682  Biso   1.000  H
  H34      1.0000 0.81981  0.12089  0.10318  Biso   1.000  H
  H35      1.0000 0.68019  0.62089  0.39682  Biso   1.000  H
  H36      1.0000 0.31981  0.62089  0.10318  Biso   1.000  H
  H37      1.0000 0.81981  0.87911  0.60318  Biso   1.000  H
  H38      1.0000 0.18019  0.87911  0.89682  Biso   1.000  H
  H39      1.0000 0.31981  0.37911  0.60318  Biso   1.000  H
  H40      1.0000 0.68019  0.37911  0.89682  Biso   1.000  H
  H41      1.0000 0.20755  0.08152  0.47961  Biso   1.000  H
  H42      1.0000 0.79245  0.08152  0.02039  Biso   1.000  H
  H43      1.0000 0.70755  0.58152  0.47961  Biso   1.000  H
  H44      1.0000 0.29245  0.58152  0.02039  Biso   1.000  H
  H45      1.0000 0.79245  0.91848  0.52039  Biso   1.000  H
  H46      1.0000 0.20755  0.91848  0.97961  Biso   1.000  H
  H47      1.0000 0.29245  0.41848  0.52039  Biso   1.000  H
  H48      1.0000 0.70755  0.41848  0.97961  Biso   1.000  H
  C81      1.0000 0.18893  0.02225  0.38086  Biso   1.000  C
  C82      1.0000 0.81107  0.02225  0.11914  Biso   1.000  C
  C83      1.0000 0.68893  0.52225  0.38086  Biso   1.000  C
  C84      1.0000 0.31107  0.52225  0.11914  Biso   1.000  C
  C85      1.0000 0.81107  0.97775  0.61914  Biso   1.000  C
  C86      1.0000 0.18893  0.97775  0.88086  Biso   1.000  C
  C87      1.0000 0.31107  0.47775  0.61914  Biso   1.000  C
  C88      1.0000 0.68893  0.47775  0.88086  Biso   1.000  C
  H49      1.0000 0.15177  0.01121  0.37331  Biso   1.000  H
  H50      1.0000 0.84823  0.01121  0.12669  Biso   1.000  H
  H51      1.0000 0.65177  0.51121  0.37331  Biso   1.000  H
  H52      1.0000 0.34823  0.51121  0.12669  Biso   1.000  H
  H53      1.0000 0.84823  0.98879  0.62669  Biso   1.000  H
  H54      1.0000 0.15177  0.98879  0.87331  Biso   1.000  H
  H55      1.0000 0.34823  0.48879  0.62669  Biso   1.000  H
  H56      1.0000 0.65177  0.48879  0.87331  Biso   1.000  H
  H57      1.0000 0.18842  0.02627  0.32741  Biso   1.000  H
  H58      1.0000 0.81158  0.02627  0.17259  Biso   1.000  H
  H59      1.0000 0.68842  0.52627  0.32741  Biso   1.000  H
  H60      1.0000 0.31158  0.52627  0.17259  Biso   1.000  H
  H61      1.0000 0.81158  0.97373  0.67259  Biso   1.000  H
  H62      1.0000 0.18842  0.97373  0.82741  Biso   1.000  H
  H63      1.0000 0.31158  0.47373  0.67259  Biso   1.000  H
  H64      1.0000 0.68842  0.47373  0.82741  Biso   1.000  H
  O169     1.0000 0.22644  0.97159  0.42620  Biso   1.000  O
  O170     1.0000 0.77356  0.97159  0.07380  Biso   1.000  O
  O171     1.0000 0.72644  0.47159  0.42620  Biso   1.000  O
  O172     1.0000 0.27356  0.47159  0.07380  Biso   1.000  O
  O173     1.0000 0.77356  0.02841  0.57380  Biso   1.000  O
  O174     1.0000 0.22644  0.02841  0.92620  Biso   1.000  O
  O175     1.0000 0.27356  0.52841  0.57380  Biso   1.000  O
  O176     1.0000 0.72644  0.52841  0.92620  Biso   1.000  O
  C89      1.0000 0.21133  0.90718  0.39031  Biso   1.000  C
  C90      1.0000 0.78867  0.90718  0.10969  Biso   1.000  C
  C91      1.0000 0.71133  0.40718  0.39031  Biso   1.000  C
  C92      1.0000 0.28867  0.40718  0.10969  Biso   1.000  C
  C93      1.0000 0.78867  0.09282  0.60969  Biso   1.000  C
  C94      1.0000 0.21133  0.09282  0.89031  Biso   1.000  C
  C95      1.0000 0.28867  0.59282  0.60969  Biso   1.000  C
  C96      1.0000 0.71133  0.59282  0.89031  Biso   1.000  C
  H65      1.0000 0.21254  0.90635  0.33777  Biso   1.000  H
  H66      1.0000 0.78746  0.90635  0.16223  Biso   1.000  H
  H67      1.0000 0.71254  0.40635  0.33777  Biso   1.000  H
  H68      1.0000 0.28746  0.40635  0.16223  Biso   1.000  H
  H69      1.0000 0.78746  0.09365  0.66223  Biso   1.000  H
  H70      1.0000 0.21254  0.09365  0.83777  Biso   1.000  H
  H71      1.0000 0.28746  0.59365  0.66223  Biso   1.000  H
  H72      1.0000 0.71254  0.59365  0.83777  Biso   1.000  H
  H73      1.0000 0.17382  0.89655  0.38167  Biso   1.000  H
  H74      1.0000 0.82618  0.89655  0.11833  Biso   1.000  H
  H75      1.0000 0.67382  0.39655  0.38167  Biso   1.000  H
  H76      1.0000 0.32618  0.39655  0.11833  Biso   1.000  H
  H77      1.0000 0.82618  0.10345  0.61833  Biso   1.000  H
  H78      1.0000 0.17382  0.10345  0.88167  Biso   1.000  H
  H79      1.0000 0.32618  0.60345  0.61833  Biso   1.000  H
  H80      1.0000 0.67382  0.60345  0.88167  Biso   1.000  H
  C97      1.0000 0.25051  0.85773  0.44562  Biso   1.000  C
  C98      1.0000 0.74949  0.85773  0.05438  Biso   1.000  C
  C99      1.0000 0.75051  0.35773  0.44562  Biso   1.000  C
  C100     1.0000 0.24949  0.35773  0.05438  Biso   1.000  C
  C101     1.0000 0.74949  0.14227  0.55438  Biso   1.000  C
  C102     1.0000 0.25051  0.14227  0.94562  Biso   1.000  C
  C103     1.0000 0.24949  0.64227  0.55438  Biso   1.000  C
  C104     1.0000 0.75051  0.64227  0.94562  Biso   1.000  C
  H81      1.0000 0.25178  0.86156  0.49957  Biso   1.000  H
  H82      1.0000 0.74822  0.86156  0.00043  Biso   1.000  H
  H83      1.0000 0.75178  0.36156  0.49957  Biso   1.000  H
  H84      1.0000 0.24822  0.36156  0.00043  Biso   1.000  H
  H85      1.0000 0.74822  0.13844  0.50043  Biso   1.000  H
  H86      1.0000 0.25178  0.13844  0.99957  Biso   1.000  H
  H87      1.0000 0.24822  0.63844  0.50043  Biso   1.000  H
  H88      1.0000 0.75178  0.63844  0.99957  Biso   1.000  H
  H89      1.0000 0.23816  0.81307  0.42524  Biso   1.000  H
  H90      1.0000 0.76184  0.81307  0.07476  Biso   1.000  H
  H91      1.0000 0.73816  0.31307  0.42524  Biso   1.000  H
  H92      1.0000 0.26184  0.31307  0.07476  Biso   1.000  H
  H93      1.0000 0.76184  0.18693  0.57476  Biso   1.000  H
  H94      1.0000 0.23816  0.18693  0.92524  Biso   1.000  H
  H95      1.0000 0.26184  0.68693  0.57476  Biso   1.000  H
  H96      1.0000 0.73816  0.68693  0.92524  Biso   1.000  H
  O177     1.0000 0.30440  0.86842  0.45078  Biso   1.000  O
  O178     1.0000 0.69560  0.86842  0.04922  Biso   1.000  O
  O179     1.0000 0.80440  0.36842  0.45078  Biso   1.000  O
  O180     1.0000 0.19560  0.36842  0.04922  Biso   1.000  O
  O181     1.0000 0.69560  0.13158  0.54922  Biso   1.000  O
  O182     1.0000 0.30440  0.13158  0.95078  Biso   1.000  O
  O183     1.0000 0.19560  0.63158  0.54922  Biso   1.000  O
  O184     1.0000 0.80440  0.63158  0.95078  Biso   1.000  O
  C105     1.0000 0.34435  0.82474  0.50736  Biso   1.000  C
  C106     1.0000 0.65565  0.82474  0.99264  Biso   1.000  C
  C107     1.0000 0.84435  0.32474  0.50736  Biso   1.000  C
  C108     1.0000 0.15565  0.32474  0.99264  Biso   1.000  C
  C109     1.0000 0.65565  0.17526  0.49264  Biso   1.000  C
  C110     1.0000 0.34435  0.17526  0.00736  Biso   1.000  C
  C111     1.0000 0.15565  0.67526  0.49264  Biso   1.000  C
  C112     1.0000 0.84435  0.67526  0.00736  Biso   1.000  C
  H97      1.0000 0.33483  0.77913  0.48916  Biso   1.000  H
  H98      1.0000 0.66517  0.77913  0.01084  Biso   1.000  H
  H99      1.0000 0.83483  0.27913  0.48916  Biso   1.000  H
  H100     1.0000 0.16517  0.27913  0.01084  Biso   1.000  H
  H101     1.0000 0.66517  0.22087  0.51084  Biso   1.000  H
  H102     1.0000 0.33483  0.22087  0.98916  Biso   1.000  H
  H103     1.0000 0.16517  0.72087  0.51084  Biso   1.000  H
  H104     1.0000 0.83483  0.72087  0.98916  Biso   1.000  H
  H105     1.0000 0.34386  0.82919  0.56015  Biso   1.000  H
  H106     1.0000 0.65614  0.82919  0.93985  Biso   1.000  H
  H107     1.0000 0.84386  0.32919  0.56015  Biso   1.000  H
  H108     1.0000 0.15614  0.32919  0.93985  Biso   1.000  H
  H109     1.0000 0.65614  0.17081  0.43985  Biso   1.000  H
  H110     1.0000 0.34386  0.17081  0.06015  Biso   1.000  H
  H111     1.0000 0.15614  0.67081  0.43985  Biso   1.000  H
  H112     1.0000 0.84386  0.67081  0.06015  Biso   1.000  H
  C113     1.0000 0.40151  0.83999  0.51606  Biso   1.000  C
  C114     1.0000 0.59849  0.83999  0.98394  Biso   1.000  C
  C115     1.0000 0.90151  0.33999  0.51606  Biso   1.000  C
  C116     1.0000 0.09849  0.33999  0.98394  Biso   1.000  C
  C117     1.0000 0.59849  0.16001  0.48394  Biso   1.000  C
  C118     1.0000 0.40151  0.16001  0.01606  Biso   1.000  C
  C119     1.0000 0.09849  0.66001  0.48394  Biso   1.000  C
  C120     1.0000 0.90151  0.66001  0.01606  Biso   1.000  C
  H113     1.0000 0.42811  0.80804  0.55243  Biso   1.000  H
  H114     1.0000 0.57189  0.80804  0.94757  Biso   1.000  H
  H115     1.0000 0.92811  0.30804  0.55243  Biso   1.000  H
  H116     1.0000 0.07189  0.30804  0.94757  Biso   1.000  H
  H117     1.0000 0.57189  0.19196  0.44757  Biso   1.000  H
  H118     1.0000 0.42811  0.19196  0.05243  Biso   1.000  H
  H119     1.0000 0.07189  0.69196  0.44757  Biso   1.000  H
  H120     1.0000 0.92811  0.69196  0.05243  Biso   1.000  H
  H121     1.0000 0.40218  0.83762  0.46319  Biso   1.000  H
  H122     1.0000 0.59782  0.83762  0.03681  Biso   1.000  H
  H123     1.0000 0.90218  0.33762  0.46319  Biso   1.000  H
  H124     1.0000 0.09782  0.33762  0.03681  Biso   1.000  H
  H125     1.0000 0.59782  0.16238  0.53681  Biso   1.000  H
  H126     1.0000 0.40218  0.16238  0.96319  Biso   1.000  H
  H127     1.0000 0.09782  0.66238  0.53681  Biso   1.000  H
  H128     1.0000 0.90218  0.66238  0.96319  Biso   1.000  H
  O185     1.0000 0.41519  0.90541  0.54864  Biso   1.000  O
  O186     1.0000 0.58481  0.90541  0.95136  Biso   1.000  O
  O187     1.0000 0.91519  0.40541  0.54864  Biso   1.000  O
  O188     1.0000 0.08481  0.40541  0.95136  Biso   1.000  O
  O189     1.0000 0.58481  0.09459  0.45136  Biso   1.000  O
  O190     1.0000 0.41519  0.09459  0.04864  Biso   1.000  O
  O191     1.0000 0.08481  0.59459  0.45136  Biso   1.000  O
  O192     1.0000 0.91519  0.59459  0.04864  Biso   1.000  O
  C121     1.0000 0.46873  0.92185  0.56452  Biso   1.000  C
  C122     1.0000 0.53127  0.92185  0.93548  Biso   1.000  C
  C123     1.0000 0.96873  0.42185  0.56452  Biso   1.000  C
  C124     1.0000 0.03127  0.42185  0.93548  Biso   1.000  C
  C125     1.0000 0.53127  0.07815  0.43548  Biso   1.000  C
  C126     1.0000 0.46873  0.07815  0.06452  Biso   1.000  C
  C127     1.0000 0.03127  0.57815  0.43548  Biso   1.000  C
  C128     1.0000 0.96873  0.57815  0.06452  Biso   1.000  C
  H129     1.0000 0.47206  0.92610  0.51369  Biso   1.000  H
  H130     1.0000 0.52794  0.92610  0.98631  Biso   1.000  H
  H131     1.0000 0.97206  0.42610  0.51369  Biso   1.000  H
  H132     1.0000 0.02794  0.42610  0.98631  Biso   1.000  H
  H133     1.0000 0.52794  0.07390  0.48631  Biso   1.000  H
  H134     1.0000 0.47206  0.07390  0.01369  Biso   1.000  H
  H135     1.0000 0.02794  0.57390  0.48631  Biso   1.000  H
  H136     1.0000 0.97206  0.57390  0.01369  Biso   1.000  H
  H137     1.0000 0.49427  0.88742  0.59726  Biso   1.000  H
  H138     1.0000 0.50573  0.88742  0.90274  Biso   1.000  H
  H139     1.0000 0.99427  0.38742  0.59726  Biso   1.000  H
  H140     1.0000 0.00573  0.38742  0.90274  Biso   1.000  H
  H141     1.0000 0.50573  0.11258  0.40274  Biso   1.000  H
  H142     1.0000 0.49427  0.11258  0.09726  Biso   1.000  H
  H143     1.0000 0.00573  0.61258  0.40274  Biso   1.000  H
  H144     1.0000 0.99427  0.61258  0.09726  Biso   1.000  H
  C129     1.0000 0.48255  0.98730  0.60995  Biso   1.000  C
  C130     1.0000 0.51745  0.98730  0.89005  Biso   1.000  C
  C131     1.0000 0.98255  0.48730  0.60995  Biso   1.000  C
  C132     1.0000 0.01745  0.48730  0.89005  Biso   1.000  C
  C133     1.0000 0.51745  0.01270  0.39005  Biso   1.000  C
  C134     1.0000 0.48255  0.01270  0.10995  Biso   1.000  C
  C135     1.0000 0.01745  0.51270  0.39005  Biso   1.000  C
  C136     1.0000 0.98255  0.51270  0.10995  Biso   1.000  C
  H145     1.0000 0.47687  0.98384  0.65891  Biso   1.000  H
  H146     1.0000 0.52313  0.98384  0.84109  Biso   1.000  H
  H147     1.0000 0.97687  0.48384  0.65891  Biso   1.000  H
  H148     1.0000 0.02313  0.48384  0.84109  Biso   1.000  H
  H149     1.0000 0.52313  0.01616  0.34109  Biso   1.000  H
  H150     1.0000 0.47687  0.01616  0.15891  Biso   1.000  H
  H151     1.0000 0.02313  0.51616  0.34109  Biso   1.000  H
  H152     1.0000 0.97687  0.51616  0.15891  Biso   1.000  H
  H153     1.0000 0.52117  0.99843  0.62606  Biso   1.000  H
  H154     1.0000 0.47883  0.99843  0.87394  Biso   1.000  H
  H155     1.0000 0.02117  0.49843  0.62606  Biso   1.000  H
  H156     1.0000 0.97883  0.49843  0.87394  Biso   1.000  H
  H157     1.0000 0.47883  0.00157  0.37394  Biso   1.000  H
  H158     1.0000 0.52117  0.00157  0.12606  Biso   1.000  H
  H159     1.0000 0.97883  0.50157  0.37394  Biso   1.000  H
  H160     1.0000 0.02117  0.50157  0.12606  Biso   1.000  H
  O193     1.0000 0.44740  0.03786  0.55759  Biso   1.000  O
  O194     1.0000 0.55260  0.03786  0.94241  Biso   1.000  O
  O195     1.0000 0.94740  0.53786  0.55759  Biso   1.000  O
  O196     1.0000 0.05260  0.53786  0.94241  Biso   1.000  O
  O197     1.0000 0.55260  0.96214  0.44241  Biso   1.000  O
  O198     1.0000 0.44740  0.96214  0.05759  Biso   1.000  O
  O199     1.0000 0.05260  0.46214  0.44241  Biso   1.000  O
  O200     1.0000 0.94740  0.46214  0.05759  Biso   1.000  O
  C137     1.0000 0.46180  0.10256  0.58990  Biso   1.000  C
  C138     1.0000 0.53820  0.10256  0.91010  Biso   1.000  C
  C139     1.0000 0.96180  0.60256  0.58990  Biso   1.000  C
  C140     1.0000 0.03820  0.60256  0.91010  Biso   1.000  C
  C141     1.0000 0.53820  0.89744  0.41010  Biso   1.000  C
  C142     1.0000 0.46180  0.89744  0.08990  Biso   1.000  C
  C143     1.0000 0.03820  0.39744  0.41010  Biso   1.000  C
  C144     1.0000 0.96180  0.39744  0.08990  Biso   1.000  C
  H161     1.0000 0.49937  0.11267  0.59844  Biso   1.000  H
  H162     1.0000 0.50063  0.11267  0.90156  Biso   1.000  H
  H163     1.0000 0.99937  0.61267  0.59844  Biso   1.000  H
  H164     1.0000 0.00063  0.61267  0.90156  Biso   1.000  H
  H165     1.0000 0.50063  0.88733  0.40156  Biso   1.000  H
  H166     1.0000 0.49937  0.88733  0.09844  Biso   1.000  H
  H167     1.0000 0.00063  0.38733  0.40156  Biso   1.000  H
  H168     1.0000 0.99937  0.38733  0.09844  Biso   1.000  H
  H169     1.0000 0.46044  0.10511  0.64225  Biso   1.000  H
  H170     1.0000 0.53956  0.10511  0.85775  Biso   1.000  H
  H171     1.0000 0.96044  0.60511  0.64225  Biso   1.000  H
  H172     1.0000 0.03956  0.60511  0.85775  Biso   1.000  H
  H173     1.0000 0.53956  0.89489  0.35775  Biso   1.000  H
  H174     1.0000 0.46044  0.89489  0.14225  Biso   1.000  H
  H175     1.0000 0.03956  0.39489  0.35775  Biso   1.000  H
  H176     1.0000 0.96044  0.39489  0.14225  Biso   1.000  H
  C145     1.0000 0.42254  0.15174  0.53251  Biso   1.000  C
  C146     1.0000 0.57746  0.15174  0.96749  Biso   1.000  C
  C147     1.0000 0.92254  0.65174  0.53251  Biso   1.000  C
  C148     1.0000 0.07746  0.65174  0.96749  Biso   1.000  C
  C149     1.0000 0.57746  0.84826  0.46749  Biso   1.000  C
  C150     1.0000 0.42254  0.84826  0.03251  Biso   1.000  C
  C151     1.0000 0.07746  0.34826  0.46749  Biso   1.000  C
  C152     1.0000 0.92254  0.34826  0.03251  Biso   1.000  C
  H177     1.0000 0.43526  0.19668  0.55103  Biso   1.000  H
  H178     1.0000 0.56474  0.19668  0.94897  Biso   1.000  H
  H179     1.0000 0.93526  0.69668  0.55103  Biso   1.000  H
  H180     1.0000 0.06474  0.69668  0.94897  Biso   1.000  H
  H181     1.0000 0.56474  0.80332  0.44897  Biso   1.000  H
  H182     1.0000 0.43526  0.80332  0.05103  Biso   1.000  H
  H183     1.0000 0.06474  0.30332  0.44897  Biso   1.000  H
  H184     1.0000 0.93526  0.30332  0.05103  Biso   1.000  H
  H185     1.0000 0.42101  0.14603  0.47854  Biso   1.000  H
  H186     1.0000 0.57899  0.14603  0.02146  Biso   1.000  H
  H187     1.0000 0.92101  0.64603  0.47854  Biso   1.000  H
  H188     1.0000 0.07899  0.64603  0.02146  Biso   1.000  H
  H189     1.0000 0.57899  0.85397  0.52146  Biso   1.000  H
  H190     1.0000 0.42101  0.85397  0.97854  Biso   1.000  H
  H191     1.0000 0.07899  0.35397  0.52146  Biso   1.000  H
  H192     1.0000 0.92101  0.35397  0.97854  Biso   1.000  H
  O201     1.0000 0.36863  0.14214  0.52864  Biso   1.000  O
  O202     1.0000 0.63137  0.14214  0.97136  Biso   1.000  O
  O203     1.0000 0.86863  0.64214  0.52864  Biso   1.000  O
  O204     1.0000 0.13137  0.64214  0.97136  Biso   1.000  O
  O205     1.0000 0.63137  0.85786  0.47136  Biso   1.000  O
  O206     1.0000 0.36863  0.85786  0.02864  Biso   1.000  O
  O207     1.0000 0.13137  0.35786  0.47136  Biso   1.000  O
  O208     1.0000 0.86863  0.35786  0.02864  Biso   1.000  O
  C153     1.0000 0.32925  0.18561  0.47219  Biso   1.000  C
  C154     1.0000 0.67075  0.18561  0.02781  Biso   1.000  C
  C155     1.0000 0.82925  0.68561  0.47219  Biso   1.000  C
  C156     1.0000 0.17075  0.68561  0.02781  Biso   1.000  C
  C157     1.0000 0.67075  0.81439  0.52781  Biso   1.000  C
  C158     1.0000 0.32925  0.81439  0.97219  Biso   1.000  C
  C159     1.0000 0.17075  0.31439  0.52781  Biso   1.000  C
  C160     1.0000 0.82925  0.31439  0.97219  Biso   1.000  C
  H193     1.0000 0.32939  0.18049  0.41917  Biso   1.000  H
  H194     1.0000 0.67061  0.18049  0.08083  Biso   1.000  H
  H195     1.0000 0.82939  0.68049  0.41917  Biso   1.000  H
  H196     1.0000 0.17061  0.68049  0.08083  Biso   1.000  H
  H197     1.0000 0.67061  0.81951  0.58083  Biso   1.000  H
  H198     1.0000 0.32939  0.81951  0.91917  Biso   1.000  H
  H199     1.0000 0.17061  0.31951  0.58083  Biso   1.000  H
  H200     1.0000 0.82939  0.31951  0.91917  Biso   1.000  H
  H201     1.0000 0.33911  0.23135  0.48991  Biso   1.000  H
  H202     1.0000 0.66089  0.23135  0.01009  Biso   1.000  H
  H203     1.0000 0.83911  0.73135  0.48991  Biso   1.000  H
  H204     1.0000 0.16089  0.73135  0.01009  Biso   1.000  H
  H205     1.0000 0.66089  0.76865  0.51009  Biso   1.000  H
  H206     1.0000 0.33911  0.76865  0.98991  Biso   1.000  H
  H207     1.0000 0.16089  0.26865  0.51009  Biso   1.000  H
  H208     1.0000 0.83911  0.26865  0.98991  Biso   1.000  H
  C161     1.0000 0.27397  0.17114  0.46495  Biso   1.000  C
  C162     1.0000 0.72603  0.17114  0.03505  Biso   1.000  C
  C163     1.0000 0.77397  0.67114  0.46495  Biso   1.000  C
  C164     1.0000 0.22603  0.67114  0.03505  Biso   1.000  C
  C165     1.0000 0.72603  0.82886  0.53505  Biso   1.000  C
  C166     1.0000 0.27397  0.82886  0.96495  Biso   1.000  C
  C167     1.0000 0.22603  0.32886  0.53505  Biso   1.000  C
  C168     1.0000 0.77397  0.32886  0.96495  Biso   1.000  C
  H209     1.0000 0.27390  0.17584  0.51797  Biso   1.000  H
  H210     1.0000 0.72610  0.17584  0.98203  Biso   1.000  H
  H211     1.0000 0.77390  0.67584  0.51797  Biso   1.000  H
  H212     1.0000 0.22610  0.67584  0.98203  Biso   1.000  H
  H213     1.0000 0.72610  0.82416  0.48203  Biso   1.000  H
  H214     1.0000 0.27390  0.82416  0.01797  Biso   1.000  H
  H215     1.0000 0.22610  0.32416  0.48203  Biso   1.000  H
  H216     1.0000 0.77390  0.32416  0.01797  Biso   1.000  H
  H217     1.0000 0.24746  0.20274  0.42779  Biso   1.000  H
  H218     1.0000 0.75254  0.20274  0.07221  Biso   1.000  H
  H219     1.0000 0.74746  0.70274  0.42779  Biso   1.000  H
  H220     1.0000 0.25254  0.70274  0.07221  Biso   1.000  H
  H221     1.0000 0.75254  0.79726  0.57221  Biso   1.000  H
  H222     1.0000 0.24746  0.79726  0.92779  Biso   1.000  H
  H223     1.0000 0.25254  0.29726  0.57221  Biso   1.000  H
  H224     1.0000 0.74746  0.29726  0.92779  Biso   1.000  H
  C169     1.0000 0.01916  0.17604  0.00568  Biso   1.000  C
  C170     1.0000 0.98084  0.17604  0.49432  Biso   1.000  C
  C171     1.0000 0.51916  0.67604  0.00568  Biso   1.000  C
  C172     1.0000 0.48084  0.67604  0.49432  Biso   1.000  C
  C173     1.0000 0.98084  0.82396  0.99432  Biso   1.000  C
  C174     1.0000 0.01916  0.82396  0.50568  Biso   1.000  C
  C175     1.0000 0.48084  0.32396  0.99432  Biso   1.000  C
  C176     1.0000 0.51916  0.32396  0.50568  Biso   1.000  C
  H225     1.0000 0.01021  0.22026  0.98156  Biso   1.000  H
  H226     1.0000 0.98979  0.22026  0.51844  Biso   1.000  H
  H227     1.0000 0.51021  0.72026  0.98156  Biso   1.000  H
  H228     1.0000 0.48979  0.72026  0.51844  Biso   1.000  H
  H229     1.0000 0.98979  0.77974  0.01844  Biso   1.000  H
  H230     1.0000 0.01021  0.77974  0.48156  Biso   1.000  H
  H231     1.0000 0.48979  0.27974  0.01844  Biso   1.000  H
  H232     1.0000 0.51021  0.27974  0.48156  Biso   1.000  H
  H233     1.0000 0.02388  0.17934  0.06162  Biso   1.000  H
  H234     1.0000 0.97612  0.17934  0.43838  Biso   1.000  H
  H235     1.0000 0.52388  0.67934  0.06162  Biso   1.000  H
  H236     1.0000 0.47612  0.67934  0.43838  Biso   1.000  H
  H237     1.0000 0.97612  0.82066  0.93838  Biso   1.000  H
  H238     1.0000 0.02388  0.82066  0.56162  Biso   1.000  H
  H239     1.0000 0.47612  0.32066  0.93838  Biso   1.000  H
  H240     1.0000 0.52388  0.32066  0.56162  Biso   1.000  H
  O209     1.0000 0.97384  0.13242  0.96119  Biso   1.000  O
  O210     1.0000 0.02616  0.13242  0.53881  Biso   1.000  O
  O211     1.0000 0.47384  0.63242  0.96119  Biso   1.000  O
  O212     1.0000 0.52616  0.63242  0.53881  Biso   1.000  O
  O213     1.0000 0.02616  0.86758  0.03881  Biso   1.000  O
  O214     1.0000 0.97384  0.86758  0.46119  Biso   1.000  O
  O215     1.0000 0.52616  0.36758  0.03881  Biso   1.000  O
  O216     1.0000 0.47384  0.36758  0.46119  Biso   1.000  O
  C177     1.0000 0.92349  0.15302  0.96616  Biso   1.000  C
  C178     1.0000 0.07651  0.15302  0.53384  Biso   1.000  C
  C179     1.0000 0.42349  0.65302  0.96616  Biso   1.000  C
  C180     1.0000 0.57651  0.65302  0.53384  Biso   1.000  C
  C181     1.0000 0.07651  0.84698  0.03384  Biso   1.000  C
  C182     1.0000 0.92349  0.84698  0.46616  Biso   1.000  C
  C183     1.0000 0.57651  0.34698  0.03384  Biso   1.000  C
  C184     1.0000 0.42349  0.34698  0.46616  Biso   1.000  C
  H241     1.0000 0.91509  0.19918  0.94939  Biso   1.000  H
  H242     1.0000 0.08491  0.19918  0.55061  Biso   1.000  H
  H243     1.0000 0.41509  0.69918  0.94939  Biso   1.000  H
  H244     1.0000 0.58491  0.69918  0.55061  Biso   1.000  H
  H245     1.0000 0.08491  0.80082  0.05061  Biso   1.000  H
  H246     1.0000 0.91509  0.80082  0.44939  Biso   1.000  H
  H247     1.0000 0.58491  0.30082  0.05061  Biso   1.000  H
  H248     1.0000 0.41509  0.30082  0.44939  Biso   1.000  H
  H249     1.0000 0.92805  0.14880  0.02183  Biso   1.000  H
  H250     1.0000 0.07195  0.14880  0.47817  Biso   1.000  H
  H251     1.0000 0.42805  0.64880  0.02183  Biso   1.000  H
  H252     1.0000 0.57195  0.64880  0.47817  Biso   1.000  H
  H253     1.0000 0.07195  0.85120  0.97817  Biso   1.000  H
  H254     1.0000 0.92805  0.85120  0.52183  Biso   1.000  H
  H255     1.0000 0.57195  0.35120  0.97817  Biso   1.000  H
  H256     1.0000 0.42805  0.35120  0.52183  Biso   1.000  H
  C185     1.0000 0.87702  0.10837  0.91000  Biso   1.000  C
  C186     1.0000 0.12298  0.10837  0.59000  Biso   1.000  C
  C187     1.0000 0.37702  0.60837  0.91000  Biso   1.000  C
  C188     1.0000 0.62298  0.60837  0.59000  Biso   1.000  C
  C189     1.0000 0.12298  0.89163  0.09000  Biso   1.000  C
  C190     1.0000 0.87702  0.89163  0.41000  Biso   1.000  C
  C191     1.0000 0.62298  0.39163  0.09000  Biso   1.000  C
  C192     1.0000 0.37702  0.39163  0.41000  Biso   1.000  C
  H257     1.0000 0.84139  0.12477  0.90445  Biso   1.000  H
  H258     1.0000 0.15861  0.12477  0.59555  Biso   1.000  H
  H259     1.0000 0.34139  0.62477  0.90445  Biso   1.000  H
  H260     1.0000 0.65861  0.62477  0.59555  Biso   1.000  H
  H261     1.0000 0.15861  0.87523  0.09555  Biso   1.000  H
  H262     1.0000 0.84139  0.87523  0.40445  Biso   1.000  H
  H263     1.0000 0.65861  0.37523  0.09555  Biso   1.000  H
  H264     1.0000 0.34139  0.37523  0.40445  Biso   1.000  H
  H265     1.0000 0.87621  0.10644  0.85621  Biso   1.000  H
  H266     1.0000 0.12379  0.10644  0.64379  Biso   1.000  H
  H267     1.0000 0.37621  0.60644  0.85621  Biso   1.000  H
  H268     1.0000 0.62379  0.60644  0.64379  Biso   1.000  H
  H269     1.0000 0.12379  0.89356  0.14379  Biso   1.000  H
  H270     1.0000 0.87621  0.89356  0.35621  Biso   1.000  H
  H271     1.0000 0.62379  0.39356  0.14379  Biso   1.000  H
  H272     1.0000 0.37621  0.39356  0.35621  Biso   1.000  H
  O217     1.0000 0.88875  0.04312  0.94806  Biso   1.000  O
  O218     1.0000 0.11125  0.04312  0.55194  Biso   1.000  O
  O219     1.0000 0.38875  0.54312  0.94806  Biso   1.000  O
  O220     1.0000 0.61125  0.54312  0.55194  Biso   1.000  O
  O221     1.0000 0.11125  0.95688  0.05194  Biso   1.000  O
  O222     1.0000 0.88875  0.95688  0.44806  Biso   1.000  O
  O223     1.0000 0.61125  0.45688  0.05194  Biso   1.000  O
  O224     1.0000 0.38875  0.45688  0.44806  Biso   1.000  O
  C193     1.0000 0.84611  0.99608  0.89660  Biso   1.000  C
  C194     1.0000 0.15389  0.99608  0.60340  Biso   1.000  C
  C195     1.0000 0.34611  0.49608  0.89660  Biso   1.000  C
  C196     1.0000 0.65389  0.49608  0.60340  Biso   1.000  C
  C197     1.0000 0.15389  0.00392  0.10340  Biso   1.000  C
  C198     1.0000 0.84611  0.00392  0.39660  Biso   1.000  C
  C199     1.0000 0.65389  0.50392  0.10340  Biso   1.000  C
  C200     1.0000 0.34611  0.50392  0.39660  Biso   1.000  C
  H273     1.0000 0.80955  0.01065  0.88848  Biso   1.000  H
  H274     1.0000 0.19045  0.01065  0.61152  Biso   1.000  H
  H275     1.0000 0.30955  0.51065  0.88848  Biso   1.000  H
  H276     1.0000 0.69045  0.51065  0.61152  Biso   1.000  H
  H277     1.0000 0.19045  0.98935  0.11152  Biso   1.000  H
  H278     1.0000 0.80955  0.98935  0.38848  Biso   1.000  H
  H279     1.0000 0.69045  0.48935  0.11152  Biso   1.000  H
  H280     1.0000 0.30955  0.48935  0.38848  Biso   1.000  H
  H281     1.0000 0.84648  0.99101  0.84381  Biso   1.000  H
  H282     1.0000 0.15352  0.99101  0.65619  Biso   1.000  H
  H283     1.0000 0.34648  0.49101  0.84381  Biso   1.000  H
  H284     1.0000 0.65352  0.49101  0.65619  Biso   1.000  H
  H285     1.0000 0.15352  0.00899  0.15619  Biso   1.000  H
  H286     1.0000 0.84648  0.00899  0.34381  Biso   1.000  H
  H287     1.0000 0.65352  0.50899  0.15619  Biso   1.000  H
  H288     1.0000 0.34648  0.50899  0.34381  Biso   1.000  H
  C201     1.0000 0.86296  0.93018  0.94621  Biso   1.000  C
  C202     1.0000 0.13704  0.93018  0.55379  Biso   1.000  C
  C203     1.0000 0.36296  0.43018  0.94621  Biso   1.000  C
  C204     1.0000 0.63704  0.43018  0.55379  Biso   1.000  C
  C205     1.0000 0.13704  0.06982  0.05379  Biso   1.000  C
  C206     1.0000 0.86296  0.06982  0.44621  Biso   1.000  C
  C207     1.0000 0.63704  0.56982  0.05379  Biso   1.000  C
  C208     1.0000 0.36296  0.56982  0.44621  Biso   1.000  C
  H289     1.0000 0.83416  0.89700  0.92086  Biso   1.000  H
  H290     1.0000 0.16584  0.89700  0.57914  Biso   1.000  H
  H291     1.0000 0.33416  0.39700  0.92086  Biso   1.000  H
  H292     1.0000 0.66584  0.39700  0.57914  Biso   1.000  H
  H293     1.0000 0.16584  0.10300  0.07914  Biso   1.000  H
  H294     1.0000 0.83416  0.10300  0.42086  Biso   1.000  H
  H295     1.0000 0.66584  0.60300  0.07914  Biso   1.000  H
  H296     1.0000 0.33416  0.60300  0.42086  Biso   1.000  H
  H297     1.0000 0.86747  0.93782  0.00141  Biso   1.000  H
  H298     1.0000 0.13253  0.93782  0.49859  Biso   1.000  H
  H299     1.0000 0.36747  0.43782  0.00141  Biso   1.000  H
  H300     1.0000 0.63253  0.43782  0.49859  Biso   1.000  H
  H301     1.0000 0.13253  0.06218  0.99859  Biso   1.000  H
  H302     1.0000 0.86747  0.06218  0.50141  Biso   1.000  H
  H303     1.0000 0.63253  0.56218  0.99859  Biso   1.000  H
  H304     1.0000 0.36747  0.56218  0.50141  Biso   1.000  H
  O225     1.0000 0.91322  0.90697  0.94804  Biso   1.000  O
  O226     1.0000 0.08678  0.90697  0.55196  Biso   1.000  O
  O227     1.0000 0.41322  0.40697  0.94804  Biso   1.000  O
  O228     1.0000 0.58678  0.40697  0.55196  Biso   1.000  O
  O229     1.0000 0.08678  0.09303  0.05196  Biso   1.000  O
  O230     1.0000 0.91322  0.09303  0.44804  Biso   1.000  O
  O231     1.0000 0.58678  0.59303  0.05196  Biso   1.000  O
  O232     1.0000 0.41322  0.59303  0.44804  Biso   1.000  O
  C209     1.0000 0.06864  0.15502  0.00623  Biso   1.000  C
  C210     1.0000 0.93136  0.15502  0.49377  Biso   1.000  C
  C211     1.0000 0.56864  0.65502  0.00623  Biso   1.000  C
  C212     1.0000 0.43136  0.65502  0.49377  Biso   1.000  C
  C213     1.0000 0.93136  0.84498  0.99377  Biso   1.000  C
  C214     1.0000 0.06864  0.84498  0.50623  Biso   1.000  C
  C215     1.0000 0.43136  0.34498  0.99377  Biso   1.000  C
  C216     1.0000 0.56864  0.34498  0.50623  Biso   1.000  C
  H305     1.0000 0.06358  0.14824  0.95060  Biso   1.000  H
  H306     1.0000 0.93642  0.14824  0.54940  Biso   1.000  H
  H307     1.0000 0.56358  0.64824  0.95060  Biso   1.000  H
  H308     1.0000 0.43642  0.64824  0.54940  Biso   1.000  H
  H309     1.0000 0.93642  0.85176  0.04940  Biso   1.000  H
  H310     1.0000 0.06358  0.85176  0.45060  Biso   1.000  H
  H311     1.0000 0.43642  0.35176  0.04940  Biso   1.000  H
  H312     1.0000 0.56358  0.35176  0.45060  Biso   1.000  H
  H313     1.0000 0.09680  0.18896  0.03126  Biso   1.000  H
  H314     1.0000 0.90320  0.18896  0.46874  Biso   1.000  H
  H315     1.0000 0.59680  0.68896  0.03126  Biso   1.000  H
  H316     1.0000 0.40320  0.68896  0.46874  Biso   1.000  H
  H317     1.0000 0.90320  0.81104  0.96874  Biso   1.000  H
  H318     1.0000 0.09680  0.81104  0.53126  Biso   1.000  H
  H319     1.0000 0.40320  0.31104  0.96874  Biso   1.000  H
  H320     1.0000 0.59680  0.31104  0.53126  Biso   1.000  H
  Ru9      1.0000 0.00000  0.13161  0.25000  Biso   1.000  Ru
  Ru10     1.0000 0.50000  0.63161  0.25000  Biso   1.000  Ru
  Ru11     1.0000 0.00000  0.86839  0.75000  Biso   1.000  Ru
  Ru12     1.0000 0.50000  0.36839  0.75000  Biso   1.000  Ru
  Cu9      1.0000 0.00000  0.86020  0.25000  Biso   1.000  Cu
  Cu10     1.0000 0.50000  0.36020  0.25000  Biso   1.000  Cu
  Cu11     1.0000 0.00000  0.13980  0.75000  Biso   1.000  Cu
  Cu12     1.0000 0.50000  0.63980  0.75000  Biso   1.000  Cu
  K9       1.0000 0.00000  0.00000  0.00000  Biso   1.000  K
  K10      1.0000 0.00000  0.00000  0.50000  Biso   1.000  K
  K11      1.0000 0.50000  0.50000  0.00000  Biso   1.000  K
  K12      1.0000 0.50000  0.50000  0.50000  Biso   1.000  K
