data_image0
_cell_length_a       13.6882
_cell_length_b       34.3485
_cell_length_c       26.2844
_cell_angle_alpha    90
_cell_angle_beta     90.286
_cell_angle_gamma    90

_symmetry_space_group_name_H-M    "P 1"
_symmetry_int_tables_number       1

loop_
  _symmetry_equiv_pos_as_xyz
  'x, y, z'

loop_
  _atom_site_label
  _atom_site_occupancy
  _atom_site_fract_x
  _atom_site_fract_y
  _atom_site_fract_z
  _atom_site_thermal_displace_type
  _atom_site_B_iso_or_equiv
  _atom_site_type_symbol
  Cu1      1.0000 0.34302  0.75641  0.51036  Biso   1.000  Cu
  Cu2      1.0000 0.65698  0.75641  0.98964  Biso   1.000  Cu
  Cu3      1.0000 0.84302  0.25641  0.51036  Biso   1.000  Cu
  Cu4      1.0000 0.15698  0.25641  0.98964  Biso   1.000  Cu
  Cu5      1.0000 0.65698  0.24359  0.48964  Biso   1.000  Cu
  Cu6      1.0000 0.34302  0.24359  0.01036  Biso   1.000  Cu
  Cu7      1.0000 0.15698  0.74359  0.48964  Biso   1.000  Cu
  Cu8      1.0000 0.84302  0.74359  0.01036  Biso   1.000  Cu
  Cu9      1.0000 0.00000  0.50000  0.00000  Biso   1.000  Cu
  Cu10     1.0000 0.00000  0.50000  0.50000  Biso   1.000  Cu
  Cu11     1.0000 0.50000  0.00000  0.00000  Biso   1.000  Cu
  Cu12     1.0000 0.50000  0.00000  0.50000  Biso   1.000  Cu
  O1       1.0000 0.15400  0.71698  0.55566  Biso   1.000  O
  O2       1.0000 0.84600  0.71698  0.94434  Biso   1.000  O
  O3       1.0000 0.65400  0.21698  0.55566  Biso   1.000  O
  O4       1.0000 0.34600  0.21698  0.94434  Biso   1.000  O
  O5       1.0000 0.84600  0.28302  0.44434  Biso   1.000  O
  O6       1.0000 0.15400  0.28302  0.05566  Biso   1.000  O
  O7       1.0000 0.34600  0.78302  0.44434  Biso   1.000  O
  O8       1.0000 0.65400  0.78302  0.05566  Biso   1.000  O
  O9       1.0000 0.31380  0.72794  0.57241  Biso   1.000  O
  O10      1.0000 0.68620  0.72794  0.92759  Biso   1.000  O
  O11      1.0000 0.81380  0.22794  0.57241  Biso   1.000  O
  O12      1.0000 0.18620  0.22794  0.92759  Biso   1.000  O
  O13      1.0000 0.68620  0.27206  0.42759  Biso   1.000  O
  O14      1.0000 0.31380  0.27206  0.07241  Biso   1.000  O
  O15      1.0000 0.18620  0.77206  0.42759  Biso   1.000  O
  O16      1.0000 0.81380  0.77206  0.07241  Biso   1.000  O
  O17      1.0000 0.30370  0.57456  0.75710  Biso   1.000  O
  O18      1.0000 0.69630  0.57456  0.74290  Biso   1.000  O
  O19      1.0000 0.80370  0.07456  0.75710  Biso   1.000  O
  O20      1.0000 0.19630  0.07456  0.74290  Biso   1.000  O
  O21      1.0000 0.69630  0.42544  0.24290  Biso   1.000  O
  O22      1.0000 0.30370  0.42544  0.25710  Biso   1.000  O
  O23      1.0000 0.19630  0.92544  0.24290  Biso   1.000  O
  O24      1.0000 0.80370  0.92544  0.25710  Biso   1.000  O
  O25      1.0000 0.24920  0.68372  0.84910  Biso   1.000  O
  O26      1.0000 0.75080  0.68372  0.65090  Biso   1.000  O
  O27      1.0000 0.74920  0.18372  0.84910  Biso   1.000  O
  O28      1.0000 0.25080  0.18372  0.65090  Biso   1.000  O
  O29      1.0000 0.75080  0.31628  0.15090  Biso   1.000  O
  O30      1.0000 0.24920  0.31628  0.34910  Biso   1.000  O
  O31      1.0000 0.25080  0.81628  0.15090  Biso   1.000  O
  O32      1.0000 0.74920  0.81628  0.34910  Biso   1.000  O
  O33      1.0000 0.94710  0.54595  0.96770  Biso   1.000  O
  O34      1.0000 0.05290  0.54595  0.53230  Biso   1.000  O
  O35      1.0000 0.44710  0.04595  0.96770  Biso   1.000  O
  O36      1.0000 0.55290  0.04595  0.53230  Biso   1.000  O
  O37      1.0000 0.05290  0.45405  0.03230  Biso   1.000  O
  O38      1.0000 0.94710  0.45405  0.46770  Biso   1.000  O
  O39      1.0000 0.55290  0.95405  0.03230  Biso   1.000  O
  O40      1.0000 0.44710  0.95405  0.46770  Biso   1.000  O
  O41      1.0000 0.36500  0.70701  0.47514  Biso   1.000  O
  O42      1.0000 0.63500  0.70701  0.02486  Biso   1.000  O
  O43      1.0000 0.86500  0.20701  0.47514  Biso   1.000  O
  O44      1.0000 0.13500  0.20701  0.02486  Biso   1.000  O
  O45      1.0000 0.63500  0.29299  0.52486  Biso   1.000  O
  O46      1.0000 0.36500  0.29299  0.97514  Biso   1.000  O
  O47      1.0000 0.13500  0.79299  0.52486  Biso   1.000  O
  O48      1.0000 0.86500  0.79299  0.97514  Biso   1.000  O
  O49      1.0000 0.20640  0.69578  0.45890  Biso   1.000  O
  O50      1.0000 0.79360  0.69578  0.04110  Biso   1.000  O
  O51      1.0000 0.70640  0.19578  0.45890  Biso   1.000  O
  O52      1.0000 0.29360  0.19578  0.04110  Biso   1.000  O
  O53      1.0000 0.79360  0.30422  0.54110  Biso   1.000  O
  O54      1.0000 0.20640  0.30422  0.95890  Biso   1.000  O
  O55      1.0000 0.29360  0.80422  0.54110  Biso   1.000  O
  O56      1.0000 0.70640  0.80422  0.95890  Biso   1.000  O
  O57      1.0000 0.24490  0.51360  0.31770  Biso   1.000  O
  O58      1.0000 0.75510  0.51360  0.18230  Biso   1.000  O
  O59      1.0000 0.74490  0.01360  0.31770  Biso   1.000  O
  O60      1.0000 0.25510  0.01360  0.18230  Biso   1.000  O
  O61      1.0000 0.75510  0.48640  0.68230  Biso   1.000  O
  O62      1.0000 0.24490  0.48640  0.81770  Biso   1.000  O
  O63      1.0000 0.25510  0.98640  0.68230  Biso   1.000  O
  O64      1.0000 0.74490  0.98640  0.81770  Biso   1.000  O
  O65      1.0000 0.46350  0.50280  0.44620  Biso   1.000  O
  O66      1.0000 0.53650  0.50280  0.05380  Biso   1.000  O
  O67      1.0000 0.96350  0.00280  0.44620  Biso   1.000  O
  O68      1.0000 0.03650  0.00280  0.05380  Biso   1.000  O
  O69      1.0000 0.53650  0.49720  0.55380  Biso   1.000  O
  O70      1.0000 0.46350  0.49720  0.94620  Biso   1.000  O
  O71      1.0000 0.03650  0.99720  0.55380  Biso   1.000  O
  O72      1.0000 0.96350  0.99720  0.94620  Biso   1.000  O
  O73      1.0000 0.99400  0.26632  0.52869  Biso   1.000  O
  O74      1.0000 0.00600  0.26632  0.97131  Biso   1.000  O
  O75      1.0000 0.49400  0.76632  0.52869  Biso   1.000  O
  O76      1.0000 0.50600  0.76632  0.97131  Biso   1.000  O
  O77      1.0000 0.00600  0.73368  0.47131  Biso   1.000  O
  O78      1.0000 0.99400  0.73368  0.02869  Biso   1.000  O
  O79      1.0000 0.50600  0.23368  0.47131  Biso   1.000  O
  O80      1.0000 0.49400  0.23368  0.02869  Biso   1.000  O
  O81      1.0000 0.91070  0.52200  0.07150  Biso   1.000  O
  O82      1.0000 0.08930  0.52200  0.42850  Biso   1.000  O
  O83      1.0000 0.41070  0.02200  0.07150  Biso   1.000  O
  O84      1.0000 0.58930  0.02200  0.42850  Biso   1.000  O
  O85      1.0000 0.08930  0.47800  0.92850  Biso   1.000  O
  O86      1.0000 0.91070  0.47800  0.57150  Biso   1.000  O
  O87      1.0000 0.58930  0.97800  0.92850  Biso   1.000  O
  O88      1.0000 0.41070  0.97800  0.57150  Biso   1.000  O
  O89      1.0000 0.05770  0.53668  0.05400  Biso   1.000  O
  O90      1.0000 0.94230  0.53668  0.44600  Biso   1.000  O
  O91      1.0000 0.55770  0.03668  0.05400  Biso   1.000  O
  O92      1.0000 0.44230  0.03668  0.44600  Biso   1.000  O
  O93      1.0000 0.94230  0.46332  0.94600  Biso   1.000  O
  O94      1.0000 0.05770  0.46332  0.55400  Biso   1.000  O
  O95      1.0000 0.44230  0.96332  0.94600  Biso   1.000  O
  O96      1.0000 0.55770  0.96332  0.55400  Biso   1.000  O
  O97      1.0000 0.98450  0.56640  0.11790  Biso   1.000  O
  O98      1.0000 0.01550  0.56640  0.38210  Biso   1.000  O
  O99      1.0000 0.48450  0.06640  0.11790  Biso   1.000  O
  O100     1.0000 0.51550  0.06640  0.38210  Biso   1.000  O
  O101     1.0000 0.01550  0.43360  0.88210  Biso   1.000  O
  O102     1.0000 0.98450  0.43360  0.61790  Biso   1.000  O
  O103     1.0000 0.51550  0.93360  0.88210  Biso   1.000  O
  O104     1.0000 0.48450  0.93360  0.61790  Biso   1.000  O
  N1       1.0000 0.27570  0.62764  0.80452  Biso   1.000  N
  N2       1.0000 0.72430  0.62764  0.69548  Biso   1.000  N
  N3       1.0000 0.77570  0.12764  0.80452  Biso   1.000  N
  N4       1.0000 0.22430  0.12764  0.69548  Biso   1.000  N
  N5       1.0000 0.72430  0.37236  0.19548  Biso   1.000  N
  N6       1.0000 0.27570  0.37236  0.30452  Biso   1.000  N
  N7       1.0000 0.22430  0.87236  0.19548  Biso   1.000  N
  N8       1.0000 0.77570  0.87236  0.30452  Biso   1.000  N
  N9       1.0000 0.67570  0.56875  0.91000  Biso   1.000  N
  N10      1.0000 0.32430  0.56875  0.59000  Biso   1.000  N
  N11      1.0000 0.17570  0.06875  0.91000  Biso   1.000  N
  N12      1.0000 0.82430  0.06875  0.59000  Biso   1.000  N
  N13      1.0000 0.32430  0.43125  0.09000  Biso   1.000  N
  N14      1.0000 0.67570  0.43125  0.41000  Biso   1.000  N
  N15      1.0000 0.82430  0.93125  0.09000  Biso   1.000  N
  N16      1.0000 0.17570  0.93125  0.41000  Biso   1.000  N
  N17      1.0000 0.35650  0.50810  0.38270  Biso   1.000  N
  N18      1.0000 0.64350  0.50810  0.11730  Biso   1.000  N
  N19      1.0000 0.85650  0.00810  0.38270  Biso   1.000  N
  N20      1.0000 0.14350  0.00810  0.11730  Biso   1.000  N
  N21      1.0000 0.64350  0.49190  0.61730  Biso   1.000  N
  N22      1.0000 0.35650  0.49190  0.88270  Biso   1.000  N
  N23      1.0000 0.14350  0.99190  0.61730  Biso   1.000  N
  N24      1.0000 0.85650  0.99190  0.88270  Biso   1.000  N
  N25      1.0000 0.16680  0.36070  0.49900  Biso   1.000  N
  N26      1.0000 0.83320  0.36070  0.00100  Biso   1.000  N
  N27      1.0000 0.66680  0.86070  0.49900  Biso   1.000  N
  N28      1.0000 0.33320  0.86070  0.00100  Biso   1.000  N
  N29      1.0000 0.83320  0.63930  0.50100  Biso   1.000  N
  N30      1.0000 0.16680  0.63930  0.99900  Biso   1.000  N
  N31      1.0000 0.33320  0.13930  0.50100  Biso   1.000  N
  N32      1.0000 0.66680  0.13930  0.99900  Biso   1.000  N
  N33      1.0000 0.98450  0.54280  0.08300  Biso   1.000  N
  N34      1.0000 0.01550  0.54280  0.41700  Biso   1.000  N
  N35      1.0000 0.48450  0.04280  0.08300  Biso   1.000  N
  N36      1.0000 0.51550  0.04280  0.41700  Biso   1.000  N
  N37      1.0000 0.01550  0.45720  0.91700  Biso   1.000  N
  N38      1.0000 0.98450  0.45720  0.58300  Biso   1.000  N
  N39      1.0000 0.51550  0.95720  0.91700  Biso   1.000  N
  N40      1.0000 0.48450  0.95720  0.58300  Biso   1.000  N
  C1       1.0000 0.23180  0.71490  0.58270  Biso   1.000  C
  C2       1.0000 0.76820  0.71490  0.91730  Biso   1.000  C
  C3       1.0000 0.73180  0.21490  0.58270  Biso   1.000  C
  C4       1.0000 0.26820  0.21490  0.91730  Biso   1.000  C
  C5       1.0000 0.76820  0.28510  0.41730  Biso   1.000  C
  C6       1.0000 0.23180  0.28510  0.08270  Biso   1.000  C
  C7       1.0000 0.26820  0.78510  0.41730  Biso   1.000  C
  C8       1.0000 0.73180  0.78510  0.08270  Biso   1.000  C
  C9       1.0000 0.22140  0.69319  0.63253  Biso   1.000  C
  C10      1.0000 0.77860  0.69319  0.86747  Biso   1.000  C
  C11      1.0000 0.72140  0.19319  0.63253  Biso   1.000  C
  C12      1.0000 0.27860  0.19319  0.86747  Biso   1.000  C
  C13      1.0000 0.77860  0.30681  0.36747  Biso   1.000  C
  C14      1.0000 0.22140  0.30681  0.13253  Biso   1.000  C
  C15      1.0000 0.27860  0.80681  0.36747  Biso   1.000  C
  C16      1.0000 0.72140  0.80681  0.13253  Biso   1.000  C
  C17      1.0000 0.13140  0.67836  0.64790  Biso   1.000  C
  C18      1.0000 0.86860  0.67836  0.85210  Biso   1.000  C
  C19      1.0000 0.63140  0.17836  0.64790  Biso   1.000  C
  C20      1.0000 0.36860  0.17836  0.85210  Biso   1.000  C
  C21      1.0000 0.86860  0.32164  0.35210  Biso   1.000  C
  C22      1.0000 0.13140  0.32164  0.14790  Biso   1.000  C
  C23      1.0000 0.36860  0.82164  0.35210  Biso   1.000  C
  C24      1.0000 0.63140  0.82164  0.14790  Biso   1.000  C
  H1       1.0000 0.07560  0.68180  0.62680  Biso   1.000  H
  H2       1.0000 0.92440  0.68180  0.87320  Biso   1.000  H
  H3       1.0000 0.57560  0.18180  0.62680  Biso   1.000  H
  H4       1.0000 0.42440  0.18180  0.87320  Biso   1.000  H
  H5       1.0000 0.92440  0.31820  0.37320  Biso   1.000  H
  H6       1.0000 0.07560  0.31820  0.12680  Biso   1.000  H
  H7       1.0000 0.42440  0.81820  0.37320  Biso   1.000  H
  H8       1.0000 0.57560  0.81820  0.12680  Biso   1.000  H
  C25      1.0000 0.12280  0.65909  0.69291  Biso   1.000  C
  C26      1.0000 0.87720  0.65909  0.80709  Biso   1.000  C
  C27      1.0000 0.62280  0.15909  0.69291  Biso   1.000  C
  C28      1.0000 0.37720  0.15909  0.80709  Biso   1.000  C
  C29      1.0000 0.87720  0.34091  0.30709  Biso   1.000  C
  C30      1.0000 0.12280  0.34091  0.19291  Biso   1.000  C
  C31      1.0000 0.37720  0.84091  0.30709  Biso   1.000  C
  C32      1.0000 0.62280  0.84091  0.19291  Biso   1.000  C
  H9       1.0000 0.06150  0.64850  0.70260  Biso   1.000  H
  H10      1.0000 0.93850  0.64850  0.79740  Biso   1.000  H
  H11      1.0000 0.56150  0.14850  0.70260  Biso   1.000  H
  H12      1.0000 0.43850  0.14850  0.79740  Biso   1.000  H
  H13      1.0000 0.93850  0.35150  0.29740  Biso   1.000  H
  H14      1.0000 0.06150  0.35150  0.20260  Biso   1.000  H
  H15      1.0000 0.43850  0.85150  0.29740  Biso   1.000  H
  H16      1.0000 0.56150  0.85150  0.20260  Biso   1.000  H
  C33      1.0000 0.20200  0.65488  0.72420  Biso   1.000  C
  C34      1.0000 0.79800  0.65488  0.77580  Biso   1.000  C
  C35      1.0000 0.70200  0.15488  0.72420  Biso   1.000  C
  C36      1.0000 0.29800  0.15488  0.77580  Biso   1.000  C
  C37      1.0000 0.79800  0.34512  0.27580  Biso   1.000  C
  C38      1.0000 0.20200  0.34512  0.22420  Biso   1.000  C
  C39      1.0000 0.29800  0.84512  0.27580  Biso   1.000  C
  C40      1.0000 0.70200  0.84512  0.22420  Biso   1.000  C
  C41      1.0000 0.28970  0.66918  0.71010  Biso   1.000  C
  C42      1.0000 0.71030  0.66918  0.78990  Biso   1.000  C
  C43      1.0000 0.78970  0.16918  0.71010  Biso   1.000  C
  C44      1.0000 0.21030  0.16918  0.78990  Biso   1.000  C
  C45      1.0000 0.71030  0.33082  0.28990  Biso   1.000  C
  C46      1.0000 0.28970  0.33082  0.21010  Biso   1.000  C
  C47      1.0000 0.21030  0.83082  0.28990  Biso   1.000  C
  C48      1.0000 0.78970  0.83082  0.21010  Biso   1.000  C
  H17      1.0000 0.34490  0.66610  0.73180  Biso   1.000  H
  H18      1.0000 0.65510  0.66610  0.76820  Biso   1.000  H
  H19      1.0000 0.84490  0.16610  0.73180  Biso   1.000  H
  H20      1.0000 0.15510  0.16610  0.76820  Biso   1.000  H
  H21      1.0000 0.65510  0.33390  0.26820  Biso   1.000  H
  H22      1.0000 0.34490  0.33390  0.23180  Biso   1.000  H
  H23      1.0000 0.15510  0.83390  0.26820  Biso   1.000  H
  H24      1.0000 0.84490  0.83390  0.23180  Biso   1.000  H
  C49      1.0000 0.29910  0.68851  0.66379  Biso   1.000  C
  C50      1.0000 0.70090  0.68851  0.83621  Biso   1.000  C
  C51      1.0000 0.79910  0.18851  0.66379  Biso   1.000  C
  C52      1.0000 0.20090  0.18851  0.83621  Biso   1.000  C
  C53      1.0000 0.70090  0.31149  0.33621  Biso   1.000  C
  C54      1.0000 0.29910  0.31149  0.16379  Biso   1.000  C
  C55      1.0000 0.20090  0.81149  0.33621  Biso   1.000  C
  C56      1.0000 0.79910  0.81149  0.16379  Biso   1.000  C
  H25      1.0000 0.36100  0.69850  0.65410  Biso   1.000  H
  H26      1.0000 0.63900  0.69850  0.84590  Biso   1.000  H
  H27      1.0000 0.86100  0.19850  0.65410  Biso   1.000  H
  H28      1.0000 0.13900  0.19850  0.84590  Biso   1.000  H
  H29      1.0000 0.63900  0.30150  0.34590  Biso   1.000  H
  H30      1.0000 0.36100  0.30150  0.15410  Biso   1.000  H
  H31      1.0000 0.13900  0.80150  0.34590  Biso   1.000  H
  H32      1.0000 0.86100  0.80150  0.15410  Biso   1.000  H
  C57      1.0000 0.18620  0.63470  0.77570  Biso   1.000  C
  C58      1.0000 0.81380  0.63470  0.72430  Biso   1.000  C
  C59      1.0000 0.68620  0.13470  0.77570  Biso   1.000  C
  C60      1.0000 0.31380  0.13470  0.72430  Biso   1.000  C
  C61      1.0000 0.81380  0.36530  0.22430  Biso   1.000  C
  C62      1.0000 0.18620  0.36530  0.27570  Biso   1.000  C
  C63      1.0000 0.31380  0.86530  0.22430  Biso   1.000  C
  C64      1.0000 0.68620  0.86530  0.27570  Biso   1.000  C
  H33      1.0000 0.14210  0.65100  0.79650  Biso   1.000  H
  H34      1.0000 0.85790  0.65100  0.70350  Biso   1.000  H
  H35      1.0000 0.64210  0.15100  0.79650  Biso   1.000  H
  H36      1.0000 0.35790  0.15100  0.70350  Biso   1.000  H
  H37      1.0000 0.85790  0.34900  0.20350  Biso   1.000  H
  H38      1.0000 0.14210  0.34900  0.29650  Biso   1.000  H
  H39      1.0000 0.35790  0.84900  0.20350  Biso   1.000  H
  H40      1.0000 0.64210  0.84900  0.29650  Biso   1.000  H
  H41      1.0000 0.15300  0.60950  0.76970  Biso   1.000  H
  H42      1.0000 0.84700  0.60950  0.73030  Biso   1.000  H
  H43      1.0000 0.65300  0.10950  0.76970  Biso   1.000  H
  H44      1.0000 0.34700  0.10950  0.73030  Biso   1.000  H
  H45      1.0000 0.84700  0.39050  0.23030  Biso   1.000  H
  H46      1.0000 0.15300  0.39050  0.26970  Biso   1.000  H
  H47      1.0000 0.34700  0.89050  0.23030  Biso   1.000  H
  H48      1.0000 0.65300  0.89050  0.26970  Biso   1.000  H
  C65      1.0000 0.30010  0.65520  0.84290  Biso   1.000  C
  C66      1.0000 0.69990  0.65520  0.65710  Biso   1.000  C
  C67      1.0000 0.80010  0.15520  0.84290  Biso   1.000  C
  C68      1.0000 0.19990  0.15520  0.65710  Biso   1.000  C
  C69      1.0000 0.69990  0.34480  0.15710  Biso   1.000  C
  C70      1.0000 0.30010  0.34480  0.34290  Biso   1.000  C
  C71      1.0000 0.19990  0.84480  0.15710  Biso   1.000  C
  C72      1.0000 0.80010  0.84480  0.34290  Biso   1.000  C
  C73      1.0000 0.38820  0.64863  0.87200  Biso   1.000  C
  C74      1.0000 0.61180  0.64863  0.62800  Biso   1.000  C
  C75      1.0000 0.88820  0.14863  0.87200  Biso   1.000  C
  C76      1.0000 0.11180  0.14863  0.62800  Biso   1.000  C
  C77      1.0000 0.61180  0.35137  0.12800  Biso   1.000  C
  C78      1.0000 0.38820  0.35137  0.37200  Biso   1.000  C
  C79      1.0000 0.11180  0.85137  0.12800  Biso   1.000  C
  C80      1.0000 0.88820  0.85137  0.37200  Biso   1.000  C
  C81      1.0000 0.41670  0.67340  0.91020  Biso   1.000  C
  C82      1.0000 0.58330  0.67340  0.58980  Biso   1.000  C
  C83      1.0000 0.91670  0.17340  0.91020  Biso   1.000  C
  C84      1.0000 0.08330  0.17340  0.58980  Biso   1.000  C
  C85      1.0000 0.58330  0.32660  0.08980  Biso   1.000  C
  C86      1.0000 0.41670  0.32660  0.41020  Biso   1.000  C
  C87      1.0000 0.08330  0.82660  0.08980  Biso   1.000  C
  C88      1.0000 0.91670  0.82660  0.41020  Biso   1.000  C
  H49      1.0000 0.38010  0.69640  0.91630  Biso   1.000  H
  H50      1.0000 0.61990  0.69640  0.58370  Biso   1.000  H
  H51      1.0000 0.88010  0.19640  0.91630  Biso   1.000  H
  H52      1.0000 0.11990  0.19640  0.58370  Biso   1.000  H
  H53      1.0000 0.61990  0.30360  0.08370  Biso   1.000  H
  H54      1.0000 0.38010  0.30360  0.41630  Biso   1.000  H
  H55      1.0000 0.11990  0.80360  0.08370  Biso   1.000  H
  H56      1.0000 0.88010  0.80360  0.41630  Biso   1.000  H
  C89      1.0000 0.49710  0.66550  0.93990  Biso   1.000  C
  C90      1.0000 0.50290  0.66550  0.56010  Biso   1.000  C
  C91      1.0000 0.99710  0.16550  0.93990  Biso   1.000  C
  C92      1.0000 0.00290  0.16550  0.56010  Biso   1.000  C
  C93      1.0000 0.50290  0.33450  0.06010  Biso   1.000  C
  C94      1.0000 0.49710  0.33450  0.43990  Biso   1.000  C
  C95      1.0000 0.00290  0.83450  0.06010  Biso   1.000  C
  C96      1.0000 0.99710  0.83450  0.43990  Biso   1.000  C
  H57      1.0000 0.51360  0.68260  0.96700  Biso   1.000  H
  H58      1.0000 0.48640  0.68260  0.53300  Biso   1.000  H
  H59      1.0000 0.01360  0.18260  0.96700  Biso   1.000  H
  H60      1.0000 0.98640  0.18260  0.53300  Biso   1.000  H
  H61      1.0000 0.48640  0.31740  0.03300  Biso   1.000  H
  H62      1.0000 0.51360  0.31740  0.46700  Biso   1.000  H
  H63      1.0000 0.98640  0.81740  0.03300  Biso   1.000  H
  H64      1.0000 0.01360  0.81740  0.46700  Biso   1.000  H
  C97      1.0000 0.55400  0.63344  0.93120  Biso   1.000  C
  C98      1.0000 0.44600  0.63344  0.56880  Biso   1.000  C
  C99      1.0000 0.05400  0.13344  0.93120  Biso   1.000  C
  C100     1.0000 0.94600  0.13344  0.56880  Biso   1.000  C
  C101     1.0000 0.44600  0.36656  0.06880  Biso   1.000  C
  C102     1.0000 0.55400  0.36656  0.43120  Biso   1.000  C
  C103     1.0000 0.94600  0.86656  0.06880  Biso   1.000  C
  C104     1.0000 0.05400  0.86656  0.43120  Biso   1.000  C
  H65      1.0000 0.60970  0.62870  0.95200  Biso   1.000  H
  H66      1.0000 0.39030  0.62870  0.54800  Biso   1.000  H
  H67      1.0000 0.10970  0.12870  0.95200  Biso   1.000  H
  H68      1.0000 0.89030  0.12870  0.54800  Biso   1.000  H
  H69      1.0000 0.39030  0.37130  0.04800  Biso   1.000  H
  H70      1.0000 0.60970  0.37130  0.45200  Biso   1.000  H
  H71      1.0000 0.89030  0.87130  0.04800  Biso   1.000  H
  H72      1.0000 0.10970  0.87130  0.45200  Biso   1.000  H
  C105     1.0000 0.53140  0.60816  0.89280  Biso   1.000  C
  C106     1.0000 0.46860  0.60816  0.60720  Biso   1.000  C
  C107     1.0000 0.03140  0.10816  0.89280  Biso   1.000  C
  C108     1.0000 0.96860  0.10816  0.60720  Biso   1.000  C
  C109     1.0000 0.46860  0.39184  0.10720  Biso   1.000  C
  C110     1.0000 0.53140  0.39184  0.39280  Biso   1.000  C
  C111     1.0000 0.96860  0.89184  0.10720  Biso   1.000  C
  C112     1.0000 0.03140  0.89184  0.39280  Biso   1.000  C
  C113     1.0000 0.58240  0.57430  0.88040  Biso   1.000  C
  C114     1.0000 0.41760  0.57430  0.61960  Biso   1.000  C
  C115     1.0000 0.08240  0.07430  0.88040  Biso   1.000  C
  C116     1.0000 0.91760  0.07430  0.61960  Biso   1.000  C
  C117     1.0000 0.41760  0.42570  0.11960  Biso   1.000  C
  C118     1.0000 0.58240  0.42570  0.38040  Biso   1.000  C
  C119     1.0000 0.91760  0.92570  0.11960  Biso   1.000  C
  C120     1.0000 0.08240  0.92570  0.38040  Biso   1.000  C
  C121     1.0000 0.56180  0.54760  0.84390  Biso   1.000  C
  C122     1.0000 0.43820  0.54760  0.65610  Biso   1.000  C
  C123     1.0000 0.06180  0.04760  0.84390  Biso   1.000  C
  C124     1.0000 0.93820  0.04760  0.65610  Biso   1.000  C
  C125     1.0000 0.43820  0.45240  0.15610  Biso   1.000  C
  C126     1.0000 0.56180  0.45240  0.34390  Biso   1.000  C
  C127     1.0000 0.93820  0.95240  0.15610  Biso   1.000  C
  C128     1.0000 0.06180  0.95240  0.34390  Biso   1.000  C
  H73      1.0000 0.60240  0.52580  0.83730  Biso   1.000  H
  H74      1.0000 0.39760  0.52580  0.66270  Biso   1.000  H
  H75      1.0000 0.10240  0.02580  0.83730  Biso   1.000  H
  H76      1.0000 0.89760  0.02580  0.66270  Biso   1.000  H
  H77      1.0000 0.39760  0.47420  0.16270  Biso   1.000  H
  H78      1.0000 0.60240  0.47420  0.33730  Biso   1.000  H
  H79      1.0000 0.89760  0.97420  0.16270  Biso   1.000  H
  H80      1.0000 0.10240  0.97420  0.33730  Biso   1.000  H
  C129     1.0000 0.46970  0.55550  0.81500  Biso   1.000  C
  C130     1.0000 0.53030  0.55550  0.68500  Biso   1.000  C
  C131     1.0000 0.96970  0.05550  0.81500  Biso   1.000  C
  C132     1.0000 0.03030  0.05550  0.68500  Biso   1.000  C
  C133     1.0000 0.53030  0.44450  0.18500  Biso   1.000  C
  C134     1.0000 0.46970  0.44450  0.31500  Biso   1.000  C
  C135     1.0000 0.03030  0.94450  0.18500  Biso   1.000  C
  C136     1.0000 0.96970  0.94450  0.31500  Biso   1.000  C
  H81      1.0000 0.44660  0.53790  0.79000  Biso   1.000  H
  H82      1.0000 0.55340  0.53790  0.71000  Biso   1.000  H
  H83      1.0000 0.94660  0.03790  0.79000  Biso   1.000  H
  H84      1.0000 0.05340  0.03790  0.71000  Biso   1.000  H
  H85      1.0000 0.55340  0.46210  0.21000  Biso   1.000  H
  H86      1.0000 0.44660  0.46210  0.29000  Biso   1.000  H
  H87      1.0000 0.05340  0.96210  0.21000  Biso   1.000  H
  H88      1.0000 0.94660  0.96210  0.29000  Biso   1.000  H
  C137     1.0000 0.42100  0.58806  0.82540  Biso   1.000  C
  C138     1.0000 0.57900  0.58806  0.67460  Biso   1.000  C
  C139     1.0000 0.92100  0.08806  0.82540  Biso   1.000  C
  C140     1.0000 0.07900  0.08806  0.67460  Biso   1.000  C
  C141     1.0000 0.57900  0.41194  0.17460  Biso   1.000  C
  C142     1.0000 0.42100  0.41194  0.32540  Biso   1.000  C
  C143     1.0000 0.07900  0.91194  0.17460  Biso   1.000  C
  C144     1.0000 0.92100  0.91194  0.32540  Biso   1.000  C
  C145     1.0000 0.33010  0.59550  0.79270  Biso   1.000  C
  C146     1.0000 0.66990  0.59550  0.70730  Biso   1.000  C
  C147     1.0000 0.83010  0.09550  0.79270  Biso   1.000  C
  C148     1.0000 0.16990  0.09550  0.70730  Biso   1.000  C
  C149     1.0000 0.66990  0.40450  0.20730  Biso   1.000  C
  C150     1.0000 0.33010  0.40450  0.29270  Biso   1.000  C
  C151     1.0000 0.16990  0.90450  0.20730  Biso   1.000  C
  C152     1.0000 0.83010  0.90450  0.29270  Biso   1.000  C
  C153     1.0000 0.44230  0.61598  0.86250  Biso   1.000  C
  C154     1.0000 0.55770  0.61598  0.63750  Biso   1.000  C
  C155     1.0000 0.94230  0.11598  0.86250  Biso   1.000  C
  C156     1.0000 0.05770  0.11598  0.63750  Biso   1.000  C
  C157     1.0000 0.55770  0.38402  0.13750  Biso   1.000  C
  C158     1.0000 0.44230  0.38402  0.36250  Biso   1.000  C
  C159     1.0000 0.05770  0.88402  0.13750  Biso   1.000  C
  C160     1.0000 0.94230  0.88402  0.36250  Biso   1.000  C
  C161     1.0000 0.75230  0.59420  0.90580  Biso   1.000  C
  C162     1.0000 0.24770  0.59420  0.59420  Biso   1.000  C
  C163     1.0000 0.25230  0.09420  0.90580  Biso   1.000  C
  C164     1.0000 0.74770  0.09420  0.59420  Biso   1.000  C
  C165     1.0000 0.24770  0.40580  0.09420  Biso   1.000  C
  C166     1.0000 0.75230  0.40580  0.40580  Biso   1.000  C
  C167     1.0000 0.74770  0.90580  0.09420  Biso   1.000  C
  C168     1.0000 0.25230  0.90580  0.40580  Biso   1.000  C
  H89      1.0000 0.74270  0.61750  0.88690  Biso   1.000  H
  H90      1.0000 0.25730  0.61750  0.61310  Biso   1.000  H
  H91      1.0000 0.24270  0.11750  0.88690  Biso   1.000  H
  H92      1.0000 0.75730  0.11750  0.61310  Biso   1.000  H
  H93      1.0000 0.25730  0.38250  0.11310  Biso   1.000  H
  H94      1.0000 0.74270  0.38250  0.38690  Biso   1.000  H
  H95      1.0000 0.75730  0.88250  0.11310  Biso   1.000  H
  H96      1.0000 0.24270  0.88250  0.38690  Biso   1.000  H
  C169     1.0000 0.84070  0.58800  0.92720  Biso   1.000  C
  C170     1.0000 0.15930  0.58800  0.57280  Biso   1.000  C
  C171     1.0000 0.34070  0.08800  0.92720  Biso   1.000  C
  C172     1.0000 0.65930  0.08800  0.57280  Biso   1.000  C
  C173     1.0000 0.15930  0.41200  0.07280  Biso   1.000  C
  C174     1.0000 0.84070  0.41200  0.42720  Biso   1.000  C
  C175     1.0000 0.65930  0.91200  0.07280  Biso   1.000  C
  C176     1.0000 0.34070  0.91200  0.42720  Biso   1.000  C
  H97      1.0000 0.88920  0.60770  0.92570  Biso   1.000  H
  H98      1.0000 0.11080  0.60770  0.57430  Biso   1.000  H
  H99      1.0000 0.38920  0.10770  0.92570  Biso   1.000  H
  H100     1.0000 0.61080  0.10770  0.57430  Biso   1.000  H
  H101     1.0000 0.11080  0.39230  0.07430  Biso   1.000  H
  H102     1.0000 0.88920  0.39230  0.42570  Biso   1.000  H
  H103     1.0000 0.61080  0.89230  0.07430  Biso   1.000  H
  H104     1.0000 0.38920  0.89230  0.42570  Biso   1.000  H
  C177     1.0000 0.86160  0.55270  0.95160  Biso   1.000  C
  C178     1.0000 0.13840  0.55270  0.54840  Biso   1.000  C
  C179     1.0000 0.36160  0.05270  0.95160  Biso   1.000  C
  C180     1.0000 0.63840  0.05270  0.54840  Biso   1.000  C
  C181     1.0000 0.13840  0.44730  0.04840  Biso   1.000  C
  C182     1.0000 0.86160  0.44730  0.45160  Biso   1.000  C
  C183     1.0000 0.63840  0.94730  0.04840  Biso   1.000  C
  C184     1.0000 0.36160  0.94730  0.45160  Biso   1.000  C
  C185     1.0000 0.78020  0.52770  0.95800  Biso   1.000  C
  C186     1.0000 0.21980  0.52770  0.54200  Biso   1.000  C
  C187     1.0000 0.28020  0.02770  0.95800  Biso   1.000  C
  C188     1.0000 0.71980  0.02770  0.54200  Biso   1.000  C
  C189     1.0000 0.21980  0.47230  0.04200  Biso   1.000  C
  C190     1.0000 0.78020  0.47230  0.45800  Biso   1.000  C
  C191     1.0000 0.71980  0.97230  0.04200  Biso   1.000  C
  C192     1.0000 0.28020  0.97230  0.45800  Biso   1.000  C
  H105     1.0000 0.78800  0.50460  0.97750  Biso   1.000  H
  H106     1.0000 0.21200  0.50460  0.52250  Biso   1.000  H
  H107     1.0000 0.28800  0.00460  0.97750  Biso   1.000  H
  H108     1.0000 0.71200  0.00460  0.52250  Biso   1.000  H
  H109     1.0000 0.21200  0.49540  0.02250  Biso   1.000  H
  H110     1.0000 0.78800  0.49540  0.47750  Biso   1.000  H
  H111     1.0000 0.71200  0.99540  0.02250  Biso   1.000  H
  H112     1.0000 0.28800  0.99540  0.47750  Biso   1.000  H
  C193     1.0000 0.69190  0.53570  0.93740  Biso   1.000  C
  C194     1.0000 0.30810  0.53570  0.56260  Biso   1.000  C
  C195     1.0000 0.19190  0.03570  0.93740  Biso   1.000  C
  C196     1.0000 0.80810  0.03570  0.56260  Biso   1.000  C
  C197     1.0000 0.30810  0.46430  0.06260  Biso   1.000  C
  C198     1.0000 0.69190  0.46430  0.43740  Biso   1.000  C
  C199     1.0000 0.80810  0.96430  0.06260  Biso   1.000  C
  C200     1.0000 0.19190  0.96430  0.43740  Biso   1.000  C
  H113     1.0000 0.63980  0.51790  0.94210  Biso   1.000  H
  H114     1.0000 0.36020  0.51790  0.55790  Biso   1.000  H
  H115     1.0000 0.13980  0.01790  0.94210  Biso   1.000  H
  H116     1.0000 0.86020  0.01790  0.55790  Biso   1.000  H
  H117     1.0000 0.36020  0.48210  0.05790  Biso   1.000  H
  H118     1.0000 0.63980  0.48210  0.44210  Biso   1.000  H
  H119     1.0000 0.86020  0.98210  0.05790  Biso   1.000  H
  H120     1.0000 0.13980  0.98210  0.44210  Biso   1.000  H
  C201     1.0000 0.29560  0.68736  0.45770  Biso   1.000  C
  C202     1.0000 0.70440  0.68736  0.04230  Biso   1.000  C
  C203     1.0000 0.79560  0.18736  0.45770  Biso   1.000  C
  C204     1.0000 0.20440  0.18736  0.04230  Biso   1.000  C
  C205     1.0000 0.70440  0.31264  0.54230  Biso   1.000  C
  C206     1.0000 0.29560  0.31264  0.95770  Biso   1.000  C
  C207     1.0000 0.20440  0.81264  0.54230  Biso   1.000  C
  C208     1.0000 0.79560  0.81264  0.95770  Biso   1.000  C
  C209     1.0000 0.32180  0.64902  0.43270  Biso   1.000  C
  C210     1.0000 0.67820  0.64902  0.06730  Biso   1.000  C
  C211     1.0000 0.82180  0.14902  0.43270  Biso   1.000  C
  C212     1.0000 0.17820  0.14902  0.06730  Biso   1.000  C
  C213     1.0000 0.67820  0.35098  0.56730  Biso   1.000  C
  C214     1.0000 0.32180  0.35098  0.93270  Biso   1.000  C
  C215     1.0000 0.17820  0.85098  0.56730  Biso   1.000  C
  C216     1.0000 0.82180  0.85098  0.93270  Biso   1.000  C
  C217     1.0000 0.41680  0.64071  0.42040  Biso   1.000  C
  C218     1.0000 0.58320  0.64071  0.07960  Biso   1.000  C
  C219     1.0000 0.91680  0.14071  0.42040  Biso   1.000  C
  C220     1.0000 0.08320  0.14071  0.07960  Biso   1.000  C
  C221     1.0000 0.58320  0.35929  0.57960  Biso   1.000  C
  C222     1.0000 0.41680  0.35929  0.92040  Biso   1.000  C
  C223     1.0000 0.08320  0.85929  0.57960  Biso   1.000  C
  C224     1.0000 0.91680  0.85929  0.92040  Biso   1.000  C
  H121     1.0000 0.46710  0.65870  0.42860  Biso   1.000  H
  H122     1.0000 0.53290  0.65870  0.07140  Biso   1.000  H
  H123     1.0000 0.96710  0.15870  0.42860  Biso   1.000  H
  H124     1.0000 0.03290  0.15870  0.07140  Biso   1.000  H
  H125     1.0000 0.53290  0.34130  0.57140  Biso   1.000  H
  H126     1.0000 0.46710  0.34130  0.92860  Biso   1.000  H
  H127     1.0000 0.03290  0.84130  0.57140  Biso   1.000  H
  H128     1.0000 0.96710  0.84130  0.92860  Biso   1.000  H
  C225     1.0000 0.43940  0.60626  0.39630  Biso   1.000  C
  C226     1.0000 0.56060  0.60626  0.10370  Biso   1.000  C
  C227     1.0000 0.93940  0.10626  0.39630  Biso   1.000  C
  C228     1.0000 0.06060  0.10626  0.10370  Biso   1.000  C
  C229     1.0000 0.56060  0.39374  0.60370  Biso   1.000  C
  C230     1.0000 0.43940  0.39374  0.89630  Biso   1.000  C
  C231     1.0000 0.06060  0.89374  0.60370  Biso   1.000  C
  C232     1.0000 0.93940  0.89374  0.89630  Biso   1.000  C
  H129     1.0000 0.50560  0.60060  0.38860  Biso   1.000  H
  H130     1.0000 0.49440  0.60060  0.11140  Biso   1.000  H
  H131     1.0000 0.00560  0.10060  0.38860  Biso   1.000  H
  H132     1.0000 0.99440  0.10060  0.11140  Biso   1.000  H
  H133     1.0000 0.49440  0.39940  0.61140  Biso   1.000  H
  H134     1.0000 0.50560  0.39940  0.88860  Biso   1.000  H
  H135     1.0000 0.99440  0.89940  0.61140  Biso   1.000  H
  H136     1.0000 0.00560  0.89940  0.88860  Biso   1.000  H
  C233     1.0000 0.36980  0.58047  0.38350  Biso   1.000  C
  C234     1.0000 0.63020  0.58047  0.11650  Biso   1.000  C
  C235     1.0000 0.86980  0.08047  0.38350  Biso   1.000  C
  C236     1.0000 0.13020  0.08047  0.11650  Biso   1.000  C
  C237     1.0000 0.63020  0.41953  0.61650  Biso   1.000  C
  C238     1.0000 0.36980  0.41953  0.88350  Biso   1.000  C
  C239     1.0000 0.13020  0.91953  0.61650  Biso   1.000  C
  C240     1.0000 0.86980  0.91953  0.88350  Biso   1.000  C
  C241     1.0000 0.27330  0.58865  0.39560  Biso   1.000  C
  C242     1.0000 0.72670  0.58865  0.10440  Biso   1.000  C
  C243     1.0000 0.77330  0.08865  0.39560  Biso   1.000  C
  C244     1.0000 0.22670  0.08865  0.10440  Biso   1.000  C
  C245     1.0000 0.72670  0.41135  0.60440  Biso   1.000  C
  C246     1.0000 0.27330  0.41135  0.89560  Biso   1.000  C
  C247     1.0000 0.22670  0.91135  0.60440  Biso   1.000  C
  C248     1.0000 0.77330  0.91135  0.89560  Biso   1.000  C
  H137     1.0000 0.22350  0.57030  0.38760  Biso   1.000  H
  H138     1.0000 0.77650  0.57030  0.11240  Biso   1.000  H
  H139     1.0000 0.72350  0.07030  0.38760  Biso   1.000  H
  H140     1.0000 0.27650  0.07030  0.11240  Biso   1.000  H
  H141     1.0000 0.77650  0.42970  0.61240  Biso   1.000  H
  H142     1.0000 0.22350  0.42970  0.88760  Biso   1.000  H
  H143     1.0000 0.27650  0.92970  0.61240  Biso   1.000  H
  H144     1.0000 0.72350  0.92970  0.88760  Biso   1.000  H
  C249     1.0000 0.24920  0.62340  0.41920  Biso   1.000  C
  C250     1.0000 0.75080  0.62340  0.08080  Biso   1.000  C
  C251     1.0000 0.74920  0.12340  0.41920  Biso   1.000  C
  C252     1.0000 0.25080  0.12340  0.08080  Biso   1.000  C
  C253     1.0000 0.75080  0.37660  0.58080  Biso   1.000  C
  C254     1.0000 0.24920  0.37660  0.91920  Biso   1.000  C
  C255     1.0000 0.25080  0.87660  0.58080  Biso   1.000  C
  C256     1.0000 0.74920  0.87660  0.91920  Biso   1.000  C
  H145     1.0000 0.18280  0.62950  0.42600  Biso   1.000  H
  H146     1.0000 0.81720  0.62950  0.07400  Biso   1.000  H
  H147     1.0000 0.68280  0.12950  0.42600  Biso   1.000  H
  H148     1.0000 0.31720  0.12950  0.07400  Biso   1.000  H
  H149     1.0000 0.81720  0.37050  0.57400  Biso   1.000  H
  H150     1.0000 0.18280  0.37050  0.92600  Biso   1.000  H
  H151     1.0000 0.31720  0.87050  0.57400  Biso   1.000  H
  H152     1.0000 0.68280  0.87050  0.92600  Biso   1.000  H
  C257     1.0000 0.39710  0.54299  0.35610  Biso   1.000  C
  C258     1.0000 0.60290  0.54299  0.14390  Biso   1.000  C
  C259     1.0000 0.89710  0.04299  0.35610  Biso   1.000  C
  C260     1.0000 0.10290  0.04299  0.14390  Biso   1.000  C
  C261     1.0000 0.60290  0.45701  0.64390  Biso   1.000  C
  C262     1.0000 0.39710  0.45701  0.85610  Biso   1.000  C
  C263     1.0000 0.10290  0.95701  0.64390  Biso   1.000  C
  C264     1.0000 0.89710  0.95701  0.85610  Biso   1.000  C
  H153     1.0000 0.37150  0.54390  0.32080  Biso   1.000  H
  H154     1.0000 0.62850  0.54390  0.17920  Biso   1.000  H
  H155     1.0000 0.87150  0.04390  0.32080  Biso   1.000  H
  H156     1.0000 0.12850  0.04390  0.17920  Biso   1.000  H
  H157     1.0000 0.62850  0.45610  0.67920  Biso   1.000  H
  H158     1.0000 0.37150  0.45610  0.82080  Biso   1.000  H
  H159     1.0000 0.12850  0.95610  0.67920  Biso   1.000  H
  H160     1.0000 0.87150  0.95610  0.82080  Biso   1.000  H
  H161     1.0000 0.46920  0.54080  0.35440  Biso   1.000  H
  H162     1.0000 0.53080  0.54080  0.14560  Biso   1.000  H
  H163     1.0000 0.96920  0.04080  0.35440  Biso   1.000  H
  H164     1.0000 0.03080  0.04080  0.14560  Biso   1.000  H
  H165     1.0000 0.53080  0.45920  0.64560  Biso   1.000  H
  H166     1.0000 0.46920  0.45920  0.85440  Biso   1.000  H
  H167     1.0000 0.03080  0.95920  0.64560  Biso   1.000  H
  H168     1.0000 0.96920  0.95920  0.85440  Biso   1.000  H
  C265     1.0000 0.25280  0.49270  0.35550  Biso   1.000  C
  C266     1.0000 0.74720  0.49270  0.14450  Biso   1.000  C
  C267     1.0000 0.75280  0.99270  0.35550  Biso   1.000  C
  C268     1.0000 0.24720  0.99270  0.14450  Biso   1.000  C
  C269     1.0000 0.74720  0.50730  0.64450  Biso   1.000  C
  C270     1.0000 0.25280  0.50730  0.85550  Biso   1.000  C
  C271     1.0000 0.24720  0.00730  0.64450  Biso   1.000  C
  C272     1.0000 0.75280  0.00730  0.85550  Biso   1.000  C
  C273     1.0000 0.21460  0.46340  0.37560  Biso   1.000  C
  C274     1.0000 0.78540  0.46340  0.12440  Biso   1.000  C
  C275     1.0000 0.71460  0.96340  0.37560  Biso   1.000  C
  C276     1.0000 0.28540  0.96340  0.12440  Biso   1.000  C
  C277     1.0000 0.78540  0.53660  0.62440  Biso   1.000  C
  C278     1.0000 0.21460  0.53660  0.87560  Biso   1.000  C
  C279     1.0000 0.28540  0.03660  0.62440  Biso   1.000  C
  C280     1.0000 0.71460  0.03660  0.87560  Biso   1.000  C
  C281     1.0000 0.13620  0.44910  0.35060  Biso   1.000  C
  C282     1.0000 0.86380  0.44910  0.14940  Biso   1.000  C
  C283     1.0000 0.63620  0.94910  0.35060  Biso   1.000  C
  C284     1.0000 0.36380  0.94910  0.14940  Biso   1.000  C
  C285     1.0000 0.86380  0.55090  0.64940  Biso   1.000  C
  C286     1.0000 0.13620  0.55090  0.85060  Biso   1.000  C
  C287     1.0000 0.36380  0.05090  0.64940  Biso   1.000  C
  C288     1.0000 0.63620  0.05090  0.85060  Biso   1.000  C
  H169     1.0000 0.11500  0.46220  0.32070  Biso   1.000  H
  H170     1.0000 0.88500  0.46220  0.17930  Biso   1.000  H
  H171     1.0000 0.61500  0.96220  0.32070  Biso   1.000  H
  H172     1.0000 0.38500  0.96220  0.17930  Biso   1.000  H
  H173     1.0000 0.88500  0.53780  0.67930  Biso   1.000  H
  H174     1.0000 0.11500  0.53780  0.82070  Biso   1.000  H
  H175     1.0000 0.38500  0.03780  0.67930  Biso   1.000  H
  H176     1.0000 0.61500  0.03780  0.82070  Biso   1.000  H
  C289     1.0000 0.08550  0.41690  0.36590  Biso   1.000  C
  C290     1.0000 0.91450  0.41690  0.13410  Biso   1.000  C
  C291     1.0000 0.58550  0.91690  0.36590  Biso   1.000  C
  C292     1.0000 0.41450  0.91690  0.13410  Biso   1.000  C
  C293     1.0000 0.91450  0.58310  0.63410  Biso   1.000  C
  C294     1.0000 0.08550  0.58310  0.86590  Biso   1.000  C
  C295     1.0000 0.41450  0.08310  0.63410  Biso   1.000  C
  C296     1.0000 0.58550  0.08310  0.86590  Biso   1.000  C
  H177     1.0000 0.03040  0.40830  0.34690  Biso   1.000  H
  H178     1.0000 0.96960  0.40830  0.15310  Biso   1.000  H
  H179     1.0000 0.53040  0.90830  0.34690  Biso   1.000  H
  H180     1.0000 0.46960  0.90830  0.15310  Biso   1.000  H
  H181     1.0000 0.96960  0.59170  0.65310  Biso   1.000  H
  H182     1.0000 0.03040  0.59170  0.84690  Biso   1.000  H
  H183     1.0000 0.46960  0.09170  0.65310  Biso   1.000  H
  H184     1.0000 0.53040  0.09170  0.84690  Biso   1.000  H
  C297     1.0000 0.11440  0.39710  0.40880  Biso   1.000  C
  C298     1.0000 0.88560  0.39710  0.09120  Biso   1.000  C
  C299     1.0000 0.61440  0.89710  0.40880  Biso   1.000  C
  C300     1.0000 0.38560  0.89710  0.09120  Biso   1.000  C
  C301     1.0000 0.88560  0.60290  0.59120  Biso   1.000  C
  C302     1.0000 0.11440  0.60290  0.90880  Biso   1.000  C
  C303     1.0000 0.38560  0.10290  0.59120  Biso   1.000  C
  C304     1.0000 0.61440  0.10290  0.90880  Biso   1.000  C
  H185     1.0000 0.08070  0.37430  0.41920  Biso   1.000  H
  H186     1.0000 0.91930  0.37430  0.08080  Biso   1.000  H
  H187     1.0000 0.58070  0.87430  0.41920  Biso   1.000  H
  H188     1.0000 0.41930  0.87430  0.08080  Biso   1.000  H
  H189     1.0000 0.91930  0.62570  0.58080  Biso   1.000  H
  H190     1.0000 0.08070  0.62570  0.91920  Biso   1.000  H
  H191     1.0000 0.41930  0.12570  0.58080  Biso   1.000  H
  H192     1.0000 0.58070  0.12570  0.91920  Biso   1.000  H
  C305     1.0000 0.38300  0.49040  0.42440  Biso   1.000  C
  C306     1.0000 0.61700  0.49040  0.07560  Biso   1.000  C
  C307     1.0000 0.88300  0.99040  0.42440  Biso   1.000  C
  C308     1.0000 0.11700  0.99040  0.07560  Biso   1.000  C
  C309     1.0000 0.61700  0.50960  0.57560  Biso   1.000  C
  C310     1.0000 0.38300  0.50960  0.92440  Biso   1.000  C
  C311     1.0000 0.11700  0.00960  0.57560  Biso   1.000  C
  C312     1.0000 0.88300  0.00960  0.92440  Biso   1.000  C
  C313     1.0000 0.24840  0.44310  0.41910  Biso   1.000  C
  C314     1.0000 0.75160  0.44310  0.08090  Biso   1.000  C
  C315     1.0000 0.74840  0.94310  0.41910  Biso   1.000  C
  C316     1.0000 0.25160  0.94310  0.08090  Biso   1.000  C
  C317     1.0000 0.75160  0.55690  0.58090  Biso   1.000  C
  C318     1.0000 0.24840  0.55690  0.91910  Biso   1.000  C
  C319     1.0000 0.25160  0.05690  0.58090  Biso   1.000  C
  C320     1.0000 0.74840  0.05690  0.91910  Biso   1.000  C
  C321     1.0000 0.19640  0.41140  0.43760  Biso   1.000  C
  C322     1.0000 0.80360  0.41140  0.06240  Biso   1.000  C
  C323     1.0000 0.69640  0.91140  0.43760  Biso   1.000  C
  C324     1.0000 0.30360  0.91140  0.06240  Biso   1.000  C
  C325     1.0000 0.80360  0.58860  0.56240  Biso   1.000  C
  C326     1.0000 0.19640  0.58860  0.93760  Biso   1.000  C
  C327     1.0000 0.30360  0.08860  0.56240  Biso   1.000  C
  C328     1.0000 0.69640  0.08860  0.93760  Biso   1.000  C
  C329     1.0000 0.22790  0.39240  0.48150  Biso   1.000  C
  C330     1.0000 0.77210  0.39240  0.01850  Biso   1.000  C
  C331     1.0000 0.72790  0.89240  0.48150  Biso   1.000  C
  C332     1.0000 0.27210  0.89240  0.01850  Biso   1.000  C
  C333     1.0000 0.77210  0.60760  0.51850  Biso   1.000  C
  C334     1.0000 0.22790  0.60760  0.98150  Biso   1.000  C
  C335     1.0000 0.27210  0.10760  0.51850  Biso   1.000  C
  C336     1.0000 0.72790  0.10760  0.98150  Biso   1.000  C
  C337     1.0000 0.31140  0.40520  0.50670  Biso   1.000  C
  C338     1.0000 0.68860  0.40520  0.99330  Biso   1.000  C
  C339     1.0000 0.81140  0.90520  0.50670  Biso   1.000  C
  C340     1.0000 0.18860  0.90520  0.99330  Biso   1.000  C
  C341     1.0000 0.68860  0.59480  0.49330  Biso   1.000  C
  C342     1.0000 0.31140  0.59480  0.00670  Biso   1.000  C
  C343     1.0000 0.18860  0.09480  0.49330  Biso   1.000  C
  C344     1.0000 0.81140  0.09480  0.00670  Biso   1.000  C
  H193     1.0000 0.33290  0.39220  0.53670  Biso   1.000  H
  H194     1.0000 0.66710  0.39220  0.96330  Biso   1.000  H
  H195     1.0000 0.83290  0.89220  0.53670  Biso   1.000  H
  H196     1.0000 0.16710  0.89220  0.96330  Biso   1.000  H
  H197     1.0000 0.66710  0.60780  0.46330  Biso   1.000  H
  H198     1.0000 0.33290  0.60780  0.03670  Biso   1.000  H
  H199     1.0000 0.16710  0.10780  0.46330  Biso   1.000  H
  H200     1.0000 0.83290  0.10780  0.03670  Biso   1.000  H
  C345     1.0000 0.36340  0.43680  0.48820  Biso   1.000  C
  C346     1.0000 0.63660  0.43680  0.01180  Biso   1.000  C
  C347     1.0000 0.86340  0.93680  0.48820  Biso   1.000  C
  C348     1.0000 0.13660  0.93680  0.01180  Biso   1.000  C
  C349     1.0000 0.63660  0.56320  0.51180  Biso   1.000  C
  C350     1.0000 0.36340  0.56320  0.98820  Biso   1.000  C
  C351     1.0000 0.13660  0.06320  0.51180  Biso   1.000  C
  C352     1.0000 0.86340  0.06320  0.98820  Biso   1.000  C
  H201     1.0000 0.42050  0.44550  0.50550  Biso   1.000  H
  H202     1.0000 0.57950  0.44550  0.99450  Biso   1.000  H
  H203     1.0000 0.92050  0.94550  0.50550  Biso   1.000  H
  H204     1.0000 0.07950  0.94550  0.99450  Biso   1.000  H
  H205     1.0000 0.57950  0.55450  0.49450  Biso   1.000  H
  H206     1.0000 0.42050  0.55450  0.00550  Biso   1.000  H
  H207     1.0000 0.07950  0.05450  0.49450  Biso   1.000  H
  H208     1.0000 0.92050  0.05450  0.00550  Biso   1.000  H
  C353     1.0000 0.33190  0.45580  0.44440  Biso   1.000  C
  C354     1.0000 0.66810  0.45580  0.05560  Biso   1.000  C
  C355     1.0000 0.83190  0.95580  0.44440  Biso   1.000  C
  C356     1.0000 0.16810  0.95580  0.05560  Biso   1.000  C
  C357     1.0000 0.66810  0.54420  0.55560  Biso   1.000  C
  C358     1.0000 0.33190  0.54420  0.94440  Biso   1.000  C
  C359     1.0000 0.16810  0.04420  0.55560  Biso   1.000  C
  C360     1.0000 0.83190  0.04420  0.94440  Biso   1.000  C
  C361     1.0000 0.21340  0.32480  0.50450  Biso   1.000  C
  C362     1.0000 0.78660  0.32480  0.99550  Biso   1.000  C
  C363     1.0000 0.71340  0.82480  0.50450  Biso   1.000  C
  C364     1.0000 0.28660  0.82480  0.99550  Biso   1.000  C
  C365     1.0000 0.78660  0.67520  0.49550  Biso   1.000  C
  C366     1.0000 0.21340  0.67520  0.00450  Biso   1.000  C
  C367     1.0000 0.28660  0.17520  0.49550  Biso   1.000  C
  C368     1.0000 0.71340  0.17520  0.00450  Biso   1.000  C
  H209     1.0000 0.28210  0.32260  0.50030  Biso   1.000  H
  H210     1.0000 0.71790  0.32260  0.99970  Biso   1.000  H
  H211     1.0000 0.78210  0.82260  0.50030  Biso   1.000  H
  H212     1.0000 0.21790  0.82260  0.99970  Biso   1.000  H
  H213     1.0000 0.71790  0.67740  0.49970  Biso   1.000  H
  H214     1.0000 0.28210  0.67740  0.00030  Biso   1.000  H
  H215     1.0000 0.21790  0.17740  0.49970  Biso   1.000  H
  H216     1.0000 0.78210  0.17740  0.00030  Biso   1.000  H
  C369     1.0000 0.06590  0.36536  0.50600  Biso   1.000  C
  C370     1.0000 0.93410  0.36536  0.99400  Biso   1.000  C
  C371     1.0000 0.56590  0.86536  0.50600  Biso   1.000  C
  C372     1.0000 0.43410  0.86536  0.99400  Biso   1.000  C
  C373     1.0000 0.93410  0.63464  0.49400  Biso   1.000  C
  C374     1.0000 0.06590  0.63464  0.00600  Biso   1.000  C
  C375     1.0000 0.43410  0.13464  0.49400  Biso   1.000  C
  C376     1.0000 0.56590  0.13464  0.00600  Biso   1.000  C
  H217     1.0000 0.03470  0.38960  0.49950  Biso   1.000  H
  H218     1.0000 0.96530  0.38960  0.00050  Biso   1.000  H
  H219     1.0000 0.53470  0.88960  0.49950  Biso   1.000  H
  H220     1.0000 0.46530  0.88960  0.00050  Biso   1.000  H
  H221     1.0000 0.96530  0.61040  0.50050  Biso   1.000  H
  H222     1.0000 0.03470  0.61040  0.99950  Biso   1.000  H
  H223     1.0000 0.46530  0.11040  0.50050  Biso   1.000  H
  H224     1.0000 0.53470  0.11040  0.99950  Biso   1.000  H
  C377     1.0000 0.15810  0.29310  0.51620  Biso   1.000  C
  C378     1.0000 0.84190  0.29310  0.98380  Biso   1.000  C
  C379     1.0000 0.65810  0.79310  0.51620  Biso   1.000  C
  C380     1.0000 0.34190  0.79310  0.98380  Biso   1.000  C
  C381     1.0000 0.84190  0.70690  0.48380  Biso   1.000  C
  C382     1.0000 0.15810  0.70690  0.01620  Biso   1.000  C
  C383     1.0000 0.34190  0.20690  0.48380  Biso   1.000  C
  C384     1.0000 0.65810  0.20690  0.01620  Biso   1.000  C
  H225     1.0000 0.18860  0.26940  0.52590  Biso   1.000  H
  H226     1.0000 0.81140  0.26940  0.97410  Biso   1.000  H
  H227     1.0000 0.68860  0.76940  0.52590  Biso   1.000  H
  H228     1.0000 0.31140  0.76940  0.97410  Biso   1.000  H
  H229     1.0000 0.81140  0.73060  0.47410  Biso   1.000  H
  H230     1.0000 0.18860  0.73060  0.02590  Biso   1.000  H
  H231     1.0000 0.31140  0.23060  0.47410  Biso   1.000  H
  H232     1.0000 0.68860  0.23060  0.02590  Biso   1.000  H
  C385     1.0000 0.01490  0.33438  0.52240  Biso   1.000  C
  C386     1.0000 0.98510  0.33438  0.97760  Biso   1.000  C
  C387     1.0000 0.51490  0.83438  0.52240  Biso   1.000  C
  C388     1.0000 0.48510  0.83438  0.97760  Biso   1.000  C
  C389     1.0000 0.98510  0.66562  0.47760  Biso   1.000  C
  C390     1.0000 0.01490  0.66562  0.02240  Biso   1.000  C
  C391     1.0000 0.48510  0.16562  0.47760  Biso   1.000  C
  C392     1.0000 0.51490  0.16562  0.02240  Biso   1.000  C
  H233     1.0000 0.95830  0.33960  0.54190  Biso   1.000  H
  H234     1.0000 0.04170  0.33960  0.95810  Biso   1.000  H
  H235     1.0000 0.45830  0.83960  0.54190  Biso   1.000  H
  H236     1.0000 0.54170  0.83960  0.95810  Biso   1.000  H
  H237     1.0000 0.04170  0.66040  0.45810  Biso   1.000  H
  H238     1.0000 0.95830  0.66040  0.04190  Biso   1.000  H
  H239     1.0000 0.54170  0.16040  0.45810  Biso   1.000  H
  H240     1.0000 0.45830  0.16040  0.04190  Biso   1.000  H
  C393     1.0000 0.03650  0.29620  0.51360  Biso   1.000  C
  C394     1.0000 0.96350  0.29620  0.98640  Biso   1.000  C
  C395     1.0000 0.53650  0.79620  0.51360  Biso   1.000  C
  C396     1.0000 0.46350  0.79620  0.98640  Biso   1.000  C
  C397     1.0000 0.96350  0.70380  0.48640  Biso   1.000  C
  C398     1.0000 0.03650  0.70380  0.01360  Biso   1.000  C
  C399     1.0000 0.46350  0.20380  0.48640  Biso   1.000  C
  C400     1.0000 0.53650  0.20380  0.01360  Biso   1.000  C
  O105     1.0000 0.21300  0.50710  0.31860  Biso   1.000  O
  O106     1.0000 0.78700  0.50710  0.18140  Biso   1.000  O
  O107     1.0000 0.71300  0.00710  0.31860  Biso   1.000  O
  O108     1.0000 0.28700  0.00710  0.18140  Biso   1.000  O
  O109     1.0000 0.78700  0.49290  0.68140  Biso   1.000  O
  O110     1.0000 0.21300  0.49290  0.81860  Biso   1.000  O
  O111     1.0000 0.28700  0.99290  0.68140  Biso   1.000  O
  O112     1.0000 0.71300  0.99290  0.81860  Biso   1.000  O
  O113     1.0000 0.47370  0.51180  0.42890  Biso   1.000  O
  O114     1.0000 0.52630  0.51180  0.07110  Biso   1.000  O
  O115     1.0000 0.97370  0.01180  0.42890  Biso   1.000  O
  O116     1.0000 0.02630  0.01180  0.07110  Biso   1.000  O
  O117     1.0000 0.52630  0.48820  0.57110  Biso   1.000  O
  O118     1.0000 0.47370  0.48820  0.92890  Biso   1.000  O
  O119     1.0000 0.02630  0.98820  0.57110  Biso   1.000  O
  O120     1.0000 0.97370  0.98820  0.92890  Biso   1.000  O
  N41      1.0000 0.34010  0.50950  0.37360  Biso   1.000  N
  N42      1.0000 0.65990  0.50950  0.12640  Biso   1.000  N
  N43      1.0000 0.84010  0.00950  0.37360  Biso   1.000  N
  N44      1.0000 0.15990  0.00950  0.12640  Biso   1.000  N
  N45      1.0000 0.65990  0.49050  0.62640  Biso   1.000  N
  N46      1.0000 0.34010  0.49050  0.87360  Biso   1.000  N
  N47      1.0000 0.15990  0.99050  0.62640  Biso   1.000  N
  N48      1.0000 0.84010  0.99050  0.87360  Biso   1.000  N
  N49      1.0000 0.10310  0.36130  0.45670  Biso   1.000  N
  N50      1.0000 0.89690  0.36130  0.04330  Biso   1.000  N
  N51      1.0000 0.60310  0.86130  0.45670  Biso   1.000  N
  N52      1.0000 0.39690  0.86130  0.04330  Biso   1.000  N
  N53      1.0000 0.89690  0.63870  0.54330  Biso   1.000  N
  N54      1.0000 0.10310  0.63870  0.95670  Biso   1.000  N
  N55      1.0000 0.39690  0.13870  0.54330  Biso   1.000  N
  N56      1.0000 0.60310  0.13870  0.95670  Biso   1.000  N
  H241     1.0000 0.38640  0.54650  0.31910  Biso   1.000  H
  H242     1.0000 0.61360  0.54650  0.18090  Biso   1.000  H
  H243     1.0000 0.88640  0.04650  0.31910  Biso   1.000  H
  H244     1.0000 0.11360  0.04650  0.18090  Biso   1.000  H
  H245     1.0000 0.61360  0.45350  0.68090  Biso   1.000  H
  H246     1.0000 0.38640  0.45350  0.81910  Biso   1.000  H
  H247     1.0000 0.11360  0.95350  0.68090  Biso   1.000  H
  H248     1.0000 0.88640  0.95350  0.81910  Biso   1.000  H
  H249     1.0000 0.46750  0.53770  0.36160  Biso   1.000  H
  H250     1.0000 0.53250  0.53770  0.13840  Biso   1.000  H
  H251     1.0000 0.96750  0.03770  0.36160  Biso   1.000  H
  H252     1.0000 0.03250  0.03770  0.13840  Biso   1.000  H
  H253     1.0000 0.53250  0.46230  0.63840  Biso   1.000  H
  H254     1.0000 0.46750  0.46230  0.86160  Biso   1.000  H
  H255     1.0000 0.03250  0.96230  0.63840  Biso   1.000  H
  H256     1.0000 0.96750  0.96230  0.86160  Biso   1.000  H
  C401     1.0000 0.40280  0.49580  0.41810  Biso   1.000  C
  C402     1.0000 0.59720  0.49580  0.08190  Biso   1.000  C
  C403     1.0000 0.90280  0.99580  0.41810  Biso   1.000  C
  C404     1.0000 0.09720  0.99580  0.08190  Biso   1.000  C
  C405     1.0000 0.59720  0.50420  0.58190  Biso   1.000  C
  C406     1.0000 0.40280  0.50420  0.91810  Biso   1.000  C
  C407     1.0000 0.09720  0.00420  0.58190  Biso   1.000  C
  C408     1.0000 0.90280  0.00420  0.91810  Biso   1.000  C
  C409     1.0000 0.35820  0.46150  0.44430  Biso   1.000  C
  C410     1.0000 0.64180  0.46150  0.05570  Biso   1.000  C
  C411     1.0000 0.85820  0.96150  0.44430  Biso   1.000  C
  C412     1.0000 0.14180  0.96150  0.05570  Biso   1.000  C
  C413     1.0000 0.64180  0.53850  0.55570  Biso   1.000  C
  C414     1.0000 0.35820  0.53850  0.94430  Biso   1.000  C
  C415     1.0000 0.14180  0.03850  0.55570  Biso   1.000  C
  C416     1.0000 0.85820  0.03850  0.94430  Biso   1.000  C
  C417     1.0000 0.40690  0.44590  0.48640  Biso   1.000  C
  C418     1.0000 0.59310  0.44590  0.01360  Biso   1.000  C
  C419     1.0000 0.90690  0.94590  0.48640  Biso   1.000  C
  C420     1.0000 0.09310  0.94590  0.01360  Biso   1.000  C
  C421     1.0000 0.59310  0.55410  0.51360  Biso   1.000  C
  C422     1.0000 0.40690  0.55410  0.98640  Biso   1.000  C
  C423     1.0000 0.09310  0.05410  0.51360  Biso   1.000  C
  C424     1.0000 0.90690  0.05410  0.98640  Biso   1.000  C
  H257     1.0000 0.46520  0.45780  0.49850  Biso   1.000  H
  H258     1.0000 0.53480  0.45780  0.00150  Biso   1.000  H
  H259     1.0000 0.96520  0.95780  0.49850  Biso   1.000  H
  H260     1.0000 0.03480  0.95780  0.00150  Biso   1.000  H
  H261     1.0000 0.53480  0.54220  0.50150  Biso   1.000  H
  H262     1.0000 0.46520  0.54220  0.99850  Biso   1.000  H
  H263     1.0000 0.03480  0.04220  0.50150  Biso   1.000  H
  H264     1.0000 0.96520  0.04220  0.99850  Biso   1.000  H
  C425     1.0000 0.37140  0.41400  0.51020  Biso   1.000  C
  C426     1.0000 0.62860  0.41400  0.98980  Biso   1.000  C
  C427     1.0000 0.87140  0.91400  0.51020  Biso   1.000  C
  C428     1.0000 0.12860  0.91400  0.98980  Biso   1.000  C
  C429     1.0000 0.62860  0.58600  0.48980  Biso   1.000  C
  C430     1.0000 0.37140  0.58600  0.01020  Biso   1.000  C
  C431     1.0000 0.12860  0.08600  0.48980  Biso   1.000  C
  C432     1.0000 0.87140  0.08600  0.01020  Biso   1.000  C
  H265     1.0000 0.40550  0.40370  0.53870  Biso   1.000  H
  H266     1.0000 0.59450  0.40370  0.96130  Biso   1.000  H
  H267     1.0000 0.90550  0.90370  0.53870  Biso   1.000  H
  H268     1.0000 0.09450  0.90370  0.96130  Biso   1.000  H
  H269     1.0000 0.59450  0.59630  0.46130  Biso   1.000  H
  H270     1.0000 0.40550  0.59630  0.03870  Biso   1.000  H
  H271     1.0000 0.09450  0.09630  0.46130  Biso   1.000  H
  H272     1.0000 0.90550  0.09630  0.03870  Biso   1.000  H
  C433     1.0000 0.28510  0.39590  0.49350  Biso   1.000  C
  C434     1.0000 0.71490  0.39590  0.00650  Biso   1.000  C
  C435     1.0000 0.78510  0.89590  0.49350  Biso   1.000  C
  C436     1.0000 0.21490  0.89590  0.00650  Biso   1.000  C
  C437     1.0000 0.71490  0.60410  0.50650  Biso   1.000  C
  C438     1.0000 0.28510  0.60410  0.99350  Biso   1.000  C
  C439     1.0000 0.21490  0.10410  0.50650  Biso   1.000  C
  C440     1.0000 0.78510  0.10410  0.99350  Biso   1.000  C
  H273     1.0000 0.26120  0.37340  0.51040  Biso   1.000  H
  H274     1.0000 0.73880  0.37340  0.98960  Biso   1.000  H
  H275     1.0000 0.76120  0.87340  0.51040  Biso   1.000  H
  H276     1.0000 0.23880  0.87340  0.98960  Biso   1.000  H
  H277     1.0000 0.73880  0.62660  0.48960  Biso   1.000  H
  H278     1.0000 0.26120  0.62660  0.01040  Biso   1.000  H
  H279     1.0000 0.23880  0.12660  0.48960  Biso   1.000  H
  H280     1.0000 0.76120  0.12660  0.01040  Biso   1.000  H
  C441     1.0000 0.23650  0.41090  0.45310  Biso   1.000  C
  C442     1.0000 0.76350  0.41090  0.04690  Biso   1.000  C
  C443     1.0000 0.73650  0.91090  0.45310  Biso   1.000  C
  C444     1.0000 0.26350  0.91090  0.04690  Biso   1.000  C
  C445     1.0000 0.76350  0.58910  0.54690  Biso   1.000  C
  C446     1.0000 0.23650  0.58910  0.95310  Biso   1.000  C
  C447     1.0000 0.26350  0.08910  0.54690  Biso   1.000  C
  C448     1.0000 0.73650  0.08910  0.95310  Biso   1.000  C
  C449     1.0000 0.14850  0.39310  0.43340  Biso   1.000  C
  C450     1.0000 0.85150  0.39310  0.06660  Biso   1.000  C
  C451     1.0000 0.64850  0.89310  0.43340  Biso   1.000  C
  C452     1.0000 0.35150  0.89310  0.06660  Biso   1.000  C
  C453     1.0000 0.85150  0.60690  0.56660  Biso   1.000  C
  C454     1.0000 0.14850  0.60690  0.93340  Biso   1.000  C
  C455     1.0000 0.35150  0.10690  0.56660  Biso   1.000  C
  C456     1.0000 0.64850  0.10690  0.93340  Biso   1.000  C
  C457     1.0000 0.10130  0.40750  0.38950  Biso   1.000  C
  C458     1.0000 0.89870  0.40750  0.11050  Biso   1.000  C
  C459     1.0000 0.60130  0.90750  0.38950  Biso   1.000  C
  C460     1.0000 0.39870  0.90750  0.11050  Biso   1.000  C
  C461     1.0000 0.89870  0.59250  0.61050  Biso   1.000  C
  C462     1.0000 0.10130  0.59250  0.88950  Biso   1.000  C
  C463     1.0000 0.39870  0.09250  0.61050  Biso   1.000  C
  C464     1.0000 0.60130  0.09250  0.88950  Biso   1.000  C
  H281     1.0000 0.04410  0.39510  0.37680  Biso   1.000  H
  H282     1.0000 0.95590  0.39510  0.12320  Biso   1.000  H
  H283     1.0000 0.54410  0.89510  0.37680  Biso   1.000  H
  H284     1.0000 0.45590  0.89510  0.12320  Biso   1.000  H
  H285     1.0000 0.95590  0.60490  0.62320  Biso   1.000  H
  H286     1.0000 0.04410  0.60490  0.87680  Biso   1.000  H
  H287     1.0000 0.45590  0.10490  0.62320  Biso   1.000  H
  H288     1.0000 0.54410  0.10490  0.87680  Biso   1.000  H
  C465     1.0000 0.13820  0.43900  0.36580  Biso   1.000  C
  C466     1.0000 0.86180  0.43900  0.13420  Biso   1.000  C
  C467     1.0000 0.63820  0.93900  0.36580  Biso   1.000  C
  C468     1.0000 0.36180  0.93900  0.13420  Biso   1.000  C
  C469     1.0000 0.86180  0.56100  0.63420  Biso   1.000  C
  C470     1.0000 0.13820  0.56100  0.86580  Biso   1.000  C
  C471     1.0000 0.36180  0.06100  0.63420  Biso   1.000  C
  C472     1.0000 0.63820  0.06100  0.86580  Biso   1.000  C
  H289     1.0000 0.10340  0.44930  0.33750  Biso   1.000  H
  H290     1.0000 0.89660  0.44930  0.16250  Biso   1.000  H
  H291     1.0000 0.60340  0.94930  0.33750  Biso   1.000  H
  H292     1.0000 0.39660  0.94930  0.16250  Biso   1.000  H
  H293     1.0000 0.89660  0.55070  0.66250  Biso   1.000  H
  H294     1.0000 0.10340  0.55070  0.83750  Biso   1.000  H
  H295     1.0000 0.39660  0.05070  0.66250  Biso   1.000  H
  H296     1.0000 0.60340  0.05070  0.83750  Biso   1.000  H
  C473     1.0000 0.22550  0.45730  0.38070  Biso   1.000  C
  C474     1.0000 0.77450  0.45730  0.11930  Biso   1.000  C
  C475     1.0000 0.72550  0.95730  0.38070  Biso   1.000  C
  C476     1.0000 0.27450  0.95730  0.11930  Biso   1.000  C
  C477     1.0000 0.77450  0.54270  0.61930  Biso   1.000  C
  C478     1.0000 0.22550  0.54270  0.88070  Biso   1.000  C
  C479     1.0000 0.27450  0.04270  0.61930  Biso   1.000  C
  C480     1.0000 0.72550  0.04270  0.88070  Biso   1.000  C
  C481     1.0000 0.27120  0.49690  0.35490  Biso   1.000  C
  C482     1.0000 0.72880  0.49690  0.14510  Biso   1.000  C
  C483     1.0000 0.77120  0.99690  0.35490  Biso   1.000  C
  C484     1.0000 0.22880  0.99690  0.14510  Biso   1.000  C
  C485     1.0000 0.72880  0.50310  0.64510  Biso   1.000  C
  C486     1.0000 0.27120  0.50310  0.85490  Biso   1.000  C
  C487     1.0000 0.22880  0.00310  0.64510  Biso   1.000  C
  C488     1.0000 0.77120  0.00310  0.85490  Biso   1.000  C
  C489     1.0000 0.26970  0.44390  0.42570  Biso   1.000  C
  C490     1.0000 0.73030  0.44390  0.07430  Biso   1.000  C
  C491     1.0000 0.76970  0.94390  0.42570  Biso   1.000  C
  C492     1.0000 0.23030  0.94390  0.07430  Biso   1.000  C
  C493     1.0000 0.73030  0.55610  0.57430  Biso   1.000  C
  C494     1.0000 0.26970  0.55610  0.92570  Biso   1.000  C
  C495     1.0000 0.23030  0.05610  0.57430  Biso   1.000  C
  C496     1.0000 0.76970  0.05610  0.92570  Biso   1.000  C
  H297     1.0000 0.07580  0.38800  0.52610  Biso   1.000  H
  H298     1.0000 0.92420  0.38800  0.97390  Biso   1.000  H
  H299     1.0000 0.57580  0.88800  0.52610  Biso   1.000  H
  H300     1.0000 0.42420  0.88800  0.97390  Biso   1.000  H
  H301     1.0000 0.92420  0.61200  0.47390  Biso   1.000  H
  H302     1.0000 0.07580  0.61200  0.02610  Biso   1.000  H
  H303     1.0000 0.42420  0.11200  0.47390  Biso   1.000  H
  H304     1.0000 0.57580  0.11200  0.02610  Biso   1.000  H
  C497     1.0000 0.07260  0.29400  0.45960  Biso   1.000  C
  C498     1.0000 0.92740  0.29400  0.04040  Biso   1.000  C
  C499     1.0000 0.57260  0.79400  0.45960  Biso   1.000  C
  C500     1.0000 0.42740  0.79400  0.04040  Biso   1.000  C
  C501     1.0000 0.92740  0.70600  0.54040  Biso   1.000  C
  C502     1.0000 0.07260  0.70600  0.95960  Biso   1.000  C
  C503     1.0000 0.42740  0.20600  0.54040  Biso   1.000  C
  C504     1.0000 0.57260  0.20600  0.95960  Biso   1.000  C
  H305     1.0000 0.06650  0.27030  0.44110  Biso   1.000  H
  H306     1.0000 0.93350  0.27030  0.05890  Biso   1.000  H
  H307     1.0000 0.56650  0.77030  0.44110  Biso   1.000  H
  H308     1.0000 0.43350  0.77030  0.05890  Biso   1.000  H
  H309     1.0000 0.93350  0.72970  0.55890  Biso   1.000  H
  H310     1.0000 0.06650  0.72970  0.94110  Biso   1.000  H
  H311     1.0000 0.43350  0.22970  0.55890  Biso   1.000  H
  H312     1.0000 0.56650  0.22970  0.94110  Biso   1.000  H
  C505     1.0000 0.11100  0.32350  0.43880  Biso   1.000  C
  C506     1.0000 0.88900  0.32350  0.06120  Biso   1.000  C
  C507     1.0000 0.61100  0.82350  0.43880  Biso   1.000  C
  C508     1.0000 0.38900  0.82350  0.06120  Biso   1.000  C
  C509     1.0000 0.88900  0.67650  0.56120  Biso   1.000  C
  C510     1.0000 0.11100  0.67650  0.93880  Biso   1.000  C
  C511     1.0000 0.38900  0.17650  0.56120  Biso   1.000  C
  C512     1.0000 0.61100  0.17650  0.93880  Biso   1.000  C
  H313     1.0000 0.14790  0.31940  0.40880  Biso   1.000  H
  H314     1.0000 0.85210  0.31940  0.09120  Biso   1.000  H
  H315     1.0000 0.64790  0.81940  0.40880  Biso   1.000  H
  H316     1.0000 0.35210  0.81940  0.09120  Biso   1.000  H
  H317     1.0000 0.85210  0.68060  0.59120  Biso   1.000  H
  H318     1.0000 0.14790  0.68060  0.90880  Biso   1.000  H
  H319     1.0000 0.35210  0.18060  0.59120  Biso   1.000  H
  H320     1.0000 0.64790  0.18060  0.90880  Biso   1.000  H
