data_image0
_cell_length_a       20.126
_cell_length_b       20.126
_cell_length_c       20.554
_cell_angle_alpha    90
_cell_angle_beta     90
_cell_angle_gamma    120

_symmetry_space_group_name_H-M    "P 1"
_symmetry_int_tables_number       1

loop_
  _symmetry_equiv_pos_as_xyz
  'x, y, z'

loop_
  _atom_site_label
  _atom_site_occupancy
  _atom_site_fract_x
  _atom_site_fract_y
  _atom_site_fract_z
  _atom_site_thermal_displace_type
  _atom_site_B_iso_or_equiv
  _atom_site_type_symbol
  Cu1      1.0000 0.50000  0.50000  0.00000  Biso   1.000  Cu
  Cu2      1.0000 0.50000  0.00000  0.00000  Biso   1.000  Cu
  Cu3      1.0000 0.00000  0.50000  0.00000  Biso   1.000  Cu
  Cu4      1.0000 0.16667  0.83333  0.33333  Biso   1.000  Cu
  Cu5      1.0000 0.16667  0.33333  0.33333  Biso   1.000  Cu
  Cu6      1.0000 0.66667  0.83333  0.33333  Biso   1.000  Cu
  Cu7      1.0000 0.83333  0.16667  0.66667  Biso   1.000  Cu
  Cu8      1.0000 0.83333  0.66667  0.66667  Biso   1.000  Cu
  Cu9      1.0000 0.33333  0.16667  0.66667  Biso   1.000  Cu
  S1       1.0000 0.76589  0.64216  0.03858  Biso   1.000  S
  S2       1.0000 0.35784  0.12373  0.03858  Biso   1.000  S
  S3       1.0000 0.87627  0.23411  0.03858  Biso   1.000  S
  S4       1.0000 0.43256  0.97549  0.37191  Biso   1.000  S
  S5       1.0000 0.02451  0.45706  0.37191  Biso   1.000  S
  S6       1.0000 0.54294  0.56744  0.37191  Biso   1.000  S
  S7       1.0000 0.09922  0.30883  0.70525  Biso   1.000  S
  S8       1.0000 0.69117  0.79040  0.70525  Biso   1.000  S
  S9       1.0000 0.20960  0.90078  0.70525  Biso   1.000  S
  S10      1.0000 0.23411  0.35784  0.96142  Biso   1.000  S
  S11      1.0000 0.64216  0.87627  0.96142  Biso   1.000  S
  S12      1.0000 0.12373  0.76589  0.96142  Biso   1.000  S
  S13      1.0000 0.90078  0.69117  0.29475  Biso   1.000  S
  S14      1.0000 0.30883  0.20960  0.29475  Biso   1.000  S
  S15      1.0000 0.79040  0.09922  0.29475  Biso   1.000  S
  S16      1.0000 0.56744  0.02451  0.62809  Biso   1.000  S
  S17      1.0000 0.97549  0.54294  0.62809  Biso   1.000  S
  S18      1.0000 0.45706  0.43256  0.62809  Biso   1.000  S
  O1       1.0000 0.53230  0.40149  0.98576  Biso   1.000  O
  O2       1.0000 0.59851  0.13081  0.98576  Biso   1.000  O
  O3       1.0000 0.86919  0.46770  0.98576  Biso   1.000  O
  O4       1.0000 0.19897  0.73482  0.31909  Biso   1.000  O
  O5       1.0000 0.26518  0.46414  0.31909  Biso   1.000  O
  O6       1.0000 0.53586  0.80103  0.31909  Biso   1.000  O
  O7       1.0000 0.86563  0.06816  0.65243  Biso   1.000  O
  O8       1.0000 0.93184  0.79748  0.65243  Biso   1.000  O
  O9       1.0000 0.20252  0.13437  0.65243  Biso   1.000  O
  O10      1.0000 0.46770  0.59851  0.01424  Biso   1.000  O
  O11      1.0000 0.40149  0.86919  0.01424  Biso   1.000  O
  O12      1.0000 0.13081  0.53230  0.01424  Biso   1.000  O
  O13      1.0000 0.13437  0.93184  0.34757  Biso   1.000  O
  O14      1.0000 0.06816  0.20252  0.34757  Biso   1.000  O
  O15      1.0000 0.79748  0.86563  0.34757  Biso   1.000  O
  O16      1.0000 0.80103  0.26518  0.68091  Biso   1.000  O
  O17      1.0000 0.73482  0.53586  0.68091  Biso   1.000  O
  O18      1.0000 0.46414  0.19897  0.68091  Biso   1.000  O
  O19      1.0000 0.60750  0.18225  0.49045  Biso   1.000  O
  O20      1.0000 0.81775  0.42525  0.49045  Biso   1.000  O
  O21      1.0000 0.57475  0.39250  0.49045  Biso   1.000  O
  O22      1.0000 0.27417  0.51558  0.82378  Biso   1.000  O
  O23      1.0000 0.48442  0.75858  0.82378  Biso   1.000  O
  O24      1.0000 0.24142  0.72583  0.82378  Biso   1.000  O
  O25      1.0000 0.94083  0.84892  0.15712  Biso   1.000  O
  O26      1.0000 0.15108  0.09192  0.15712  Biso   1.000  O
  O27      1.0000 0.90808  0.05917  0.15712  Biso   1.000  O
  O28      1.0000 0.39250  0.81775  0.50955  Biso   1.000  O
  O29      1.0000 0.18225  0.57475  0.50955  Biso   1.000  O
  O30      1.0000 0.42525  0.60750  0.50955  Biso   1.000  O
  O31      1.0000 0.05917  0.15108  0.84288  Biso   1.000  O
  O32      1.0000 0.84892  0.90808  0.84288  Biso   1.000  O
  O33      1.0000 0.09192  0.94083  0.84288  Biso   1.000  O
  O34      1.0000 0.72583  0.48442  0.17622  Biso   1.000  O
  O35      1.0000 0.51558  0.24142  0.17622  Biso   1.000  O
  O36      1.0000 0.75858  0.27417  0.17622  Biso   1.000  O
  O37      1.0000 0.66400  0.26840  0.83240  Biso   1.000  O
  O38      1.0000 0.73160  0.39560  0.83240  Biso   1.000  O
  O39      1.0000 0.60440  0.33600  0.83240  Biso   1.000  O
  O40      1.0000 0.33067  0.60173  0.16573  Biso   1.000  O
  O41      1.0000 0.39827  0.72893  0.16573  Biso   1.000  O
  O42      1.0000 0.27107  0.66933  0.16573  Biso   1.000  O
  O43      1.0000 0.99733  0.93507  0.49907  Biso   1.000  O
  O44      1.0000 0.06493  0.06227  0.49907  Biso   1.000  O
  O45      1.0000 0.93773  0.00267  0.49907  Biso   1.000  O
  O46      1.0000 0.33600  0.73160  0.16760  Biso   1.000  O
  O47      1.0000 0.26840  0.60440  0.16760  Biso   1.000  O
  O48      1.0000 0.39560  0.66400  0.16760  Biso   1.000  O
  O49      1.0000 0.00267  0.06493  0.50093  Biso   1.000  O
  O50      1.0000 0.93507  0.93773  0.50093  Biso   1.000  O
  O51      1.0000 0.06227  0.99733  0.50093  Biso   1.000  O
  O52      1.0000 0.66933  0.39827  0.83427  Biso   1.000  O
  O53      1.0000 0.60173  0.27107  0.83427  Biso   1.000  O
  O54      1.0000 0.72893  0.33067  0.83427  Biso   1.000  O
  H1       1.0000 0.66280  0.24790  0.79680  Biso   1.000  H
  H2       1.0000 0.75210  0.41490  0.79680  Biso   1.000  H
  H3       1.0000 0.58510  0.33720  0.79680  Biso   1.000  H
  H4       1.0000 0.32947  0.58123  0.13013  Biso   1.000  H
  H5       1.0000 0.41877  0.74823  0.13013  Biso   1.000  H
  H6       1.0000 0.25177  0.67053  0.13013  Biso   1.000  H
  H7       1.0000 0.99613  0.91457  0.46347  Biso   1.000  H
  H8       1.0000 0.08543  0.08157  0.46347  Biso   1.000  H
  H9       1.0000 0.91843  0.00387  0.46347  Biso   1.000  H
  H10      1.0000 0.33720  0.75210  0.20320  Biso   1.000  H
  H11      1.0000 0.24790  0.58510  0.20320  Biso   1.000  H
  H12      1.0000 0.41490  0.66280  0.20320  Biso   1.000  H
  H13      1.0000 0.00387  0.08543  0.53653  Biso   1.000  H
  H14      1.0000 0.91457  0.91843  0.53653  Biso   1.000  H
  H15      1.0000 0.08157  0.99613  0.53653  Biso   1.000  H
  H16      1.0000 0.67053  0.41877  0.86987  Biso   1.000  H
  H17      1.0000 0.58123  0.25177  0.86987  Biso   1.000  H
  H18      1.0000 0.74823  0.32947  0.86987  Biso   1.000  H
  H19      1.0000 0.69500  0.30650  0.82680  Biso   1.000  H
  H20      1.0000 0.69350  0.38850  0.82680  Biso   1.000  H
  H21      1.0000 0.61150  0.30500  0.82680  Biso   1.000  H
  H22      1.0000 0.36167  0.63983  0.16013  Biso   1.000  H
  H23      1.0000 0.36017  0.72183  0.16013  Biso   1.000  H
  H24      1.0000 0.27817  0.63833  0.16013  Biso   1.000  H
  H25      1.0000 0.02833  0.97317  0.49347  Biso   1.000  H
  H26      1.0000 0.02683  0.05517  0.49347  Biso   1.000  H
  H27      1.0000 0.94483  0.97167  0.49347  Biso   1.000  H
  H28      1.0000 0.30500  0.69350  0.17320  Biso   1.000  H
  H29      1.0000 0.30650  0.61150  0.17320  Biso   1.000  H
  H30      1.0000 0.38850  0.69500  0.17320  Biso   1.000  H
  H31      1.0000 0.97167  0.02683  0.50653  Biso   1.000  H
  H32      1.0000 0.97317  0.94483  0.50653  Biso   1.000  H
  H33      1.0000 0.05517  0.02833  0.50653  Biso   1.000  H
  H34      1.0000 0.63833  0.36017  0.83987  Biso   1.000  H
  H35      1.0000 0.63983  0.27817  0.83987  Biso   1.000  H
  H36      1.0000 0.72183  0.36167  0.83987  Biso   1.000  H
  N1       1.0000 0.60776  0.56450  0.02656  Biso   1.000  N
  N2       1.0000 0.43550  0.04326  0.02656  Biso   1.000  N
  N3       1.0000 0.95674  0.39224  0.02656  Biso   1.000  N
  N4       1.0000 0.27443  0.89783  0.35989  Biso   1.000  N
  N5       1.0000 0.10217  0.37659  0.35989  Biso   1.000  N
  N6       1.0000 0.62341  0.72557  0.35989  Biso   1.000  N
  N7       1.0000 0.94109  0.23117  0.69323  Biso   1.000  N
  N8       1.0000 0.76883  0.70993  0.69323  Biso   1.000  N
  N9       1.0000 0.29007  0.05891  0.69323  Biso   1.000  N
  N10      1.0000 0.39224  0.43550  0.97344  Biso   1.000  N
  N11      1.0000 0.56450  0.95674  0.97344  Biso   1.000  N
  N12      1.0000 0.04326  0.60776  0.97344  Biso   1.000  N
  N13      1.0000 0.05891  0.76883  0.30677  Biso   1.000  N
  N14      1.0000 0.23117  0.29007  0.30677  Biso   1.000  N
  N15      1.0000 0.70993  0.94109  0.30677  Biso   1.000  N
  N16      1.0000 0.72557  0.10217  0.64011  Biso   1.000  N
  N17      1.0000 0.89783  0.62341  0.64011  Biso   1.000  N
  N18      1.0000 0.37659  0.27443  0.64011  Biso   1.000  N
  N19      1.0000 0.48716  0.32454  0.07350  Biso   1.000  N
  N20      1.0000 0.67546  0.16262  0.07350  Biso   1.000  N
  N21      1.0000 0.83738  0.51284  0.07350  Biso   1.000  N
  N22      1.0000 0.15383  0.65787  0.40683  Biso   1.000  N
  N23      1.0000 0.34213  0.49595  0.40683  Biso   1.000  N
  N24      1.0000 0.50405  0.84617  0.40683  Biso   1.000  N
  N25      1.0000 0.82049  0.99121  0.74017  Biso   1.000  N
  N26      1.0000 0.00879  0.82929  0.74017  Biso   1.000  N
  N27      1.0000 0.17071  0.17951  0.74017  Biso   1.000  N
  N28      1.0000 0.51284  0.67546  0.92650  Biso   1.000  N
  N29      1.0000 0.32454  0.83738  0.92650  Biso   1.000  N
  N30      1.0000 0.16262  0.48716  0.92650  Biso   1.000  N
  N31      1.0000 0.17951  0.00879  0.25983  Biso   1.000  N
  N32      1.0000 0.99121  0.17071  0.25983  Biso   1.000  N
  N33      1.0000 0.82929  0.82049  0.25983  Biso   1.000  N
  N34      1.0000 0.84617  0.34213  0.59317  Biso   1.000  N
  N35      1.0000 0.65787  0.50405  0.59317  Biso   1.000  N
  N36      1.0000 0.49595  0.15383  0.59317  Biso   1.000  N
  H37      1.0000 0.49490  0.29630  0.10180  Biso   1.000  H
  H38      1.0000 0.70370  0.19860  0.10180  Biso   1.000  H
  H39      1.0000 0.80140  0.50510  0.10180  Biso   1.000  H
  H40      1.0000 0.16157  0.62963  0.43513  Biso   1.000  H
  H41      1.0000 0.37037  0.53193  0.43513  Biso   1.000  H
  H42      1.0000 0.46807  0.83843  0.43513  Biso   1.000  H
  H43      1.0000 0.82823  0.96297  0.76847  Biso   1.000  H
  H44      1.0000 0.03703  0.86527  0.76847  Biso   1.000  H
  H45      1.0000 0.13473  0.17177  0.76847  Biso   1.000  H
  H46      1.0000 0.50510  0.70370  0.89820  Biso   1.000  H
  H47      1.0000 0.29630  0.80140  0.89820  Biso   1.000  H
  H48      1.0000 0.19860  0.49490  0.89820  Biso   1.000  H
  H49      1.0000 0.17177  0.03703  0.23153  Biso   1.000  H
  H50      1.0000 0.96297  0.13473  0.23153  Biso   1.000  H
  H51      1.0000 0.86527  0.82823  0.23153  Biso   1.000  H
  H52      1.0000 0.83843  0.37037  0.56487  Biso   1.000  H
  H53      1.0000 0.62963  0.46807  0.56487  Biso   1.000  H
  H54      1.0000 0.53193  0.16157  0.56487  Biso   1.000  H
  N37      1.0000 0.46989  0.47073  0.09653  Biso   1.000  N
  N38      1.0000 0.52927  0.99916  0.09653  Biso   1.000  N
  N39      1.0000 0.00084  0.53011  0.09653  Biso   1.000  N
  N40      1.0000 0.13656  0.80406  0.42986  Biso   1.000  N
  N41      1.0000 0.19594  0.33249  0.42986  Biso   1.000  N
  N42      1.0000 0.66751  0.86344  0.42986  Biso   1.000  N
  N43      1.0000 0.80322  0.13740  0.76320  Biso   1.000  N
  N44      1.0000 0.86260  0.66583  0.76320  Biso   1.000  N
  N45      1.0000 0.33417  0.19678  0.76320  Biso   1.000  N
  N46      1.0000 0.53011  0.52927  0.90347  Biso   1.000  N
  N47      1.0000 0.47073  0.00084  0.90347  Biso   1.000  N
  N48      1.0000 0.99916  0.46989  0.90347  Biso   1.000  N
  N49      1.0000 0.19678  0.86260  0.23680  Biso   1.000  N
  N50      1.0000 0.13740  0.33417  0.23680  Biso   1.000  N
  N51      1.0000 0.66583  0.80322  0.23680  Biso   1.000  N
  N52      1.0000 0.86344  0.19594  0.57014  Biso   1.000  N
  N53      1.0000 0.80406  0.66751  0.57014  Biso   1.000  N
  N54      1.0000 0.33249  0.13656  0.57014  Biso   1.000  N
  C1       1.0000 0.67368  0.59655  0.03110  Biso   1.000  C
  C2       1.0000 0.40345  0.07713  0.03110  Biso   1.000  C
  C3       1.0000 0.92287  0.32632  0.03110  Biso   1.000  C
  C4       1.0000 0.34035  0.92988  0.36443  Biso   1.000  C
  C5       1.0000 0.07012  0.41046  0.36443  Biso   1.000  C
  C6       1.0000 0.58954  0.65965  0.36443  Biso   1.000  C
  C7       1.0000 0.00701  0.26322  0.69777  Biso   1.000  C
  C8       1.0000 0.73678  0.74380  0.69777  Biso   1.000  C
  C9       1.0000 0.25620  0.99299  0.69777  Biso   1.000  C
  C10      1.0000 0.32632  0.40345  0.96890  Biso   1.000  C
  C11      1.0000 0.59655  0.92287  0.96890  Biso   1.000  C
  C12      1.0000 0.07713  0.67368  0.96890  Biso   1.000  C
  C13      1.0000 0.99299  0.73678  0.30223  Biso   1.000  C
  C14      1.0000 0.26322  0.25620  0.30223  Biso   1.000  C
  C15      1.0000 0.74380  0.00701  0.30223  Biso   1.000  C
  C16      1.0000 0.65965  0.07012  0.63557  Biso   1.000  C
  C17      1.0000 0.92988  0.58954  0.63557  Biso   1.000  C
  C18      1.0000 0.41046  0.34035  0.63557  Biso   1.000  C
  C19      1.0000 0.60404  0.34481  0.02454  Biso   1.000  C
  C20      1.0000 0.65519  0.25923  0.02454  Biso   1.000  C
  C21      1.0000 0.74077  0.39596  0.02454  Biso   1.000  C
  C22      1.0000 0.27071  0.67814  0.35787  Biso   1.000  C
  C23      1.0000 0.32186  0.59256  0.35787  Biso   1.000  C
  C24      1.0000 0.40744  0.72929  0.35787  Biso   1.000  C
  C25      1.0000 0.93737  0.01148  0.69121  Biso   1.000  C
  C26      1.0000 0.98852  0.92590  0.69121  Biso   1.000  C
  C27      1.0000 0.07410  0.06263  0.69121  Biso   1.000  C
  C28      1.0000 0.39596  0.65519  0.97546  Biso   1.000  C
  C29      1.0000 0.34481  0.74077  0.97546  Biso   1.000  C
  C30      1.0000 0.25923  0.60404  0.97546  Biso   1.000  C
  C31      1.0000 0.06263  0.98852  0.30879  Biso   1.000  C
  C32      1.0000 0.01148  0.07410  0.30879  Biso   1.000  C
  C33      1.0000 0.92590  0.93737  0.30879  Biso   1.000  C
  C34      1.0000 0.72929  0.32186  0.64213  Biso   1.000  C
  C35      1.0000 0.67814  0.40744  0.64213  Biso   1.000  C
  C36      1.0000 0.59256  0.27071  0.64213  Biso   1.000  C
  C37      1.0000 0.67814  0.40751  0.02452  Biso   1.000  C
  C38      1.0000 0.59249  0.27063  0.02452  Biso   1.000  C
  C39      1.0000 0.72937  0.32186  0.02452  Biso   1.000  C
  C40      1.0000 0.34481  0.74084  0.35785  Biso   1.000  C
  C41      1.0000 0.25916  0.60396  0.35785  Biso   1.000  C
  C42      1.0000 0.39604  0.65519  0.35785  Biso   1.000  C
  C43      1.0000 0.01147  0.07418  0.69119  Biso   1.000  C
  C44      1.0000 0.92582  0.93730  0.69119  Biso   1.000  C
  C45      1.0000 0.06270  0.98853  0.69119  Biso   1.000  C
  C46      1.0000 0.32186  0.59249  0.97548  Biso   1.000  C
  C47      1.0000 0.40751  0.72937  0.97548  Biso   1.000  C
  C48      1.0000 0.27063  0.67814  0.97548  Biso   1.000  C
  C49      1.0000 0.98853  0.92582  0.30881  Biso   1.000  C
  C50      1.0000 0.07418  0.06270  0.30881  Biso   1.000  C
  C51      1.0000 0.93730  0.01147  0.30881  Biso   1.000  C
  C52      1.0000 0.65519  0.25916  0.64215  Biso   1.000  C
  C53      1.0000 0.74084  0.39604  0.64215  Biso   1.000  C
  C54      1.0000 0.60396  0.34481  0.64215  Biso   1.000  C
  H55      1.0000 0.68600  0.45810  0.02450  Biso   1.000  H
  H56      1.0000 0.54190  0.22790  0.02450  Biso   1.000  H
  H57      1.0000 0.77210  0.31400  0.02450  Biso   1.000  H
  H58      1.0000 0.35267  0.79143  0.35783  Biso   1.000  H
  H59      1.0000 0.20857  0.56123  0.35783  Biso   1.000  H
  H60      1.0000 0.43877  0.64733  0.35783  Biso   1.000  H
  H61      1.0000 0.01933  0.12477  0.69117  Biso   1.000  H
  H62      1.0000 0.87523  0.89457  0.69117  Biso   1.000  H
  H63      1.0000 0.10543  0.98067  0.69117  Biso   1.000  H
  H64      1.0000 0.31400  0.54190  0.97550  Biso   1.000  H
  H65      1.0000 0.45810  0.77210  0.97550  Biso   1.000  H
  H66      1.0000 0.22790  0.68600  0.97550  Biso   1.000  H
  H67      1.0000 0.98067  0.87523  0.30883  Biso   1.000  H
  H68      1.0000 0.12477  0.10543  0.30883  Biso   1.000  H
  H69      1.0000 0.89457  0.01933  0.30883  Biso   1.000  H
  H70      1.0000 0.64733  0.20857  0.64217  Biso   1.000  H
  H71      1.0000 0.79143  0.43877  0.64217  Biso   1.000  H
  H72      1.0000 0.56123  0.35267  0.64217  Biso   1.000  H
  C55      1.0000 0.53760  0.35910  0.02612  Biso   1.000  C
  C56      1.0000 0.64090  0.17850  0.02612  Biso   1.000  C
  C57      1.0000 0.82150  0.46240  0.02612  Biso   1.000  C
  C58      1.0000 0.20427  0.69243  0.35945  Biso   1.000  C
  C59      1.0000 0.30757  0.51183  0.35945  Biso   1.000  C
  C60      1.0000 0.48817  0.79573  0.35945  Biso   1.000  C
  C61      1.0000 0.87093  0.02577  0.69279  Biso   1.000  C
  C62      1.0000 0.97423  0.84517  0.69279  Biso   1.000  C
  C63      1.0000 0.15483  0.12907  0.69279  Biso   1.000  C
  C64      1.0000 0.46240  0.64090  0.97388  Biso   1.000  C
  C65      1.0000 0.35910  0.82150  0.97388  Biso   1.000  C
  C66      1.0000 0.17850  0.53760  0.97388  Biso   1.000  C
  C67      1.0000 0.12907  0.97423  0.30721  Biso   1.000  C
  C68      1.0000 0.02577  0.15483  0.30721  Biso   1.000  C
  C69      1.0000 0.84517  0.87093  0.30721  Biso   1.000  C
  C70      1.0000 0.79573  0.30757  0.64055  Biso   1.000  C
  C71      1.0000 0.69243  0.48817  0.64055  Biso   1.000  C
  C72      1.0000 0.51183  0.20427  0.64055  Biso   1.000  C
  C73      1.0000 0.41903  0.33222  0.07981  Biso   1.000  C
  C74      1.0000 0.66778  0.08681  0.07981  Biso   1.000  C
  C75      1.0000 0.91319  0.58097  0.07981  Biso   1.000  C
  C76      1.0000 0.08570  0.66555  0.41314  Biso   1.000  C
  C77      1.0000 0.33445  0.42014  0.41314  Biso   1.000  C
  C78      1.0000 0.57986  0.91430  0.41314  Biso   1.000  C
  C79      1.0000 0.75236  0.99889  0.74648  Biso   1.000  C
  C80      1.0000 0.00111  0.75348  0.74648  Biso   1.000  C
  C81      1.0000 0.24652  0.24764  0.74648  Biso   1.000  C
  C82      1.0000 0.58097  0.66778  0.92019  Biso   1.000  C
  C83      1.0000 0.33222  0.91319  0.92019  Biso   1.000  C
  C84      1.0000 0.08681  0.41903  0.92019  Biso   1.000  C
  C85      1.0000 0.24764  0.00111  0.25352  Biso   1.000  C
  C86      1.0000 0.99889  0.24652  0.25352  Biso   1.000  C
  C87      1.0000 0.75348  0.75236  0.25352  Biso   1.000  C
  C88      1.0000 0.91430  0.33445  0.58686  Biso   1.000  C
  C89      1.0000 0.66555  0.57986  0.58686  Biso   1.000  C
  C90      1.0000 0.42014  0.08570  0.58686  Biso   1.000  C
  H73      1.0000 0.37680  0.28450  0.09870  Biso   1.000  H
  H74      1.0000 0.71550  0.09230  0.09870  Biso   1.000  H
  H75      1.0000 0.90770  0.62320  0.09870  Biso   1.000  H
  H76      1.0000 0.04347  0.61783  0.43203  Biso   1.000  H
  H77      1.0000 0.38217  0.42563  0.43203  Biso   1.000  H
  H78      1.0000 0.57437  0.95653  0.43203  Biso   1.000  H
  H79      1.0000 0.71013  0.95117  0.76537  Biso   1.000  H
  H80      1.0000 0.04883  0.75897  0.76537  Biso   1.000  H
  H81      1.0000 0.24103  0.28987  0.76537  Biso   1.000  H
  H82      1.0000 0.62320  0.71550  0.90130  Biso   1.000  H
  H83      1.0000 0.28450  0.90770  0.90130  Biso   1.000  H
  H84      1.0000 0.09230  0.37680  0.90130  Biso   1.000  H
  H85      1.0000 0.28987  0.04883  0.23463  Biso   1.000  H
  H86      1.0000 0.95117  0.24103  0.23463  Biso   1.000  H
  H87      1.0000 0.75897  0.71013  0.23463  Biso   1.000  H
  H88      1.0000 0.95653  0.38217  0.56797  Biso   1.000  H
  H89      1.0000 0.61783  0.57437  0.56797  Biso   1.000  H
  H90      1.0000 0.42563  0.04347  0.56797  Biso   1.000  H
  H91      1.0000 0.40270  0.33900  0.03610  Biso   1.000  H
  H92      1.0000 0.66100  0.06370  0.03610  Biso   1.000  H
  H93      1.0000 0.93630  0.59730  0.03610  Biso   1.000  H
  H94      1.0000 0.06937  0.67233  0.36943  Biso   1.000  H
  H95      1.0000 0.32767  0.39703  0.36943  Biso   1.000  H
  H96      1.0000 0.60297  0.93063  0.36943  Biso   1.000  H
  H97      1.0000 0.73603  0.00567  0.70277  Biso   1.000  H
  H98      1.0000 0.99433  0.73037  0.70277  Biso   1.000  H
  H99      1.0000 0.26963  0.26397  0.70277  Biso   1.000  H
  H100     1.0000 0.59730  0.66100  0.96390  Biso   1.000  H
  H101     1.0000 0.33900  0.93630  0.96390  Biso   1.000  H
  H102     1.0000 0.06370  0.40270  0.96390  Biso   1.000  H
  H103     1.0000 0.26397  0.99433  0.29723  Biso   1.000  H
  H104     1.0000 0.00567  0.26963  0.29723  Biso   1.000  H
  H105     1.0000 0.73037  0.73603  0.29723  Biso   1.000  H
  H106     1.0000 0.93063  0.32767  0.63057  Biso   1.000  H
  H107     1.0000 0.67233  0.60297  0.63057  Biso   1.000  H
  H108     1.0000 0.39703  0.06937  0.63057  Biso   1.000  H
  C91      1.0000 0.43326  0.39932  0.12214  Biso   1.000  C
  C92      1.0000 0.60068  0.03394  0.12214  Biso   1.000  C
  C93      1.0000 0.96606  0.56674  0.12214  Biso   1.000  C
  C94      1.0000 0.09993  0.73265  0.45547  Biso   1.000  C
  C95      1.0000 0.26735  0.36727  0.45547  Biso   1.000  C
  C96      1.0000 0.63273  0.90007  0.45547  Biso   1.000  C
  C97      1.0000 0.76659  0.06599  0.78881  Biso   1.000  C
  C98      1.0000 0.93401  0.70061  0.78881  Biso   1.000  C
  C99      1.0000 0.29939  0.23341  0.78881  Biso   1.000  C
  C100     1.0000 0.56674  0.60068  0.87786  Biso   1.000  C
  C101     1.0000 0.39932  0.96606  0.87786  Biso   1.000  C
  C102     1.0000 0.03394  0.43326  0.87786  Biso   1.000  C
  C103     1.0000 0.23341  0.93401  0.21119  Biso   1.000  C
  C104     1.0000 0.06599  0.29939  0.21119  Biso   1.000  C
  C105     1.0000 0.70061  0.76659  0.21119  Biso   1.000  C
  C106     1.0000 0.90007  0.26735  0.54453  Biso   1.000  C
  C107     1.0000 0.73265  0.63273  0.54453  Biso   1.000  C
  C108     1.0000 0.36727  0.09993  0.54453  Biso   1.000  C
  C109     1.0000 0.41120  0.38790  0.18690  Biso   1.000  C
  C110     1.0000 0.61210  0.02330  0.18690  Biso   1.000  C
  C111     1.0000 0.97670  0.58880  0.18690  Biso   1.000  C
  C112     1.0000 0.07787  0.72123  0.52023  Biso   1.000  C
  C113     1.0000 0.27877  0.35663  0.52023  Biso   1.000  C
  C114     1.0000 0.64337  0.92213  0.52023  Biso   1.000  C
  C115     1.0000 0.74453  0.05457  0.85357  Biso   1.000  C
  C116     1.0000 0.94543  0.68997  0.85357  Biso   1.000  C
  C117     1.0000 0.31003  0.25547  0.85357  Biso   1.000  C
  C118     1.0000 0.58880  0.61210  0.81310  Biso   1.000  C
  C119     1.0000 0.38790  0.97670  0.81310  Biso   1.000  C
  C120     1.0000 0.02330  0.41120  0.81310  Biso   1.000  C
  C121     1.0000 0.25547  0.94543  0.14643  Biso   1.000  C
  C122     1.0000 0.05457  0.31003  0.14643  Biso   1.000  C
  C123     1.0000 0.68997  0.74453  0.14643  Biso   1.000  C
  C124     1.0000 0.92213  0.27877  0.47977  Biso   1.000  C
  C125     1.0000 0.72123  0.64337  0.47977  Biso   1.000  C
  C126     1.0000 0.35663  0.07787  0.47977  Biso   1.000  C
  H109     1.0000 0.38510  0.33740  0.20410  Biso   1.000  H
  H110     1.0000 0.66260  0.04770  0.20410  Biso   1.000  H
  H111     1.0000 0.95230  0.61490  0.20410  Biso   1.000  H
  H112     1.0000 0.05177  0.67073  0.53743  Biso   1.000  H
  H113     1.0000 0.32927  0.38103  0.53743  Biso   1.000  H
  H114     1.0000 0.61897  0.94823  0.53743  Biso   1.000  H
  H115     1.0000 0.71843  0.00407  0.87077  Biso   1.000  H
  H116     1.0000 0.99593  0.71437  0.87077  Biso   1.000  H
  H117     1.0000 0.28563  0.28157  0.87077  Biso   1.000  H
  H118     1.0000 0.61490  0.66260  0.79590  Biso   1.000  H
  H119     1.0000 0.33740  0.95230  0.79590  Biso   1.000  H
  H120     1.0000 0.04770  0.38510  0.79590  Biso   1.000  H
  H121     1.0000 0.28157  0.99593  0.12923  Biso   1.000  H
  H122     1.0000 0.00407  0.28563  0.12923  Biso   1.000  H
  H123     1.0000 0.71437  0.71843  0.12923  Biso   1.000  H
  H124     1.0000 0.94823  0.32927  0.46257  Biso   1.000  H
  H125     1.0000 0.67073  0.61897  0.46257  Biso   1.000  H
  H126     1.0000 0.38103  0.05177  0.46257  Biso   1.000  H
  C127     1.0000 0.42640  0.44870  0.22620  Biso   1.000  C
  C128     1.0000 0.55130  0.97770  0.22620  Biso   1.000  C
  C129     1.0000 0.02230  0.57360  0.22620  Biso   1.000  C
  C130     1.0000 0.09307  0.78203  0.55953  Biso   1.000  C
  C131     1.0000 0.21797  0.31103  0.55953  Biso   1.000  C
  C132     1.0000 0.68897  0.90693  0.55953  Biso   1.000  C
  C133     1.0000 0.75973  0.11537  0.89287  Biso   1.000  C
  C134     1.0000 0.88463  0.64437  0.89287  Biso   1.000  C
  C135     1.0000 0.35563  0.24027  0.89287  Biso   1.000  C
  C136     1.0000 0.57360  0.55130  0.77380  Biso   1.000  C
  C137     1.0000 0.44870  0.02230  0.77380  Biso   1.000  C
  C138     1.0000 0.97770  0.42640  0.77380  Biso   1.000  C
  C139     1.0000 0.24027  0.88463  0.10713  Biso   1.000  C
  C140     1.0000 0.11537  0.35563  0.10713  Biso   1.000  C
  C141     1.0000 0.64437  0.75973  0.10713  Biso   1.000  C
  C142     1.0000 0.90693  0.21797  0.44047  Biso   1.000  C
  C143     1.0000 0.78203  0.68897  0.44047  Biso   1.000  C
  C144     1.0000 0.31103  0.09307  0.44047  Biso   1.000  C
  H127     1.0000 0.41080  0.44060  0.27050  Biso   1.000  H
  H128     1.0000 0.55940  0.97020  0.27050  Biso   1.000  H
  H129     1.0000 0.02980  0.58920  0.27050  Biso   1.000  H
  H130     1.0000 0.07747  0.77393  0.60383  Biso   1.000  H
  H131     1.0000 0.22607  0.30353  0.60383  Biso   1.000  H
  H132     1.0000 0.69647  0.92253  0.60383  Biso   1.000  H
  H133     1.0000 0.74413  0.10727  0.93717  Biso   1.000  H
  H134     1.0000 0.89273  0.63687  0.93717  Biso   1.000  H
  H135     1.0000 0.36313  0.25587  0.93717  Biso   1.000  H
  H136     1.0000 0.58920  0.55940  0.72950  Biso   1.000  H
  H137     1.0000 0.44060  0.02980  0.72950  Biso   1.000  H
  H138     1.0000 0.97020  0.41080  0.72950  Biso   1.000  H
  H139     1.0000 0.25587  0.89273  0.06283  Biso   1.000  H
  H140     1.0000 0.10727  0.36313  0.06283  Biso   1.000  H
  H141     1.0000 0.63687  0.74413  0.06283  Biso   1.000  H
  H142     1.0000 0.92253  0.22607  0.39617  Biso   1.000  H
  H143     1.0000 0.77393  0.69647  0.39617  Biso   1.000  H
  H144     1.0000 0.30353  0.07747  0.39617  Biso   1.000  H
  C145     1.0000 0.46500  0.52190  0.20069  Biso   1.000  C
  C146     1.0000 0.47810  0.94310  0.20069  Biso   1.000  C
  C147     1.0000 0.05690  0.53500  0.20069  Biso   1.000  C
  C148     1.0000 0.13167  0.85523  0.53402  Biso   1.000  C
  C149     1.0000 0.14477  0.27643  0.53402  Biso   1.000  C
  C150     1.0000 0.72357  0.86833  0.53402  Biso   1.000  C
  C151     1.0000 0.79833  0.18857  0.86736  Biso   1.000  C
  C152     1.0000 0.81143  0.60977  0.86736  Biso   1.000  C
  C153     1.0000 0.39023  0.20167  0.86736  Biso   1.000  C
  C154     1.0000 0.53500  0.47810  0.79931  Biso   1.000  C
  C155     1.0000 0.52190  0.05690  0.79931  Biso   1.000  C
  C156     1.0000 0.94310  0.46500  0.79931  Biso   1.000  C
  C157     1.0000 0.20167  0.81143  0.13264  Biso   1.000  C
  C158     1.0000 0.18857  0.39023  0.13264  Biso   1.000  C
  C159     1.0000 0.60977  0.79833  0.13264  Biso   1.000  C
  C160     1.0000 0.86833  0.14477  0.46598  Biso   1.000  C
  C161     1.0000 0.85523  0.72357  0.46598  Biso   1.000  C
  C162     1.0000 0.27643  0.13167  0.46598  Biso   1.000  C
  H145     1.0000 0.47690  0.56530  0.22700  Biso   1.000  H
  H146     1.0000 0.43470  0.91160  0.22700  Biso   1.000  H
  H147     1.0000 0.08840  0.52310  0.22700  Biso   1.000  H
  H148     1.0000 0.14357  0.89863  0.56033  Biso   1.000  H
  H149     1.0000 0.10137  0.24493  0.56033  Biso   1.000  H
  H150     1.0000 0.75507  0.85643  0.56033  Biso   1.000  H
  H151     1.0000 0.81023  0.23197  0.89367  Biso   1.000  H
  H152     1.0000 0.76803  0.57827  0.89367  Biso   1.000  H
  H153     1.0000 0.42173  0.18977  0.89367  Biso   1.000  H
  H154     1.0000 0.52310  0.43470  0.77300  Biso   1.000  H
  H155     1.0000 0.56530  0.08840  0.77300  Biso   1.000  H
  H156     1.0000 0.91160  0.47690  0.77300  Biso   1.000  H
  H157     1.0000 0.18977  0.76803  0.10633  Biso   1.000  H
  H158     1.0000 0.23197  0.42173  0.10633  Biso   1.000  H
  H159     1.0000 0.57827  0.81023  0.10633  Biso   1.000  H
  H160     1.0000 0.85643  0.10137  0.43967  Biso   1.000  H
  H161     1.0000 0.89863  0.75507  0.43967  Biso   1.000  H
  H162     1.0000 0.24493  0.14357  0.43967  Biso   1.000  H
  C163     1.0000 0.48600  0.53060  0.13556  Biso   1.000  C
  C164     1.0000 0.46940  0.95540  0.13556  Biso   1.000  C
  C165     1.0000 0.04460  0.51400  0.13556  Biso   1.000  C
  C166     1.0000 0.15267  0.86393  0.46889  Biso   1.000  C
  C167     1.0000 0.13607  0.28873  0.46889  Biso   1.000  C
  C168     1.0000 0.71127  0.84733  0.46889  Biso   1.000  C
  C169     1.0000 0.81933  0.19727  0.80223  Biso   1.000  C
  C170     1.0000 0.80273  0.62207  0.80223  Biso   1.000  C
  C171     1.0000 0.37793  0.18067  0.80223  Biso   1.000  C
  C172     1.0000 0.51400  0.46940  0.86444  Biso   1.000  C
  C173     1.0000 0.53060  0.04460  0.86444  Biso   1.000  C
  C174     1.0000 0.95540  0.48600  0.86444  Biso   1.000  C
  C175     1.0000 0.18067  0.80273  0.19777  Biso   1.000  C
  C176     1.0000 0.19727  0.37793  0.19777  Biso   1.000  C
  C177     1.0000 0.62207  0.81933  0.19777  Biso   1.000  C
  C178     1.0000 0.84733  0.13607  0.53111  Biso   1.000  C
  C179     1.0000 0.86393  0.71127  0.53111  Biso   1.000  C
  C180     1.0000 0.28873  0.15267  0.53111  Biso   1.000  C
  H163     1.0000 0.51280  0.58090  0.11780  Biso   1.000  H
  H164     1.0000 0.41910  0.93190  0.11780  Biso   1.000  H
  H165     1.0000 0.06810  0.48720  0.11780  Biso   1.000  H
  H166     1.0000 0.17947  0.91423  0.45113  Biso   1.000  H
  H167     1.0000 0.08577  0.26523  0.45113  Biso   1.000  H
  H168     1.0000 0.73477  0.82053  0.45113  Biso   1.000  H
  H169     1.0000 0.84613  0.24757  0.78447  Biso   1.000  H
  H170     1.0000 0.75243  0.59857  0.78447  Biso   1.000  H
  H171     1.0000 0.40143  0.15387  0.78447  Biso   1.000  H
  H172     1.0000 0.48720  0.41910  0.88220  Biso   1.000  H
  H173     1.0000 0.58090  0.06810  0.88220  Biso   1.000  H
  H174     1.0000 0.93190  0.51280  0.88220  Biso   1.000  H
  H175     1.0000 0.15387  0.75243  0.21553  Biso   1.000  H
  H176     1.0000 0.24757  0.40143  0.21553  Biso   1.000  H
  H177     1.0000 0.59857  0.84613  0.21553  Biso   1.000  H
  H178     1.0000 0.82053  0.08577  0.54887  Biso   1.000  H
  H179     1.0000 0.91423  0.73477  0.54887  Biso   1.000  H
  H180     1.0000 0.26523  0.17947  0.54887  Biso   1.000  H
  C181     1.0000 0.58140  0.15770  0.43470  Biso   1.000  C
  C182     1.0000 0.84230  0.42370  0.43470  Biso   1.000  C
  C183     1.0000 0.57630  0.41860  0.43470  Biso   1.000  C
  C184     1.0000 0.24807  0.49103  0.76803  Biso   1.000  C
  C185     1.0000 0.50897  0.75703  0.76803  Biso   1.000  C
  C186     1.0000 0.24297  0.75193  0.76803  Biso   1.000  C
  C187     1.0000 0.91473  0.82437  0.10137  Biso   1.000  C
  C188     1.0000 0.17563  0.09037  0.10137  Biso   1.000  C
  C189     1.0000 0.90963  0.08527  0.10137  Biso   1.000  C
  C190     1.0000 0.41860  0.84230  0.56530  Biso   1.000  C
  C191     1.0000 0.15770  0.57630  0.56530  Biso   1.000  C
  C192     1.0000 0.42370  0.58140  0.56530  Biso   1.000  C
  C193     1.0000 0.08527  0.17563  0.89863  Biso   1.000  C
  C194     1.0000 0.82437  0.90963  0.89863  Biso   1.000  C
  C195     1.0000 0.09037  0.91473  0.89863  Biso   1.000  C
  C196     1.0000 0.75193  0.50897  0.23197  Biso   1.000  C
  C197     1.0000 0.49103  0.24297  0.23197  Biso   1.000  C
  C198     1.0000 0.75703  0.24807  0.23197  Biso   1.000  C
  H181     1.0000 0.57330  0.19620  0.41130  Biso   1.000  H
  H182     1.0000 0.80380  0.37710  0.41130  Biso   1.000  H
  H183     1.0000 0.62290  0.42670  0.41130  Biso   1.000  H
  H184     1.0000 0.23997  0.52953  0.74463  Biso   1.000  H
  H185     1.0000 0.47047  0.71043  0.74463  Biso   1.000  H
  H186     1.0000 0.28957  0.76003  0.74463  Biso   1.000  H
  H187     1.0000 0.90663  0.86287  0.07797  Biso   1.000  H
  H188     1.0000 0.13713  0.04377  0.07797  Biso   1.000  H
  H189     1.0000 0.95623  0.09337  0.07797  Biso   1.000  H
  H190     1.0000 0.42670  0.80380  0.58870  Biso   1.000  H
  H191     1.0000 0.19620  0.62290  0.58870  Biso   1.000  H
  H192     1.0000 0.37710  0.57330  0.58870  Biso   1.000  H
  H193     1.0000 0.09337  0.13713  0.92203  Biso   1.000  H
  H194     1.0000 0.86287  0.95623  0.92203  Biso   1.000  H
  H195     1.0000 0.04377  0.90663  0.92203  Biso   1.000  H
  H196     1.0000 0.76003  0.47047  0.25537  Biso   1.000  H
  H197     1.0000 0.52953  0.28957  0.25537  Biso   1.000  H
  H198     1.0000 0.71043  0.23997  0.25537  Biso   1.000  H
  H199     1.0000 0.53120  0.10990  0.43840  Biso   1.000  H
  H200     1.0000 0.89010  0.42130  0.43840  Biso   1.000  H
  H201     1.0000 0.57870  0.46880  0.43840  Biso   1.000  H
  H202     1.0000 0.19787  0.44323  0.77173  Biso   1.000  H
  H203     1.0000 0.55677  0.75463  0.77173  Biso   1.000  H
  H204     1.0000 0.24537  0.80213  0.77173  Biso   1.000  H
  H205     1.0000 0.86453  0.77657  0.10507  Biso   1.000  H
  H206     1.0000 0.22343  0.08797  0.10507  Biso   1.000  H
  H207     1.0000 0.91203  0.13547  0.10507  Biso   1.000  H
  H208     1.0000 0.46880  0.89010  0.56160  Biso   1.000  H
  H209     1.0000 0.10990  0.57870  0.56160  Biso   1.000  H
  H210     1.0000 0.42130  0.53120  0.56160  Biso   1.000  H
  H211     1.0000 0.13547  0.22343  0.89493  Biso   1.000  H
  H212     1.0000 0.77657  0.91203  0.89493  Biso   1.000  H
  H213     1.0000 0.08797  0.86453  0.89493  Biso   1.000  H
  H214     1.0000 0.80213  0.55677  0.22827  Biso   1.000  H
  H215     1.0000 0.44323  0.24537  0.22827  Biso   1.000  H
  H216     1.0000 0.75463  0.19787  0.22827  Biso   1.000  H
  C199     1.0000 0.60040  0.11740  0.46010  Biso   1.000  C
  C200     1.0000 0.88260  0.48300  0.46010  Biso   1.000  C
  C201     1.0000 0.51700  0.39960  0.46010  Biso   1.000  C
  C202     1.0000 0.26707  0.45073  0.79343  Biso   1.000  C
  C203     1.0000 0.54927  0.81633  0.79343  Biso   1.000  C
  C204     1.0000 0.18367  0.73293  0.79343  Biso   1.000  C
  C205     1.0000 0.93373  0.78407  0.12677  Biso   1.000  C
  C206     1.0000 0.21593  0.14967  0.12677  Biso   1.000  C
  C207     1.0000 0.85033  0.06627  0.12677  Biso   1.000  C
  C208     1.0000 0.39960  0.88260  0.53990  Biso   1.000  C
  C209     1.0000 0.11740  0.51700  0.53990  Biso   1.000  C
  C210     1.0000 0.48300  0.60040  0.53990  Biso   1.000  C
  C211     1.0000 0.06627  0.21593  0.87323  Biso   1.000  C
  C212     1.0000 0.78407  0.85033  0.87323  Biso   1.000  C
  C213     1.0000 0.14967  0.93373  0.87323  Biso   1.000  C
  C214     1.0000 0.73293  0.54927  0.20657  Biso   1.000  C
  C215     1.0000 0.45073  0.18367  0.20657  Biso   1.000  C
  C216     1.0000 0.81633  0.26707  0.20657  Biso   1.000  C
  H217     1.0000 0.54560  0.07810  0.45500  Biso   1.000  H
  H218     1.0000 0.92190  0.46750  0.45500  Biso   1.000  H
  H219     1.0000 0.53250  0.45440  0.45500  Biso   1.000  H
  H220     1.0000 0.21227  0.41143  0.78833  Biso   1.000  H
  H221     1.0000 0.58857  0.80083  0.78833  Biso   1.000  H
  H222     1.0000 0.19917  0.78773  0.78833  Biso   1.000  H
  H223     1.0000 0.87893  0.74477  0.12167  Biso   1.000  H
  H224     1.0000 0.25523  0.13417  0.12167  Biso   1.000  H
  H225     1.0000 0.86583  0.12107  0.12167  Biso   1.000  H
  H226     1.0000 0.45440  0.92190  0.54500  Biso   1.000  H
  H227     1.0000 0.07810  0.53250  0.54500  Biso   1.000  H
  H228     1.0000 0.46750  0.54560  0.54500  Biso   1.000  H
  H229     1.0000 0.12107  0.25523  0.87833  Biso   1.000  H
  H230     1.0000 0.74477  0.86583  0.87833  Biso   1.000  H
  H231     1.0000 0.13417  0.87893  0.87833  Biso   1.000  H
  H232     1.0000 0.78773  0.58857  0.21167  Biso   1.000  H
  H233     1.0000 0.41143  0.19917  0.21167  Biso   1.000  H
  H234     1.0000 0.80083  0.21227  0.21167  Biso   1.000  H
  H235     1.0000 0.62600  0.09520  0.48600  Biso   1.000  H
  H236     1.0000 0.90480  0.53080  0.48600  Biso   1.000  H
  H237     1.0000 0.46920  0.37400  0.48600  Biso   1.000  H
  H238     1.0000 0.29267  0.42853  0.81933  Biso   1.000  H
  H239     1.0000 0.57147  0.86413  0.81933  Biso   1.000  H
  H240     1.0000 0.13587  0.70733  0.81933  Biso   1.000  H
  H241     1.0000 0.95933  0.76187  0.15267  Biso   1.000  H
  H242     1.0000 0.23813  0.19747  0.15267  Biso   1.000  H
  H243     1.0000 0.80253  0.04067  0.15267  Biso   1.000  H
  H244     1.0000 0.37400  0.90480  0.51400  Biso   1.000  H
  H245     1.0000 0.09520  0.46920  0.51400  Biso   1.000  H
  H246     1.0000 0.53080  0.62600  0.51400  Biso   1.000  H
  H247     1.0000 0.04067  0.23813  0.84733  Biso   1.000  H
  H248     1.0000 0.76187  0.80253  0.84733  Biso   1.000  H
  H249     1.0000 0.19747  0.95933  0.84733  Biso   1.000  H
  H250     1.0000 0.70733  0.57147  0.18067  Biso   1.000  H
  H251     1.0000 0.42853  0.13587  0.18067  Biso   1.000  H
  H252     1.0000 0.86413  0.29267  0.18067  Biso   1.000  H
  C217     1.0000 0.63690  0.14210  0.39670  Biso   1.000  C
  C218     1.0000 0.85790  0.49480  0.39670  Biso   1.000  C
  C219     1.0000 0.50520  0.36310  0.39670  Biso   1.000  C
  C220     1.0000 0.30357  0.47543  0.73003  Biso   1.000  C
  C221     1.0000 0.52457  0.82813  0.73003  Biso   1.000  C
  C222     1.0000 0.17187  0.69643  0.73003  Biso   1.000  C
  C223     1.0000 0.97023  0.80877  0.06337  Biso   1.000  C
  C224     1.0000 0.19123  0.16147  0.06337  Biso   1.000  C
  C225     1.0000 0.83853  0.02977  0.06337  Biso   1.000  C
  C226     1.0000 0.36310  0.85790  0.60330  Biso   1.000  C
  C227     1.0000 0.14210  0.50520  0.60330  Biso   1.000  C
  C228     1.0000 0.49480  0.63690  0.60330  Biso   1.000  C
  C229     1.0000 0.02977  0.19123  0.93663  Biso   1.000  C
  C230     1.0000 0.80877  0.83853  0.93663  Biso   1.000  C
  C231     1.0000 0.16147  0.97023  0.93663  Biso   1.000  C
  C232     1.0000 0.69643  0.52457  0.26997  Biso   1.000  C
  C233     1.0000 0.47543  0.17187  0.26997  Biso   1.000  C
  C234     1.0000 0.82813  0.30357  0.26997  Biso   1.000  C
  H253     1.0000 0.61140  0.08810  0.38190  Biso   1.000  H
  H254     1.0000 0.91190  0.52330  0.38190  Biso   1.000  H
  H255     1.0000 0.47670  0.38860  0.38190  Biso   1.000  H
  H256     1.0000 0.27807  0.42143  0.71523  Biso   1.000  H
  H257     1.0000 0.57857  0.85663  0.71523  Biso   1.000  H
  H258     1.0000 0.14337  0.72193  0.71523  Biso   1.000  H
  H259     1.0000 0.94473  0.75477  0.04857  Biso   1.000  H
  H260     1.0000 0.24523  0.18997  0.04857  Biso   1.000  H
  H261     1.0000 0.81003  0.05527  0.04857  Biso   1.000  H
  H262     1.0000 0.38860  0.91190  0.61810  Biso   1.000  H
  H263     1.0000 0.08810  0.47670  0.61810  Biso   1.000  H
  H264     1.0000 0.52330  0.61140  0.61810  Biso   1.000  H
  H265     1.0000 0.05527  0.24523  0.95143  Biso   1.000  H
  H266     1.0000 0.75477  0.81003  0.95143  Biso   1.000  H
  H267     1.0000 0.18997  0.94473  0.95143  Biso   1.000  H
  H268     1.0000 0.72193  0.57857  0.28477  Biso   1.000  H
  H269     1.0000 0.42143  0.14337  0.28477  Biso   1.000  H
  H270     1.0000 0.85663  0.27807  0.28477  Biso   1.000  H
  H271     1.0000 0.65690  0.17620  0.35820  Biso   1.000  H
  H272     1.0000 0.82380  0.48070  0.35820  Biso   1.000  H
  H273     1.0000 0.51930  0.34310  0.35820  Biso   1.000  H
  H274     1.0000 0.32357  0.50953  0.69153  Biso   1.000  H
  H275     1.0000 0.49047  0.81403  0.69153  Biso   1.000  H
  H276     1.0000 0.18597  0.67643  0.69153  Biso   1.000  H
  H277     1.0000 0.99023  0.84287  0.02487  Biso   1.000  H
  H278     1.0000 0.15713  0.14737  0.02487  Biso   1.000  H
  H279     1.0000 0.85263  0.00977  0.02487  Biso   1.000  H
  H280     1.0000 0.34310  0.82380  0.64180  Biso   1.000  H
  H281     1.0000 0.17620  0.51930  0.64180  Biso   1.000  H
  H282     1.0000 0.48070  0.65690  0.64180  Biso   1.000  H
  H283     1.0000 0.00977  0.15713  0.97513  Biso   1.000  H
  H284     1.0000 0.84287  0.85263  0.97513  Biso   1.000  H
  H285     1.0000 0.14737  0.99023  0.97513  Biso   1.000  H
  H286     1.0000 0.67643  0.49047  0.30847  Biso   1.000  H
  H287     1.0000 0.50953  0.18597  0.30847  Biso   1.000  H
  H288     1.0000 0.81403  0.32357  0.30847  Biso   1.000  H
  H289     1.0000 0.60520  0.15150  0.36530  Biso   1.000  H
  H290     1.0000 0.84850  0.45370  0.36530  Biso   1.000  H
  H291     1.0000 0.54630  0.39480  0.36530  Biso   1.000  H
  H292     1.0000 0.27187  0.48483  0.69863  Biso   1.000  H
  H293     1.0000 0.51517  0.78703  0.69863  Biso   1.000  H
  H294     1.0000 0.21297  0.72813  0.69863  Biso   1.000  H
  H295     1.0000 0.93853  0.81817  0.03197  Biso   1.000  H
  H296     1.0000 0.18183  0.12037  0.03197  Biso   1.000  H
  H297     1.0000 0.87963  0.06147  0.03197  Biso   1.000  H
  H298     1.0000 0.39480  0.84850  0.63470  Biso   1.000  H
  H299     1.0000 0.15150  0.54630  0.63470  Biso   1.000  H
  H300     1.0000 0.45370  0.60520  0.63470  Biso   1.000  H
  H301     1.0000 0.06147  0.18183  0.96803  Biso   1.000  H
  H302     1.0000 0.81817  0.87963  0.96803  Biso   1.000  H
  H303     1.0000 0.12037  0.93853  0.96803  Biso   1.000  H
  H304     1.0000 0.72813  0.51517  0.30137  Biso   1.000  H
  H305     1.0000 0.48483  0.21297  0.30137  Biso   1.000  H
  H306     1.0000 0.78703  0.27187  0.30137  Biso   1.000  H
  H307     1.0000 0.65190  0.10620  0.37780  Biso   1.000  H
  H308     1.0000 0.89380  0.54570  0.37780  Biso   1.000  H
  H309     1.0000 0.45430  0.34810  0.37780  Biso   1.000  H
  H310     1.0000 0.31857  0.43953  0.71113  Biso   1.000  H
  H311     1.0000 0.56047  0.87903  0.71113  Biso   1.000  H
  H312     1.0000 0.12097  0.68143  0.71113  Biso   1.000  H
  H313     1.0000 0.98523  0.77287  0.04447  Biso   1.000  H
  H314     1.0000 0.22713  0.21237  0.04447  Biso   1.000  H
  H315     1.0000 0.78763  0.01477  0.04447  Biso   1.000  H
  H316     1.0000 0.34810  0.89380  0.62220  Biso   1.000  H
  H317     1.0000 0.10620  0.45430  0.62220  Biso   1.000  H
  H318     1.0000 0.54570  0.65190  0.62220  Biso   1.000  H
  H319     1.0000 0.01477  0.22713  0.95553  Biso   1.000  H
  H320     1.0000 0.77287  0.78763  0.95553  Biso   1.000  H
  H321     1.0000 0.21237  0.98523  0.95553  Biso   1.000  H
  H322     1.0000 0.68143  0.56047  0.28887  Biso   1.000  H
  H323     1.0000 0.43953  0.12097  0.28887  Biso   1.000  H
  H324     1.0000 0.87903  0.31857  0.28887  Biso   1.000  H
  C235     1.0000 0.69200  0.15630  0.43740  Biso   1.000  C
  C236     1.0000 0.84370  0.53570  0.43740  Biso   1.000  C
  C237     1.0000 0.46430  0.30800  0.43740  Biso   1.000  C
  C238     1.0000 0.35867  0.48963  0.77073  Biso   1.000  C
  C239     1.0000 0.51037  0.86903  0.77073  Biso   1.000  C
  C240     1.0000 0.13097  0.64133  0.77073  Biso   1.000  C
  C241     1.0000 0.02533  0.82297  0.10407  Biso   1.000  C
  C242     1.0000 0.17703  0.20237  0.10407  Biso   1.000  C
  C243     1.0000 0.79763  0.97467  0.10407  Biso   1.000  C
  C244     1.0000 0.30800  0.84370  0.56260  Biso   1.000  C
  C245     1.0000 0.15630  0.46430  0.56260  Biso   1.000  C
  C246     1.0000 0.53570  0.69200  0.56260  Biso   1.000  C
  C247     1.0000 0.97467  0.17703  0.89593  Biso   1.000  C
  C248     1.0000 0.82297  0.79763  0.89593  Biso   1.000  C
  C249     1.0000 0.20237  0.02533  0.89593  Biso   1.000  C
  C250     1.0000 0.64133  0.51037  0.22927  Biso   1.000  C
  C251     1.0000 0.48963  0.13097  0.22927  Biso   1.000  C
  C252     1.0000 0.86903  0.35867  0.22927  Biso   1.000  C
  H325     1.0000 0.74230  0.18740  0.41570  Biso   1.000  H
  H326     1.0000 0.81260  0.55490  0.41570  Biso   1.000  H
  H327     1.0000 0.44510  0.25770  0.41570  Biso   1.000  H
  H328     1.0000 0.40897  0.52073  0.74903  Biso   1.000  H
  H329     1.0000 0.47927  0.88823  0.74903  Biso   1.000  H
  H330     1.0000 0.11177  0.59103  0.74903  Biso   1.000  H
  H331     1.0000 0.07563  0.85407  0.08237  Biso   1.000  H
  H332     1.0000 0.14593  0.22157  0.08237  Biso   1.000  H
  H333     1.0000 0.77843  0.92437  0.08237  Biso   1.000  H
  H334     1.0000 0.25770  0.81260  0.58430  Biso   1.000  H
  H335     1.0000 0.18740  0.44510  0.58430  Biso   1.000  H
  H336     1.0000 0.55490  0.74230  0.58430  Biso   1.000  H
  H337     1.0000 0.92437  0.14593  0.91763  Biso   1.000  H
  H338     1.0000 0.85407  0.77843  0.91763  Biso   1.000  H
  H339     1.0000 0.22157  0.07563  0.91763  Biso   1.000  H
  H340     1.0000 0.59103  0.47927  0.25097  Biso   1.000  H
  H341     1.0000 0.52073  0.11177  0.25097  Biso   1.000  H
  H342     1.0000 0.88823  0.40897  0.25097  Biso   1.000  H
  H343     1.0000 0.68810  0.10740  0.45170  Biso   1.000  H
  H344     1.0000 0.89260  0.58070  0.45170  Biso   1.000  H
  H345     1.0000 0.41930  0.31190  0.45170  Biso   1.000  H
  H346     1.0000 0.35477  0.44073  0.78503  Biso   1.000  H
  H347     1.0000 0.55927  0.91403  0.78503  Biso   1.000  H
  H348     1.0000 0.08597  0.64523  0.78503  Biso   1.000  H
  H349     1.0000 0.02143  0.77407  0.11837  Biso   1.000  H
  H350     1.0000 0.22593  0.24737  0.11837  Biso   1.000  H
  H351     1.0000 0.75263  0.97857  0.11837  Biso   1.000  H
  H352     1.0000 0.31190  0.89260  0.54830  Biso   1.000  H
  H353     1.0000 0.10740  0.41930  0.54830  Biso   1.000  H
  H354     1.0000 0.58070  0.68810  0.54830  Biso   1.000  H
  H355     1.0000 0.97857  0.22593  0.88163  Biso   1.000  H
  H356     1.0000 0.77407  0.75263  0.88163  Biso   1.000  H
  H357     1.0000 0.24737  0.02143  0.88163  Biso   1.000  H
  H358     1.0000 0.64523  0.55927  0.21497  Biso   1.000  H
  H359     1.0000 0.44073  0.08597  0.21497  Biso   1.000  H
  H360     1.0000 0.91403  0.35477  0.21497  Biso   1.000  H
  C253     1.0000 0.70730  0.21820  0.42210  Biso   1.000  C
  C254     1.0000 0.78180  0.48910  0.42210  Biso   1.000  C
  C255     1.0000 0.51090  0.29270  0.42210  Biso   1.000  C
  C256     1.0000 0.37397  0.55153  0.75543  Biso   1.000  C
  C257     1.0000 0.44847  0.82243  0.75543  Biso   1.000  C
  C258     1.0000 0.17757  0.62603  0.75543  Biso   1.000  C
  C259     1.0000 0.04063  0.88487  0.08877  Biso   1.000  C
  C260     1.0000 0.11513  0.15577  0.08877  Biso   1.000  C
  C261     1.0000 0.84423  0.95937  0.08877  Biso   1.000  C
  C262     1.0000 0.29270  0.78180  0.57790  Biso   1.000  C
  C263     1.0000 0.21820  0.51090  0.57790  Biso   1.000  C
  C264     1.0000 0.48910  0.70730  0.57790  Biso   1.000  C
  C265     1.0000 0.95937  0.11513  0.91123  Biso   1.000  C
  C266     1.0000 0.88487  0.84423  0.91123  Biso   1.000  C
  C267     1.0000 0.15577  0.04063  0.91123  Biso   1.000  C
  C268     1.0000 0.62603  0.44847  0.24457  Biso   1.000  C
  C269     1.0000 0.55153  0.17757  0.24457  Biso   1.000  C
  C270     1.0000 0.82243  0.37397  0.24457  Biso   1.000  C
  H361     1.0000 0.74080  0.20850  0.45110  Biso   1.000  H
  H362     1.0000 0.79150  0.53230  0.45110  Biso   1.000  H
  H363     1.0000 0.46770  0.25920  0.45110  Biso   1.000  H
  H364     1.0000 0.40747  0.54183  0.78443  Biso   1.000  H
  H365     1.0000 0.45817  0.86563  0.78443  Biso   1.000  H
  H366     1.0000 0.13437  0.59253  0.78443  Biso   1.000  H
  H367     1.0000 0.07413  0.87517  0.11777  Biso   1.000  H
  H368     1.0000 0.12483  0.19897  0.11777  Biso   1.000  H
  H369     1.0000 0.80103  0.92587  0.11777  Biso   1.000  H
  H370     1.0000 0.25920  0.79150  0.54890  Biso   1.000  H
  H371     1.0000 0.20850  0.46770  0.54890  Biso   1.000  H
  H372     1.0000 0.53230  0.74080  0.54890  Biso   1.000  H
  H373     1.0000 0.92587  0.12483  0.88223  Biso   1.000  H
  H374     1.0000 0.87517  0.80103  0.88223  Biso   1.000  H
  H375     1.0000 0.19897  0.07413  0.88223  Biso   1.000  H
  H376     1.0000 0.59253  0.45817  0.21557  Biso   1.000  H
  H377     1.0000 0.54183  0.13437  0.21557  Biso   1.000  H
  H378     1.0000 0.86563  0.40747  0.21557  Biso   1.000  H
  H379     1.0000 0.73790  0.25290  0.38620  Biso   1.000  H
  H380     1.0000 0.74710  0.48500  0.38620  Biso   1.000  H
  H381     1.0000 0.51500  0.26210  0.38620  Biso   1.000  H
  H382     1.0000 0.40457  0.58623  0.71953  Biso   1.000  H
  H383     1.0000 0.41377  0.81833  0.71953  Biso   1.000  H
  H384     1.0000 0.18167  0.59543  0.71953  Biso   1.000  H
  H385     1.0000 0.07123  0.91957  0.05287  Biso   1.000  H
  H386     1.0000 0.08043  0.15167  0.05287  Biso   1.000  H
  H387     1.0000 0.84833  0.92877  0.05287  Biso   1.000  H
  H388     1.0000 0.26210  0.74710  0.61380  Biso   1.000  H
  H389     1.0000 0.25290  0.51500  0.61380  Biso   1.000  H
  H390     1.0000 0.48500  0.73790  0.61380  Biso   1.000  H
  H391     1.0000 0.92877  0.08043  0.94713  Biso   1.000  H
  H392     1.0000 0.91957  0.84833  0.94713  Biso   1.000  H
  H393     1.0000 0.15167  0.07123  0.94713  Biso   1.000  H
  H394     1.0000 0.59543  0.41377  0.28047  Biso   1.000  H
  H395     1.0000 0.58623  0.18167  0.28047  Biso   1.000  H
  H396     1.0000 0.81833  0.40457  0.28047  Biso   1.000  H
  C271     1.0000 0.68690  0.19640  0.49190  Biso   1.000  C
  C272     1.0000 0.80360  0.49050  0.49190  Biso   1.000  C
  C273     1.0000 0.50950  0.31310  0.49190  Biso   1.000  C
  C274     1.0000 0.35357  0.52973  0.82523  Biso   1.000  C
  C275     1.0000 0.47027  0.82383  0.82523  Biso   1.000  C
  C276     1.0000 0.17617  0.64643  0.82523  Biso   1.000  C
  C277     1.0000 0.02023  0.86307  0.15857  Biso   1.000  C
  C278     1.0000 0.13693  0.15717  0.15857  Biso   1.000  C
  C279     1.0000 0.84283  0.97977  0.15857  Biso   1.000  C
  C280     1.0000 0.31310  0.80360  0.50810  Biso   1.000  C
  C281     1.0000 0.19640  0.50950  0.50810  Biso   1.000  C
  C282     1.0000 0.49050  0.68690  0.50810  Biso   1.000  C
  C283     1.0000 0.97977  0.13693  0.84143  Biso   1.000  C
  C284     1.0000 0.86307  0.84283  0.84143  Biso   1.000  C
  C285     1.0000 0.15717  0.02023  0.84143  Biso   1.000  C
  C286     1.0000 0.64643  0.47027  0.17477  Biso   1.000  C
  C287     1.0000 0.52973  0.17617  0.17477  Biso   1.000  C
  C288     1.0000 0.82383  0.35357  0.17477  Biso   1.000  C
  H397     1.0000 0.72430  0.25200  0.48840  Biso   1.000  H
  H398     1.0000 0.74800  0.47230  0.48840  Biso   1.000  H
  H399     1.0000 0.52770  0.27570  0.48840  Biso   1.000  H
  H400     1.0000 0.39097  0.58533  0.82173  Biso   1.000  H
  H401     1.0000 0.41467  0.80563  0.82173  Biso   1.000  H
  H402     1.0000 0.19437  0.60903  0.82173  Biso   1.000  H
  H403     1.0000 0.05763  0.91867  0.15507  Biso   1.000  H
  H404     1.0000 0.08133  0.13897  0.15507  Biso   1.000  H
  H405     1.0000 0.86103  0.94237  0.15507  Biso   1.000  H
  H406     1.0000 0.27570  0.74800  0.51160  Biso   1.000  H
  H407     1.0000 0.25200  0.52770  0.51160  Biso   1.000  H
  H408     1.0000 0.47230  0.72430  0.51160  Biso   1.000  H
  H409     1.0000 0.94237  0.08133  0.84493  Biso   1.000  H
  H410     1.0000 0.91867  0.86103  0.84493  Biso   1.000  H
  H411     1.0000 0.13897  0.05763  0.84493  Biso   1.000  H
  H412     1.0000 0.60903  0.41467  0.17827  Biso   1.000  H
  H413     1.0000 0.58533  0.19437  0.17827  Biso   1.000  H
  H414     1.0000 0.80563  0.39097  0.17827  Biso   1.000  H
  H415     1.0000 0.69680  0.17670  0.53270  Biso   1.000  H
  H416     1.0000 0.82330  0.52010  0.53270  Biso   1.000  H
  H417     1.0000 0.47990  0.30320  0.53270  Biso   1.000  H
  H418     1.0000 0.36347  0.51003  0.86603  Biso   1.000  H
  H419     1.0000 0.48997  0.85343  0.86603  Biso   1.000  H
  H420     1.0000 0.14657  0.63653  0.86603  Biso   1.000  H
  H421     1.0000 0.03013  0.84337  0.19937  Biso   1.000  H
  H422     1.0000 0.15663  0.18677  0.19937  Biso   1.000  H
  H423     1.0000 0.81323  0.96987  0.19937  Biso   1.000  H
  H424     1.0000 0.30320  0.82330  0.46730  Biso   1.000  H
  H425     1.0000 0.17670  0.47990  0.46730  Biso   1.000  H
  H426     1.0000 0.52010  0.69680  0.46730  Biso   1.000  H
  H427     1.0000 0.96987  0.15663  0.80063  Biso   1.000  H
  H428     1.0000 0.84337  0.81323  0.80063  Biso   1.000  H
  H429     1.0000 0.18677  0.03013  0.80063  Biso   1.000  H
  H430     1.0000 0.63653  0.48997  0.13397  Biso   1.000  H
  H431     1.0000 0.51003  0.14657  0.13397  Biso   1.000  H
  H432     1.0000 0.85343  0.36347  0.13397  Biso   1.000  H
  C289     1.0000 0.66100  0.24770  0.45930  Biso   1.000  C
  C290     1.0000 0.75230  0.41330  0.45930  Biso   1.000  C
  C291     1.0000 0.58670  0.33900  0.45930  Biso   1.000  C
  C292     1.0000 0.32767  0.58103  0.79263  Biso   1.000  C
  C293     1.0000 0.41897  0.74663  0.79263  Biso   1.000  C
  C294     1.0000 0.25337  0.67233  0.79263  Biso   1.000  C
  C295     1.0000 0.99433  0.91437  0.12597  Biso   1.000  C
  C296     1.0000 0.08563  0.07997  0.12597  Biso   1.000  C
  C297     1.0000 0.92003  0.00567  0.12597  Biso   1.000  C
  C298     1.0000 0.33900  0.75230  0.54070  Biso   1.000  C
  C299     1.0000 0.24770  0.58670  0.54070  Biso   1.000  C
  C300     1.0000 0.41330  0.66100  0.54070  Biso   1.000  C
  C301     1.0000 0.00567  0.08563  0.87403  Biso   1.000  C
  C302     1.0000 0.91437  0.92003  0.87403  Biso   1.000  C
  C303     1.0000 0.07997  0.99433  0.87403  Biso   1.000  C
  C304     1.0000 0.67233  0.41897  0.20737  Biso   1.000  C
  C305     1.0000 0.58103  0.25337  0.20737  Biso   1.000  C
  C306     1.0000 0.74663  0.32767  0.20737  Biso   1.000  C
  H433     1.0000 0.69350  0.28840  0.49070  Biso   1.000  H
  H434     1.0000 0.71160  0.40510  0.49070  Biso   1.000  H
  H435     1.0000 0.59490  0.30650  0.49070  Biso   1.000  H
  H436     1.0000 0.36017  0.62173  0.82403  Biso   1.000  H
  H437     1.0000 0.37827  0.73843  0.82403  Biso   1.000  H
  H438     1.0000 0.26157  0.63983  0.82403  Biso   1.000  H
  H439     1.0000 0.02683  0.95507  0.15737  Biso   1.000  H
  H440     1.0000 0.04493  0.07177  0.15737  Biso   1.000  H
  H441     1.0000 0.92823  0.97317  0.15737  Biso   1.000  H
  H442     1.0000 0.30650  0.71160  0.50930  Biso   1.000  H
  H443     1.0000 0.28840  0.59490  0.50930  Biso   1.000  H
  H444     1.0000 0.40510  0.69350  0.50930  Biso   1.000  H
  H445     1.0000 0.97317  0.04493  0.84263  Biso   1.000  H
  H446     1.0000 0.95507  0.92823  0.84263  Biso   1.000  H
  H447     1.0000 0.07177  0.02683  0.84263  Biso   1.000  H
  H448     1.0000 0.63983  0.37827  0.17597  Biso   1.000  H
  H449     1.0000 0.62173  0.26157  0.17597  Biso   1.000  H
  H450     1.0000 0.73843  0.36017  0.17597  Biso   1.000  H
  H451     1.0000 0.63640  0.26740  0.42920  Biso   1.000  H
  H452     1.0000 0.73260  0.36900  0.42920  Biso   1.000  H
  H453     1.0000 0.63100  0.36360  0.42920  Biso   1.000  H
  H454     1.0000 0.30307  0.60073  0.76253  Biso   1.000  H
  H455     1.0000 0.39927  0.70233  0.76253  Biso   1.000  H
  H456     1.0000 0.29767  0.69693  0.76253  Biso   1.000  H
  H457     1.0000 0.96973  0.93407  0.09587  Biso   1.000  H
  H458     1.0000 0.06593  0.03567  0.09587  Biso   1.000  H
  H459     1.0000 0.96433  0.03027  0.09587  Biso   1.000  H
  H460     1.0000 0.36360  0.73260  0.57080  Biso   1.000  H
  H461     1.0000 0.26740  0.63100  0.57080  Biso   1.000  H
  H462     1.0000 0.36900  0.63640  0.57080  Biso   1.000  H
  H463     1.0000 0.03027  0.06593  0.90413  Biso   1.000  H
  H464     1.0000 0.93407  0.96433  0.90413  Biso   1.000  H
  H465     1.0000 0.03567  0.96973  0.90413  Biso   1.000  H
  H466     1.0000 0.69693  0.39927  0.23747  Biso   1.000  H
  H467     1.0000 0.60073  0.29767  0.23747  Biso   1.000  H
  H468     1.0000 0.70233  0.30307  0.23747  Biso   1.000  H
