data_image0
_cell_length_a       27.774
_cell_length_b       17.752
_cell_length_c       30.147
_cell_angle_alpha    90
_cell_angle_beta     109.22
_cell_angle_gamma    90

_symmetry_space_group_name_H-M    "P 1"
_symmetry_int_tables_number       1

loop_
  _symmetry_equiv_pos_as_xyz
  'x, y, z'

loop_
  _atom_site_label
  _atom_site_occupancy
  _atom_site_fract_x
  _atom_site_fract_y
  _atom_site_fract_z
  _atom_site_thermal_displace_type
  _atom_site_B_iso_or_equiv
  _atom_site_type_symbol
  Cu1      1.0000 0.10187  0.55558  0.61267  Biso   1.000  Cu
  Cu2      1.0000 0.10187  0.94442  0.11267  Biso   1.000  Cu
  Cu3      1.0000 0.89813  0.44442  0.38733  Biso   1.000  Cu
  Cu4      1.0000 0.89813  0.05558  0.88733  Biso   1.000  Cu
  O1       1.0000 0.07493  0.46370  0.57395  Biso   1.000  O
  O2       1.0000 0.07493  0.03630  0.07395  Biso   1.000  O
  O3       1.0000 0.92507  0.53630  0.42605  Biso   1.000  O
  O4       1.0000 0.92507  0.96370  0.92605  Biso   1.000  O
  O5       1.0000 0.11286  0.65740  0.64548  Biso   1.000  O
  O6       1.0000 0.11286  0.84260  0.14548  Biso   1.000  O
  O7       1.0000 0.88714  0.34260  0.35452  Biso   1.000  O
  O8       1.0000 0.88714  0.15740  0.85452  Biso   1.000  O
  Cu5      1.0000 0.74220  0.48944  0.73555  Biso   1.000  Cu
  Cu6      1.0000 0.74220  0.01056  0.23555  Biso   1.000  Cu
  Cu7      1.0000 0.25780  0.51056  0.26445  Biso   1.000  Cu
  Cu8      1.0000 0.25780  0.98944  0.76445  Biso   1.000  Cu
  Cu9      1.0000 0.36265  0.48941  0.85705  Biso   1.000  Cu
  Cu10     1.0000 0.36265  0.01059  0.35705  Biso   1.000  Cu
  Cu11     1.0000 0.63735  0.51059  0.14295  Biso   1.000  Cu
  Cu12     1.0000 0.63735  0.98941  0.64295  Biso   1.000  Cu
  O9       1.0000 0.43450  0.51490  0.92192  Biso   1.000  O
  O10      1.0000 0.43450  0.98510  0.42192  Biso   1.000  O
  O11      1.0000 0.56550  0.48510  0.07808  Biso   1.000  O
  O12      1.0000 0.56550  0.01490  0.57808  Biso   1.000  O
  O13      1.0000 0.33680  0.60030  0.86910  Biso   1.000  O
  O14      1.0000 0.33680  0.89970  0.36910  Biso   1.000  O
  O15      1.0000 0.66320  0.39970  0.13090  Biso   1.000  O
  O16      1.0000 0.66320  0.10030  0.63090  Biso   1.000  O
  O17      1.0000 0.29110  0.48260  0.79420  Biso   1.000  O
  O18      1.0000 0.29110  0.01740  0.29420  Biso   1.000  O
  O19      1.0000 0.70890  0.51740  0.20580  Biso   1.000  O
  O20      1.0000 0.70890  0.98260  0.70580  Biso   1.000  O
  O21      1.0000 0.37350  0.37940  0.83320  Biso   1.000  O
  O22      1.0000 0.37350  0.12060  0.33320  Biso   1.000  O
  O23      1.0000 0.62650  0.62060  0.16680  Biso   1.000  O
  O24      1.0000 0.62650  0.87940  0.66680  Biso   1.000  O
  C1       1.0000 0.41700  0.37010  0.87470  Biso   1.000  C
  C2       1.0000 0.41700  0.12990  0.37470  Biso   1.000  C
  C3       1.0000 0.58300  0.62990  0.12530  Biso   1.000  C
  C4       1.0000 0.58300  0.87010  0.62530  Biso   1.000  C
  C5       1.0000 0.42170  0.28690  0.88740  Biso   1.000  C
  C6       1.0000 0.42170  0.21310  0.38740  Biso   1.000  C
  C7       1.0000 0.57830  0.71310  0.11260  Biso   1.000  C
  C8       1.0000 0.57830  0.78690  0.61260  Biso   1.000  C
  N1       1.0000 0.07507  0.51990  0.66377  Biso   1.000  N
  N2       1.0000 0.07507  0.98010  0.16377  Biso   1.000  N
  N3       1.0000 0.92493  0.48010  0.33623  Biso   1.000  N
  N4       1.0000 0.92493  0.01990  0.83623  Biso   1.000  N
  C9       1.0000 0.10600  0.52070  0.70900  Biso   1.000  C
  C10      1.0000 0.10600  0.97930  0.20900  Biso   1.000  C
  C11      1.0000 0.89400  0.47930  0.29100  Biso   1.000  C
  C12      1.0000 0.89400  0.02070  0.79100  Biso   1.000  C
  H1       1.0000 0.14040  0.53120  0.71530  Biso   1.000  H
  H2       1.0000 0.14040  0.96880  0.21530  Biso   1.000  H
  H3       1.0000 0.85960  0.46880  0.28470  Biso   1.000  H
  H4       1.0000 0.85960  0.03120  0.78470  Biso   1.000  H
  C13      1.0000 0.08870  0.50650  0.74640  Biso   1.000  C
  C14      1.0000 0.08870  0.99350  0.24640  Biso   1.000  C
  C15      1.0000 0.91130  0.49350  0.25360  Biso   1.000  C
  C16      1.0000 0.91130  0.00650  0.75360  Biso   1.000  C
  H5       1.0000 0.11130  0.50760  0.77700  Biso   1.000  H
  H6       1.0000 0.11130  0.99240  0.27700  Biso   1.000  H
  H7       1.0000 0.88870  0.49240  0.22300  Biso   1.000  H
  H8       1.0000 0.88870  0.00760  0.72300  Biso   1.000  H
  C17      1.0000 0.03730  0.49080  0.73810  Biso   1.000  C
  C18      1.0000 0.03730  0.00920  0.23810  Biso   1.000  C
  C19      1.0000 0.96270  0.50920  0.26190  Biso   1.000  C
  C20      1.0000 0.96270  0.99080  0.76190  Biso   1.000  C
  C21      1.0000 0.00630  0.48690  0.69150  Biso   1.000  C
  C22      1.0000 0.00630  0.01310  0.19150  Biso   1.000  C
  C23      1.0000 0.99370  0.51310  0.30850  Biso   1.000  C
  C24      1.0000 0.99370  0.98690  0.80850  Biso   1.000  C
  H9       1.0000 0.97200  0.47430  0.68420  Biso   1.000  H
  H10      1.0000 0.97200  0.02570  0.18420  Biso   1.000  H
  H11      1.0000 0.02800  0.52570  0.31580  Biso   1.000  H
  H12      1.0000 0.02800  0.97430  0.81580  Biso   1.000  H
  C25      1.0000 0.02600  0.50180  0.65590  Biso   1.000  C
  C26      1.0000 0.02600  0.99820  0.15590  Biso   1.000  C
  C27      1.0000 0.97400  0.49820  0.34410  Biso   1.000  C
  C28      1.0000 0.97400  0.00180  0.84410  Biso   1.000  C
  H13      1.0000 0.00430  0.49900  0.62500  Biso   1.000  H
  H14      1.0000 0.00430  0.00100  0.12500  Biso   1.000  H
  H15      1.0000 0.99570  0.50100  0.37500  Biso   1.000  H
  H16      1.0000 0.99570  0.99900  0.87500  Biso   1.000  H
  C29      1.0000 0.01540  0.48330  0.77760  Biso   1.000  C
  C30      1.0000 0.01540  0.01670  0.27760  Biso   1.000  C
  C31      1.0000 0.98460  0.51670  0.22240  Biso   1.000  C
  C32      1.0000 0.98460  0.98330  0.72240  Biso   1.000  C
  H17      1.0000 0.98310  0.51010  0.76880  Biso   1.000  H
  H18      1.0000 0.98310  0.98990  0.26880  Biso   1.000  H
  H19      1.0000 0.01690  0.48990  0.23120  Biso   1.000  H
  H20      1.0000 0.01690  0.01010  0.73120  Biso   1.000  H
  H21      1.0000 0.03830  0.50810  0.80520  Biso   1.000  H
  H22      1.0000 0.03830  0.99190  0.30520  Biso   1.000  H
  H23      1.0000 0.96170  0.49190  0.19480  Biso   1.000  H
  H24      1.0000 0.96170  0.00810  0.69480  Biso   1.000  H
  C33      1.0000 0.00640  0.40250  0.79110  Biso   1.000  C
  C34      1.0000 0.00640  0.09750  0.29110  Biso   1.000  C
  C35      1.0000 0.99360  0.59750  0.20890  Biso   1.000  C
  C36      1.0000 0.99360  0.90250  0.70890  Biso   1.000  C
  H25      1.0000 0.03910  0.37720  0.80390  Biso   1.000  H
  H26      1.0000 0.03910  0.12280  0.30390  Biso   1.000  H
  H27      1.0000 0.96090  0.62280  0.19610  Biso   1.000  H
  H28      1.0000 0.96090  0.87720  0.69610  Biso   1.000  H
  H29      1.0000 0.98670  0.37550  0.76300  Biso   1.000  H
  H30      1.0000 0.98670  0.12450  0.26300  Biso   1.000  H
  H31      1.0000 0.01330  0.62450  0.23700  Biso   1.000  H
  H32      1.0000 0.01330  0.87550  0.73700  Biso   1.000  H
  C37      1.0000 0.97810  0.39880  0.82750  Biso   1.000  C
  C38      1.0000 0.97810  0.10120  0.32750  Biso   1.000  C
  C39      1.0000 0.02190  0.60120  0.17250  Biso   1.000  C
  C40      1.0000 0.02190  0.89880  0.67250  Biso   1.000  C
  H33      1.0000 0.98100  0.34830  0.84040  Biso   1.000  H
  H34      1.0000 0.98100  0.15170  0.34040  Biso   1.000  H
  H35      1.0000 0.01900  0.65170  0.15960  Biso   1.000  H
  H36      1.0000 0.01900  0.84830  0.65960  Biso   1.000  H
  H37      1.0000 0.99440  0.43310  0.85320  Biso   1.000  H
  H38      1.0000 0.99440  0.06690  0.35320  Biso   1.000  H
  H39      1.0000 0.00560  0.56690  0.14680  Biso   1.000  H
  H40      1.0000 0.00560  0.93310  0.64680  Biso   1.000  H
  N5       1.0000 0.81758  0.45690  0.76462  Biso   1.000  N
  N6       1.0000 0.81758  0.04310  0.26462  Biso   1.000  N
  N7       1.0000 0.18242  0.54310  0.23538  Biso   1.000  N
  N8       1.0000 0.18242  0.95690  0.73538  Biso   1.000  N
  C41      1.0000 0.85400  0.51010  0.77980  Biso   1.000  C
  C42      1.0000 0.85400  0.98990  0.27980  Biso   1.000  C
  C43      1.0000 0.14600  0.48990  0.22020  Biso   1.000  C
  C44      1.0000 0.14600  0.01010  0.72020  Biso   1.000  C
  H41      1.0000 0.84420  0.56040  0.77600  Biso   1.000  H
  H42      1.0000 0.84420  0.93960  0.27600  Biso   1.000  H
  H43      1.0000 0.15580  0.43960  0.22400  Biso   1.000  H
  H44      1.0000 0.15580  0.06040  0.72400  Biso   1.000  H
  C45      1.0000 0.90550  0.49370  0.80090  Biso   1.000  C
  C46      1.0000 0.90550  0.00630  0.30090  Biso   1.000  C
  C47      1.0000 0.09450  0.50630  0.19910  Biso   1.000  C
  C48      1.0000 0.09450  0.99370  0.69910  Biso   1.000  C
  H45      1.0000 0.92890  0.53270  0.81110  Biso   1.000  H
  H46      1.0000 0.92890  0.96730  0.31110  Biso   1.000  H
  H47      1.0000 0.07110  0.46730  0.18890  Biso   1.000  H
  H48      1.0000 0.07110  0.03270  0.68890  Biso   1.000  H
  C49      1.0000 0.92230  0.41920  0.80681  Biso   1.000  C
  C50      1.0000 0.92230  0.08080  0.30681  Biso   1.000  C
  C51      1.0000 0.07770  0.58080  0.19319  Biso   1.000  C
  C52      1.0000 0.07770  0.91920  0.69319  Biso   1.000  C
  C53      1.0000 0.88440  0.36450  0.79210  Biso   1.000  C
  C54      1.0000 0.88440  0.13550  0.29210  Biso   1.000  C
  C55      1.0000 0.11560  0.63550  0.20790  Biso   1.000  C
  C56      1.0000 0.11560  0.86450  0.70790  Biso   1.000  C
  H49      1.0000 0.89330  0.31380  0.79570  Biso   1.000  H
  H50      1.0000 0.89330  0.18620  0.29570  Biso   1.000  H
  H51      1.0000 0.10670  0.68620  0.20430  Biso   1.000  H
  H52      1.0000 0.10670  0.81380  0.70430  Biso   1.000  H
  C57      1.0000 0.83370  0.38500  0.77230  Biso   1.000  C
  C58      1.0000 0.83370  0.11500  0.27230  Biso   1.000  C
  C59      1.0000 0.16630  0.61500  0.22770  Biso   1.000  C
  C60      1.0000 0.16630  0.88500  0.72770  Biso   1.000  C
  H53      1.0000 0.80940  0.34690  0.76380  Biso   1.000  H
  H54      1.0000 0.80940  0.15310  0.26380  Biso   1.000  H
  H55      1.0000 0.19060  0.65310  0.23620  Biso   1.000  H
  H56      1.0000 0.19060  0.84690  0.73620  Biso   1.000  H
  N9       1.0000 0.13790  0.58930  0.56752  Biso   1.000  N
  N10      1.0000 0.13790  0.91070  0.06752  Biso   1.000  N
  N11      1.0000 0.86210  0.41070  0.43248  Biso   1.000  N
  N12      1.0000 0.86210  0.08930  0.93248  Biso   1.000  N
  C61      1.0000 0.12880  0.65600  0.54510  Biso   1.000  C
  C62      1.0000 0.12880  0.84400  0.04510  Biso   1.000  C
  C63      1.0000 0.87120  0.34400  0.45490  Biso   1.000  C
  C64      1.0000 0.87120  0.15600  0.95490  Biso   1.000  C
  H57      1.0000 0.10490  0.68800  0.55070  Biso   1.000  H
  H58      1.0000 0.10490  0.81200  0.05070  Biso   1.000  H
  H59      1.0000 0.89510  0.31200  0.44930  Biso   1.000  H
  H60      1.0000 0.89510  0.18800  0.94930  Biso   1.000  H
  C65      1.0000 0.15310  0.67940  0.51420  Biso   1.000  C
  C66      1.0000 0.15310  0.82060  0.01420  Biso   1.000  C
  C67      1.0000 0.84690  0.32060  0.48580  Biso   1.000  C
  C68      1.0000 0.84690  0.17940  0.98580  Biso   1.000  C
  H61      1.0000 0.14550  0.72630  0.49990  Biso   1.000  H
  H62      1.0000 0.14550  0.77370  0.99990  Biso   1.000  H
  H63      1.0000 0.85450  0.27370  0.50010  Biso   1.000  H
  H64      1.0000 0.85450  0.22630  0.00010  Biso   1.000  H
  C69      1.0000 0.18850  0.63390  0.50450  Biso   1.000  C
  C70      1.0000 0.18850  0.86610  0.00450  Biso   1.000  C
  C71      1.0000 0.81150  0.36610  0.49550  Biso   1.000  C
  C72      1.0000 0.81150  0.13390  0.99550  Biso   1.000  C
  C73      1.0000 0.19650  0.56270  0.52650  Biso   1.000  C
  C74      1.0000 0.19650  0.93730  0.02650  Biso   1.000  C
  C75      1.0000 0.80350  0.43730  0.47350  Biso   1.000  C
  C76      1.0000 0.80350  0.06270  0.97350  Biso   1.000  C
  H65      1.0000 0.21890  0.52880  0.52010  Biso   1.000  H
  H66      1.0000 0.21890  0.97120  0.02010  Biso   1.000  H
  H67      1.0000 0.78110  0.47120  0.47990  Biso   1.000  H
  H68      1.0000 0.78110  0.02880  0.97990  Biso   1.000  H
  C77      1.0000 0.17150  0.54330  0.55700  Biso   1.000  C
  C78      1.0000 0.17150  0.95670  0.05700  Biso   1.000  C
  C79      1.0000 0.82850  0.45670  0.44300  Biso   1.000  C
  C80      1.0000 0.82850  0.04330  0.94300  Biso   1.000  C
  H69      1.0000 0.17800  0.49630  0.57130  Biso   1.000  H
  H70      1.0000 0.17800  0.00370  0.07130  Biso   1.000  H
  H71      1.0000 0.82200  0.50370  0.42870  Biso   1.000  H
  H72      1.0000 0.82200  0.99630  0.92870  Biso   1.000  H
  C81      1.0000 0.21690  0.65750  0.47160  Biso   1.000  C
  C82      1.0000 0.21690  0.84250  0.97160  Biso   1.000  C
  C83      1.0000 0.78310  0.34250  0.52840  Biso   1.000  C
  C84      1.0000 0.78310  0.15750  0.02840  Biso   1.000  C
  H73      1.0000 0.20780  0.70910  0.46170  Biso   1.000  H
  H74      1.0000 0.20780  0.79090  0.96170  Biso   1.000  H
  H75      1.0000 0.79220  0.29090  0.53830  Biso   1.000  H
  H76      1.0000 0.79220  0.20910  0.03830  Biso   1.000  H
  H77      1.0000 0.20600  0.62590  0.44380  Biso   1.000  H
  H78      1.0000 0.20600  0.87410  0.94380  Biso   1.000  H
  H79      1.0000 0.79400  0.37410  0.55620  Biso   1.000  H
  H80      1.0000 0.79400  0.12590  0.05620  Biso   1.000  H
  C85      1.0000 0.27500  0.65190  0.49396  Biso   1.000  C
  C86      1.0000 0.27500  0.84810  0.99396  Biso   1.000  C
  C87      1.0000 0.72500  0.34810  0.50604  Biso   1.000  C
  C88      1.0000 0.72500  0.15190  0.00604  Biso   1.000  C
  H81      1.0000 0.28570  0.68200  0.52240  Biso   1.000  H
  H82      1.0000 0.28570  0.81800  0.02240  Biso   1.000  H
  H83      1.0000 0.71430  0.31800  0.47760  Biso   1.000  H
  H84      1.0000 0.71430  0.18200  0.97760  Biso   1.000  H
  H85      1.0000 0.28410  0.60000  0.50280  Biso   1.000  H
  H86      1.0000 0.28410  0.90000  0.00280  Biso   1.000  H
  H87      1.0000 0.71590  0.40000  0.49720  Biso   1.000  H
  H88      1.0000 0.71590  0.10000  0.99720  Biso   1.000  H
  C89      1.0000 0.30360  0.67850  0.46150  Biso   1.000  C
  C90      1.0000 0.30360  0.82150  0.96150  Biso   1.000  C
  C91      1.0000 0.69640  0.32150  0.53850  Biso   1.000  C
  C92      1.0000 0.69640  0.17850  0.03850  Biso   1.000  C
  H89      1.0000 0.33990  0.67230  0.47770  Biso   1.000  H
  H90      1.0000 0.33990  0.82770  0.97770  Biso   1.000  H
  H91      1.0000 0.66010  0.32770  0.52230  Biso   1.000  H
  H92      1.0000 0.66010  0.17230  0.02230  Biso   1.000  H
  H93      1.0000 0.29720  0.73190  0.45560  Biso   1.000  H
  H94      1.0000 0.29720  0.76810  0.95560  Biso   1.000  H
  H95      1.0000 0.70280  0.26810  0.54440  Biso   1.000  H
  H96      1.0000 0.70280  0.23190  0.04440  Biso   1.000  H
  N13      1.0000 0.26706  0.56490  0.32688  Biso   1.000  N
  N14      1.0000 0.26706  0.93510  0.82688  Biso   1.000  N
  N15      1.0000 0.73294  0.43510  0.67312  Biso   1.000  N
  N16      1.0000 0.73294  0.06490  0.17312  Biso   1.000  N
  C93      1.0000 0.26800  0.64020  0.33080  Biso   1.000  C
  C94      1.0000 0.26800  0.85980  0.83080  Biso   1.000  C
  C95      1.0000 0.73200  0.35980  0.66920  Biso   1.000  C
  C96      1.0000 0.73200  0.14020  0.16920  Biso   1.000  C
  H97      1.0000 0.26090  0.66880  0.30360  Biso   1.000  H
  H98      1.0000 0.26090  0.83120  0.80360  Biso   1.000  H
  H99      1.0000 0.73910  0.33120  0.69640  Biso   1.000  H
  H100     1.0000 0.73910  0.16880  0.19640  Biso   1.000  H
  C97      1.0000 0.27870  0.67720  0.37270  Biso   1.000  C
  C98      1.0000 0.27870  0.82280  0.87270  Biso   1.000  C
  C99      1.0000 0.72130  0.32280  0.62730  Biso   1.000  C
  C100     1.0000 0.72130  0.17720  0.12730  Biso   1.000  C
  H101     1.0000 0.27860  0.72960  0.37320  Biso   1.000  H
  H102     1.0000 0.27860  0.77040  0.87320  Biso   1.000  H
  H103     1.0000 0.72140  0.27040  0.62680  Biso   1.000  H
  H104     1.0000 0.72140  0.22960  0.12680  Biso   1.000  H
  C101     1.0000 0.28970  0.63780  0.41440  Biso   1.000  C
  C102     1.0000 0.28970  0.86220  0.91440  Biso   1.000  C
  C103     1.0000 0.71030  0.36220  0.58560  Biso   1.000  C
  C104     1.0000 0.71030  0.13780  0.08560  Biso   1.000  C
  C105     1.0000 0.28940  0.55930  0.41090  Biso   1.000  C
  C106     1.0000 0.28940  0.94070  0.91090  Biso   1.000  C
  C107     1.0000 0.71060  0.44070  0.58910  Biso   1.000  C
  C108     1.0000 0.71060  0.05930  0.08910  Biso   1.000  C
  H105     1.0000 0.29670  0.52990  0.43790  Biso   1.000  H
  H106     1.0000 0.29670  0.97010  0.93790  Biso   1.000  H
  H107     1.0000 0.70330  0.47010  0.56210  Biso   1.000  H
  H108     1.0000 0.70330  0.02990  0.06210  Biso   1.000  H
  C109     1.0000 0.27840  0.52520  0.36740  Biso   1.000  C
  C110     1.0000 0.27840  0.97480  0.86740  Biso   1.000  C
  C111     1.0000 0.72160  0.47480  0.63260  Biso   1.000  C
  C112     1.0000 0.72160  0.02520  0.13260  Biso   1.000  C
  H109     1.0000 0.27880  0.47290  0.36600  Biso   1.000  H
  H110     1.0000 0.27880  0.02710  0.86600  Biso   1.000  H
  H111     1.0000 0.72120  0.52710  0.63400  Biso   1.000  H
  H112     1.0000 0.72120  0.97290  0.13400  Biso   1.000  H
  N17      1.0000 0.66645  0.51830  0.70847  Biso   1.000  N
  N18      1.0000 0.66645  0.98170  0.20847  Biso   1.000  N
  N19      1.0000 0.33355  0.48170  0.29153  Biso   1.000  N
  N20      1.0000 0.33355  0.01830  0.79153  Biso   1.000  N
  C113     1.0000 0.64930  0.58940  0.69930  Biso   1.000  C
  C114     1.0000 0.64930  0.91060  0.19930  Biso   1.000  C
  C115     1.0000 0.35070  0.41060  0.30070  Biso   1.000  C
  C116     1.0000 0.35070  0.08940  0.80070  Biso   1.000  C
  H113     1.0000 0.67290  0.62850  0.70560  Biso   1.000  H
  H114     1.0000 0.67290  0.87150  0.20560  Biso   1.000  H
  H115     1.0000 0.32710  0.37150  0.29440  Biso   1.000  H
  H116     1.0000 0.32710  0.12850  0.79440  Biso   1.000  H
  C117     1.0000 0.59740  0.60710  0.68050  Biso   1.000  C
  C118     1.0000 0.59740  0.89290  0.18050  Biso   1.000  C
  C119     1.0000 0.40260  0.39290  0.31950  Biso   1.000  C
  C120     1.0000 0.40260  0.10710  0.81950  Biso   1.000  C
  H117     1.0000 0.58710  0.65700  0.67460  Biso   1.000  H
  H118     1.0000 0.58710  0.84300  0.17460  Biso   1.000  H
  H119     1.0000 0.41290  0.34300  0.32540  Biso   1.000  H
  H120     1.0000 0.41290  0.15700  0.82540  Biso   1.000  H
  C121     1.0000 0.56160  0.55030  0.67080  Biso   1.000  C
  C122     1.0000 0.56160  0.94970  0.17080  Biso   1.000  C
  C123     1.0000 0.43840  0.44970  0.32920  Biso   1.000  C
  C124     1.0000 0.43840  0.05030  0.82920  Biso   1.000  C
  C125     1.0000 0.57970  0.47650  0.67980  Biso   1.000  C
  C126     1.0000 0.57970  0.02350  0.17980  Biso   1.000  C
  C127     1.0000 0.42030  0.52350  0.32020  Biso   1.000  C
  C128     1.0000 0.42030  0.97650  0.82020  Biso   1.000  C
  H121     1.0000 0.55690  0.43650  0.67340  Biso   1.000  H
  H122     1.0000 0.55690  0.06350  0.17340  Biso   1.000  H
  H123     1.0000 0.44310  0.56350  0.32660  Biso   1.000  H
  H124     1.0000 0.44310  0.93650  0.82660  Biso   1.000  H
  C129     1.0000 0.63120  0.46270  0.69800  Biso   1.000  C
  C130     1.0000 0.63120  0.03730  0.19800  Biso   1.000  C
  C131     1.0000 0.36880  0.53730  0.30200  Biso   1.000  C
  C132     1.0000 0.36880  0.96270  0.80200  Biso   1.000  C
  H125     1.0000 0.64230  0.41310  0.70340  Biso   1.000  H
  H126     1.0000 0.64230  0.08690  0.20340  Biso   1.000  H
  H127     1.0000 0.35770  0.58690  0.29660  Biso   1.000  H
  H128     1.0000 0.35770  0.91310  0.79660  Biso   1.000  H
  C133     1.0000 0.50480  0.56530  0.65100  Biso   1.000  C
  C134     1.0000 0.50480  0.93470  0.15100  Biso   1.000  C
  C135     1.0000 0.49520  0.43470  0.34900  Biso   1.000  C
  C136     1.0000 0.49520  0.06530  0.84900  Biso   1.000  C
  H129     1.0000 0.49930  0.61820  0.64290  Biso   1.000  H
  H130     1.0000 0.49930  0.88180  0.14290  Biso   1.000  H
  H131     1.0000 0.50070  0.38180  0.35710  Biso   1.000  H
  H132     1.0000 0.50070  0.11820  0.85710  Biso   1.000  H
  H133     1.0000 0.49050  0.53620  0.62240  Biso   1.000  H
  H134     1.0000 0.49050  0.96380  0.12240  Biso   1.000  H
  H135     1.0000 0.50950  0.46380  0.37760  Biso   1.000  H
  H136     1.0000 0.50950  0.03620  0.87760  Biso   1.000  H
  C137     1.0000 0.47650  0.54460  0.68610  Biso   1.000  C
  C138     1.0000 0.47650  0.95540  0.18610  Biso   1.000  C
  C139     1.0000 0.52350  0.45540  0.31390  Biso   1.000  C
  C140     1.0000 0.52350  0.04460  0.81390  Biso   1.000  C
  H137     1.0000 0.48740  0.49510  0.69910  Biso   1.000  H
  H138     1.0000 0.48740  0.00490  0.19910  Biso   1.000  H
  H139     1.0000 0.51260  0.50490  0.30090  Biso   1.000  H
  H140     1.0000 0.51260  0.99510  0.80090  Biso   1.000  H
  H141     1.0000 0.44010  0.54230  0.66920  Biso   1.000  H
  H142     1.0000 0.44010  0.95770  0.16920  Biso   1.000  H
  H143     1.0000 0.55990  0.45770  0.33080  Biso   1.000  H
  H144     1.0000 0.55990  0.04230  0.83080  Biso   1.000  H
  C141     1.0000 0.48630  0.60120  0.72620  Biso   1.000  C
  C142     1.0000 0.48630  0.89880  0.22620  Biso   1.000  C
  C143     1.0000 0.51370  0.39880  0.27380  Biso   1.000  C
  C144     1.0000 0.51370  0.10120  0.77380  Biso   1.000  C
  H145     1.0000 0.47510  0.65080  0.71330  Biso   1.000  H
  H146     1.0000 0.47510  0.84920  0.21330  Biso   1.000  H
  H147     1.0000 0.52490  0.34920  0.28670  Biso   1.000  H
  H148     1.0000 0.52490  0.15080  0.78670  Biso   1.000  H
  H149     1.0000 0.52260  0.60380  0.74310  Biso   1.000  H
  H150     1.0000 0.52260  0.89620  0.24310  Biso   1.000  H
  H151     1.0000 0.47740  0.39620  0.25690  Biso   1.000  H
  H152     1.0000 0.47740  0.10380  0.75690  Biso   1.000  H
  N21      1.0000 0.40290  0.53120  0.81720  Biso   1.000  N
  N22      1.0000 0.40290  0.96880  0.31720  Biso   1.000  N
  N23      1.0000 0.59710  0.46880  0.18280  Biso   1.000  N
  N24      1.0000 0.59710  0.03120  0.68280  Biso   1.000  N
  C145     1.0000 0.44690  0.49850  0.81890  Biso   1.000  C
  C146     1.0000 0.44690  0.00150  0.31890  Biso   1.000  C
  C147     1.0000 0.55310  0.50150  0.18110  Biso   1.000  C
  C148     1.0000 0.55310  0.99850  0.68110  Biso   1.000  C
  H153     1.0000 0.45910  0.45900  0.83990  Biso   1.000  H
  H154     1.0000 0.45910  0.04100  0.33990  Biso   1.000  H
  H155     1.0000 0.54090  0.54100  0.16010  Biso   1.000  H
  H156     1.0000 0.54090  0.95900  0.66010  Biso   1.000  H
  C149     1.0000 0.47510  0.52040  0.79130  Biso   1.000  C
  C150     1.0000 0.47510  0.97960  0.29130  Biso   1.000  C
  C151     1.0000 0.52490  0.47960  0.20870  Biso   1.000  C
  C152     1.0000 0.52490  0.02040  0.70870  Biso   1.000  C
  H157     1.0000 0.50530  0.49550  0.79360  Biso   1.000  H
  H158     1.0000 0.50530  0.00450  0.29360  Biso   1.000  H
  H159     1.0000 0.49470  0.50450  0.20640  Biso   1.000  H
  H160     1.0000 0.49470  0.99550  0.70640  Biso   1.000  H
  C153     1.0000 0.45860  0.57940  0.75990  Biso   1.000  C
  C154     1.0000 0.45860  0.92060  0.25990  Biso   1.000  C
  C155     1.0000 0.54140  0.42060  0.24010  Biso   1.000  C
  C156     1.0000 0.54140  0.07940  0.74010  Biso   1.000  C
  C157     1.0000 0.41350  0.61460  0.75890  Biso   1.000  C
  C158     1.0000 0.41350  0.88540  0.25890  Biso   1.000  C
  C159     1.0000 0.58650  0.38540  0.24110  Biso   1.000  C
  C160     1.0000 0.58650  0.11460  0.74110  Biso   1.000  C
  H161     1.0000 0.40090  0.65500  0.73880  Biso   1.000  H
  H162     1.0000 0.40090  0.84500  0.23880  Biso   1.000  H
  H163     1.0000 0.59910  0.34500  0.26120  Biso   1.000  H
  H164     1.0000 0.59910  0.15500  0.76120  Biso   1.000  H
  C161     1.0000 0.38760  0.58890  0.78790  Biso   1.000  C
  C162     1.0000 0.38760  0.91110  0.28790  Biso   1.000  C
  C163     1.0000 0.61240  0.41110  0.21210  Biso   1.000  C
  C164     1.0000 0.61240  0.08890  0.71210  Biso   1.000  C
  H165     1.0000 0.35770  0.61340  0.78690  Biso   1.000  H
  H166     1.0000 0.35770  0.88660  0.28690  Biso   1.000  H
  H167     1.0000 0.64230  0.38660  0.21310  Biso   1.000  H
  H168     1.0000 0.64230  0.11340  0.71310  Biso   1.000  H
  N25      1.0000 0.32810  0.44470  0.90020  Biso   1.000  N
  N26      1.0000 0.32810  0.05530  0.40020  Biso   1.000  N
  N27      1.0000 0.67190  0.55530  0.09980  Biso   1.000  N
  N28      1.0000 0.67190  0.94470  0.59980  Biso   1.000  N
  C165     1.0000 0.33060  0.47850  0.94040  Biso   1.000  C
  C166     1.0000 0.33060  0.02150  0.44040  Biso   1.000  C
  C167     1.0000 0.66940  0.52150  0.05960  Biso   1.000  C
  C168     1.0000 0.66940  0.97850  0.55960  Biso   1.000  C
  H169     1.0000 0.34680  0.52500  0.94710  Biso   1.000  H
  H170     1.0000 0.34680  0.97500  0.44710  Biso   1.000  H
  H171     1.0000 0.65320  0.47500  0.05290  Biso   1.000  H
  H172     1.0000 0.65320  0.02500  0.55290  Biso   1.000  H
  C169     1.0000 0.31030  0.44810  0.97270  Biso   1.000  C
  C170     1.0000 0.31030  0.05190  0.47270  Biso   1.000  C
  C171     1.0000 0.68970  0.55190  0.02730  Biso   1.000  C
  C172     1.0000 0.68970  0.94810  0.52730  Biso   1.000  C
  H173     1.0000 0.31460  0.47310  0.00080  Biso   1.000  H
  H174     1.0000 0.31460  0.02690  0.50080  Biso   1.000  H
  H175     1.0000 0.68540  0.52690  0.99920  Biso   1.000  H
  H176     1.0000 0.68540  0.97310  0.49920  Biso   1.000  H
  C173     1.0000 0.28370  0.38060  0.96340  Biso   1.000  C
  C174     1.0000 0.28370  0.11940  0.46340  Biso   1.000  C
  C175     1.0000 0.71630  0.61940  0.03660  Biso   1.000  C
  C176     1.0000 0.71630  0.88060  0.53660  Biso   1.000  C
  C177     1.0000 0.28120  0.34530  0.92110  Biso   1.000  C
  C178     1.0000 0.28120  0.15470  0.42110  Biso   1.000  C
  C179     1.0000 0.71880  0.65470  0.07890  Biso   1.000  C
  C180     1.0000 0.71880  0.84530  0.57890  Biso   1.000  C
  H177     1.0000 0.26440  0.29940  0.91330  Biso   1.000  H
  H178     1.0000 0.26440  0.20060  0.41330  Biso   1.000  H
  H179     1.0000 0.73560  0.70060  0.08670  Biso   1.000  H
  H180     1.0000 0.73560  0.79940  0.58670  Biso   1.000  H
  C181     1.0000 0.30300  0.37770  0.89120  Biso   1.000  C
  C182     1.0000 0.30300  0.12230  0.39120  Biso   1.000  C
  C183     1.0000 0.69700  0.62230  0.10880  Biso   1.000  C
  C184     1.0000 0.69700  0.87770  0.60880  Biso   1.000  C
  H181     1.0000 0.30060  0.35280  0.86340  Biso   1.000  H
  H182     1.0000 0.30060  0.14720  0.36340  Biso   1.000  H
  H183     1.0000 0.69940  0.64720  0.13660  Biso   1.000  H
  H184     1.0000 0.69940  0.85280  0.63660  Biso   1.000  H
  C185     1.0000 0.25840  0.34530  0.99570  Biso   1.000  C
  C186     1.0000 0.25840  0.15470  0.49570  Biso   1.000  C
  C187     1.0000 0.74160  0.65470  0.00430  Biso   1.000  C
  C188     1.0000 0.74160  0.84530  0.50430  Biso   1.000  C
  H185     1.0000 0.27300  0.29560  0.00450  Biso   1.000  H
  H186     1.0000 0.27300  0.20440  0.50450  Biso   1.000  H
  H187     1.0000 0.72700  0.70440  0.99550  Biso   1.000  H
  H188     1.0000 0.72700  0.79560  0.49550  Biso   1.000  H
  H189     1.0000 0.22260  0.33850  0.97810  Biso   1.000  H
  H190     1.0000 0.22260  0.16150  0.47810  Biso   1.000  H
  H191     1.0000 0.77740  0.66150  0.02190  Biso   1.000  H
  H192     1.0000 0.77740  0.83850  0.52190  Biso   1.000  H
  C189     1.0000 0.26250  0.38790  0.04010  Biso   1.000  C
  C190     1.0000 0.26250  0.11210  0.54010  Biso   1.000  C
  C191     1.0000 0.73750  0.61210  0.95990  Biso   1.000  C
  C192     1.0000 0.73750  0.88790  0.45990  Biso   1.000  C
  H193     1.0000 0.24850  0.43810  0.03190  Biso   1.000  H
  H194     1.0000 0.24850  0.06190  0.53190  Biso   1.000  H
  H195     1.0000 0.75150  0.56190  0.96810  Biso   1.000  H
  H196     1.0000 0.75150  0.93810  0.46810  Biso   1.000  H
  H197     1.0000 0.29820  0.39330  0.05880  Biso   1.000  H
  H198     1.0000 0.29820  0.10670  0.55880  Biso   1.000  H
  H199     1.0000 0.70180  0.60670  0.94120  Biso   1.000  H
  H200     1.0000 0.70180  0.89330  0.44120  Biso   1.000  H
  C193     1.0000 0.23480  0.34960  0.06930  Biso   1.000  C
  C194     1.0000 0.23480  0.15040  0.56930  Biso   1.000  C
  C195     1.0000 0.76520  0.65040  0.93070  Biso   1.000  C
  C196     1.0000 0.76520  0.84960  0.43070  Biso   1.000  C
  H201     1.0000 0.19890  0.34700  0.05110  Biso   1.000  H
  H202     1.0000 0.19890  0.15300  0.55110  Biso   1.000  H
  H203     1.0000 0.80110  0.65300  0.94890  Biso   1.000  H
  H204     1.0000 0.80110  0.84700  0.44890  Biso   1.000  H
  H205     1.0000 0.24730  0.29830  0.07550  Biso   1.000  H
  H206     1.0000 0.24730  0.20170  0.57550  Biso   1.000  H
  H207     1.0000 0.75270  0.70170  0.92450  Biso   1.000  H
  H208     1.0000 0.75270  0.79830  0.42450  Biso   1.000  H
  N29      1.0000 0.25149  0.45770  0.20232  Biso   1.000  N
  N30      1.0000 0.25149  0.04230  0.70232  Biso   1.000  N
  N31      1.0000 0.74851  0.54230  0.79768  Biso   1.000  N
  N32      1.0000 0.74851  0.95770  0.29768  Biso   1.000  N
  C197     1.0000 0.24770  0.49860  0.16430  Biso   1.000  C
  C198     1.0000 0.24770  0.00140  0.66430  Biso   1.000  C
  C199     1.0000 0.75230  0.50140  0.83570  Biso   1.000  C
  C200     1.0000 0.75230  0.99860  0.33570  Biso   1.000  C
  H209     1.0000 0.24830  0.55080  0.16650  Biso   1.000  H
  H210     1.0000 0.24830  0.94920  0.66650  Biso   1.000  H
  H211     1.0000 0.75170  0.44920  0.83350  Biso   1.000  H
  H212     1.0000 0.75170  0.05080  0.33350  Biso   1.000  H
  C201     1.0000 0.24290  0.46500  0.12130  Biso   1.000  C
  C202     1.0000 0.24290  0.03500  0.62130  Biso   1.000  C
  C203     1.0000 0.75710  0.53500  0.87870  Biso   1.000  C
  C204     1.0000 0.75710  0.96500  0.37870  Biso   1.000  C
  H213     1.0000 0.24130  0.49530  0.09570  Biso   1.000  H
  H214     1.0000 0.24130  0.00470  0.59570  Biso   1.000  H
  H215     1.0000 0.75870  0.50470  0.90430  Biso   1.000  H
  H216     1.0000 0.75870  0.99530  0.40430  Biso   1.000  H
  C205     1.0000 0.24040  0.38730  0.11570  Biso   1.000  C
  C206     1.0000 0.24040  0.11270  0.61570  Biso   1.000  C
  C207     1.0000 0.75960  0.61270  0.88430  Biso   1.000  C
  C208     1.0000 0.75960  0.88730  0.38430  Biso   1.000  C
  C209     1.0000 0.24350  0.34590  0.15520  Biso   1.000  C
  C210     1.0000 0.24350  0.15410  0.65520  Biso   1.000  C
  C211     1.0000 0.75650  0.65410  0.84480  Biso   1.000  C
  C212     1.0000 0.75650  0.84590  0.34480  Biso   1.000  C
  H217     1.0000 0.24180  0.29370  0.15360  Biso   1.000  H
  H218     1.0000 0.24180  0.20630  0.65360  Biso   1.000  H
  H219     1.0000 0.75820  0.70630  0.84640  Biso   1.000  H
  H220     1.0000 0.75820  0.79370  0.34640  Biso   1.000  H
  C213     1.0000 0.24910  0.38240  0.19740  Biso   1.000  C
  C214     1.0000 0.24910  0.11760  0.69740  Biso   1.000  C
  C215     1.0000 0.75090  0.61760  0.80260  Biso   1.000  C
  C216     1.0000 0.75090  0.88240  0.30260  Biso   1.000  C
  H221     1.0000 0.25140  0.35320  0.22370  Biso   1.000  H
  H222     1.0000 0.25140  0.14680  0.72370  Biso   1.000  H
  H223     1.0000 0.74860  0.64680  0.77630  Biso   1.000  H
  H224     1.0000 0.74860  0.85320  0.27630  Biso   1.000  H
  Cu13     1.0000 0.62241  0.33034  0.86552  Biso   1.000  Cu
  Cu14     1.0000 0.62241  0.16966  0.36552  Biso   1.000  Cu
  Cu15     1.0000 0.37759  0.66966  0.13448  Biso   1.000  Cu
  Cu16     1.0000 0.37759  0.83034  0.63448  Biso   1.000  Cu
  Cu17     1.0000 0.86863  0.84079  0.11960  Biso   1.000  Cu
  Cu18     1.0000 0.86863  0.65921  0.61960  Biso   1.000  Cu
  Cu19     1.0000 0.13137  0.15921  0.88040  Biso   1.000  Cu
  Cu20     1.0000 0.13137  0.34079  0.38040  Biso   1.000  Cu
  N33      1.0000 0.87201  0.95540  0.12374  Biso   1.000  N
  N34      1.0000 0.87201  0.54460  0.62374  Biso   1.000  N
  N35      1.0000 0.12799  0.04460  0.87626  Biso   1.000  N
  N36      1.0000 0.12799  0.45540  0.37626  Biso   1.000  N
  C217     1.0000 0.85640  0.99480  0.15469  Biso   1.000  C
  C218     1.0000 0.85640  0.50520  0.65469  Biso   1.000  C
  C219     1.0000 0.14360  0.00520  0.84531  Biso   1.000  C
  C220     1.0000 0.14360  0.49480  0.34531  Biso   1.000  C
  H225     1.0000 0.84210  0.96920  0.17420  Biso   1.000  H
  H226     1.0000 0.84210  0.53080  0.67420  Biso   1.000  H
  H227     1.0000 0.15790  0.03080  0.82580  Biso   1.000  H
  H228     1.0000 0.15790  0.46920  0.32580  Biso   1.000  H
  C221     1.0000 0.86100  0.07290  0.15820  Biso   1.000  C
  C222     1.0000 0.86100  0.42710  0.65820  Biso   1.000  C
  C223     1.0000 0.13900  0.92710  0.84180  Biso   1.000  C
  C224     1.0000 0.13900  0.57290  0.34180  Biso   1.000  C
  H229     1.0000 0.84960  0.09850  0.17980  Biso   1.000  H
  H230     1.0000 0.84960  0.40150  0.67980  Biso   1.000  H
  H231     1.0000 0.15040  0.90150  0.82020  Biso   1.000  H
  H232     1.0000 0.15040  0.59850  0.32020  Biso   1.000  H
  C225     1.0000 0.88230  0.11310  0.12975  Biso   1.000  C
  C226     1.0000 0.88230  0.38690  0.62975  Biso   1.000  C
  C227     1.0000 0.11770  0.88690  0.87025  Biso   1.000  C
  C228     1.0000 0.11770  0.61310  0.37025  Biso   1.000  C
  C229     1.0000 0.89750  0.07210  0.09784  Biso   1.000  C
  C230     1.0000 0.89750  0.42790  0.59784  Biso   1.000  C
  C231     1.0000 0.10250  0.92790  0.90216  Biso   1.000  C
  C232     1.0000 0.10250  0.57210  0.40216  Biso   1.000  C
  H233     1.0000 0.91160  0.09670  0.07780  Biso   1.000  H
  H234     1.0000 0.91160  0.40330  0.57780  Biso   1.000  H
  H235     1.0000 0.08840  0.90330  0.92220  Biso   1.000  H
  H236     1.0000 0.08840  0.59670  0.42220  Biso   1.000  H
  C233     1.0000 0.89210  0.99470  0.09553  Biso   1.000  C
  C234     1.0000 0.89210  0.50530  0.59553  Biso   1.000  C
  C235     1.0000 0.10790  0.00530  0.90447  Biso   1.000  C
  C236     1.0000 0.10790  0.49470  0.40447  Biso   1.000  C
  H237     1.0000 0.90260  0.96850  0.07370  Biso   1.000  H
  H238     1.0000 0.90260  0.53150  0.57370  Biso   1.000  H
  H239     1.0000 0.09740  0.03150  0.92630  Biso   1.000  H
  H240     1.0000 0.09740  0.46850  0.42630  Biso   1.000  H
  C237     1.0000 0.89060  0.19740  0.13500  Biso   1.000  C
  C238     1.0000 0.89060  0.30260  0.63500  Biso   1.000  C
  C239     1.0000 0.10940  0.80260  0.86500  Biso   1.000  C
  C240     1.0000 0.10940  0.69740  0.36500  Biso   1.000  C
  H241     1.0000 0.86030  0.22130  0.13780  Biso   1.000  H
  H242     1.0000 0.86030  0.27870  0.63780  Biso   1.000  H
  H243     1.0000 0.13970  0.77870  0.86220  Biso   1.000  H
  H244     1.0000 0.13970  0.72130  0.36220  Biso   1.000  H
  H245     1.0000 0.89630  0.21740  0.10720  Biso   1.000  H
  H246     1.0000 0.89630  0.28260  0.60720  Biso   1.000  H
  H247     1.0000 0.10370  0.78260  0.89280  Biso   1.000  H
  H248     1.0000 0.10370  0.71740  0.39280  Biso   1.000  H
  C241     1.0000 0.93650  0.21570  0.17850  Biso   1.000  C
  C242     1.0000 0.93650  0.28430  0.67850  Biso   1.000  C
  C243     1.0000 0.06350  0.78430  0.82150  Biso   1.000  C
  C244     1.0000 0.06350  0.71570  0.32150  Biso   1.000  C
  H249     1.0000 0.96600  0.18860  0.17620  Biso   1.000  H
  H250     1.0000 0.96600  0.31140  0.67620  Biso   1.000  H
  H251     1.0000 0.03400  0.81140  0.82380  Biso   1.000  H
  H252     1.0000 0.03400  0.68860  0.32380  Biso   1.000  H
  H253     1.0000 0.92970  0.19720  0.20610  Biso   1.000  H
  H254     1.0000 0.92970  0.30280  0.70610  Biso   1.000  H
  H255     1.0000 0.07030  0.80280  0.79390  Biso   1.000  H
  H256     1.0000 0.07030  0.69720  0.29390  Biso   1.000  H
  C245     1.0000 0.95000  0.29970  0.18560  Biso   1.000  C
  C246     1.0000 0.95000  0.20030  0.68560  Biso   1.000  C
  C247     1.0000 0.05000  0.70030  0.81440  Biso   1.000  C
  C248     1.0000 0.05000  0.79970  0.31440  Biso   1.000  C
  H257     1.0000 0.96000  0.31790  0.15950  Biso   1.000  H
  H258     1.0000 0.96000  0.18210  0.65950  Biso   1.000  H
  H259     1.0000 0.04000  0.68210  0.84050  Biso   1.000  H
  H260     1.0000 0.04000  0.81790  0.34050  Biso   1.000  H
  H261     1.0000 0.92020  0.32790  0.18590  Biso   1.000  H
  H262     1.0000 0.92020  0.17210  0.68590  Biso   1.000  H
  H263     1.0000 0.07980  0.67210  0.81410  Biso   1.000  H
  H264     1.0000 0.07980  0.82790  0.31410  Biso   1.000  H
  N37      1.0000 0.07356  0.33020  0.31676  Biso   1.000  N
  N38      1.0000 0.07356  0.16980  0.81676  Biso   1.000  N
  N39      1.0000 0.92644  0.66980  0.68324  Biso   1.000  N
  N40      1.0000 0.92644  0.83020  0.18324  Biso   1.000  N
  C249     1.0000 0.02470  0.32270  0.31510  Biso   1.000  C
  C250     1.0000 0.02470  0.17730  0.81510  Biso   1.000  C
  C251     1.0000 0.97530  0.67730  0.68490  Biso   1.000  C
  C252     1.0000 0.97530  0.82270  0.18490  Biso   1.000  C
  H265     1.0000 0.01770  0.32320  0.34320  Biso   1.000  H
  H266     1.0000 0.01770  0.17680  0.84320  Biso   1.000  H
  H267     1.0000 0.98230  0.67680  0.65680  Biso   1.000  H
  H268     1.0000 0.98230  0.82320  0.15680  Biso   1.000  H
  C253     1.0000 0.98460  0.31460  0.27390  Biso   1.000  C
  C254     1.0000 0.98460  0.18540  0.77390  Biso   1.000  C
  C255     1.0000 0.01540  0.68540  0.72610  Biso   1.000  C
  C256     1.0000 0.01540  0.81460  0.22610  Biso   1.000  C
  H269     1.0000 0.95160  0.31030  0.27470  Biso   1.000  H
  H270     1.0000 0.95160  0.18970  0.77470  Biso   1.000  H
  H271     1.0000 0.04840  0.68970  0.72530  Biso   1.000  H
  H272     1.0000 0.04840  0.81030  0.22530  Biso   1.000  H
  C257     1.0000 0.99310  0.31260  0.23120  Biso   1.000  C
  C258     1.0000 0.99310  0.18740  0.73120  Biso   1.000  C
  C259     1.0000 0.00690  0.68740  0.76880  Biso   1.000  C
  C260     1.0000 0.00690  0.81260  0.26880  Biso   1.000  C
  C261     1.0000 0.04350  0.31910  0.23290  Biso   1.000  C
  C262     1.0000 0.04350  0.18090  0.73290  Biso   1.000  C
  C263     1.0000 0.95650  0.68090  0.76710  Biso   1.000  C
  C264     1.0000 0.95650  0.81910  0.26710  Biso   1.000  C
  H273     1.0000 0.05130  0.31730  0.20520  Biso   1.000  H
  H274     1.0000 0.05130  0.18270  0.70520  Biso   1.000  H
  H275     1.0000 0.94870  0.68270  0.79480  Biso   1.000  H
  H276     1.0000 0.94870  0.81730  0.29480  Biso   1.000  H
  C265     1.0000 0.08210  0.32830  0.27520  Biso   1.000  C
  C266     1.0000 0.08210  0.17170  0.77520  Biso   1.000  C
  C267     1.0000 0.91790  0.67170  0.72480  Biso   1.000  C
  C268     1.0000 0.91790  0.82830  0.22480  Biso   1.000  C
  H277     1.0000 0.11530  0.33350  0.27510  Biso   1.000  H
  H278     1.0000 0.11530  0.16650  0.77510  Biso   1.000  H
  H279     1.0000 0.88470  0.66650  0.72490  Biso   1.000  H
  H280     1.0000 0.88470  0.83350  0.22490  Biso   1.000  H
  N41      1.0000 0.81420  0.85070  0.05414  Biso   1.000  N
  N42      1.0000 0.81420  0.64930  0.55414  Biso   1.000  N
  N43      1.0000 0.18580  0.14930  0.94586  Biso   1.000  N
  N44      1.0000 0.18580  0.35070  0.44586  Biso   1.000  N
  C269     1.0000 0.82510  0.84780  0.01360  Biso   1.000  C
  C270     1.0000 0.82510  0.65220  0.51360  Biso   1.000  C
  C271     1.0000 0.17490  0.15220  0.98640  Biso   1.000  C
  C272     1.0000 0.17490  0.34780  0.48640  Biso   1.000  C
  H281     1.0000 0.85910  0.84390  0.01530  Biso   1.000  H
  H282     1.0000 0.85910  0.65610  0.51530  Biso   1.000  H
  H283     1.0000 0.14090  0.15610  0.98470  Biso   1.000  H
  H284     1.0000 0.14090  0.34390  0.48470  Biso   1.000  H
  C273     1.0000 0.78820  0.85010  0.96980  Biso   1.000  C
  C274     1.0000 0.78820  0.64990  0.46980  Biso   1.000  C
  C275     1.0000 0.21180  0.14990  0.03020  Biso   1.000  C
  C276     1.0000 0.21180  0.35010  0.53020  Biso   1.000  C
  H285     1.0000 0.79780  0.84770  0.94300  Biso   1.000  H
  H286     1.0000 0.79780  0.65230  0.44300  Biso   1.000  H
  H287     1.0000 0.20220  0.15230  0.05700  Biso   1.000  H
  H288     1.0000 0.20220  0.34770  0.55700  Biso   1.000  H
  C277     1.0000 0.73680  0.85620  0.96531  Biso   1.000  C
  C278     1.0000 0.73680  0.64380  0.46531  Biso   1.000  C
  C279     1.0000 0.26320  0.14380  0.03469  Biso   1.000  C
  C280     1.0000 0.26320  0.35620  0.53469  Biso   1.000  C
  C281     1.0000 0.72570  0.86110  0.00710  Biso   1.000  C
  C282     1.0000 0.72570  0.63890  0.50710  Biso   1.000  C
  C283     1.0000 0.27430  0.13890  0.99290  Biso   1.000  C
  C284     1.0000 0.27430  0.36110  0.49290  Biso   1.000  C
  H289     1.0000 0.69200  0.86620  0.00610  Biso   1.000  H
  H290     1.0000 0.69200  0.63380  0.50610  Biso   1.000  H
  H291     1.0000 0.30800  0.13380  0.99390  Biso   1.000  H
  H292     1.0000 0.30800  0.36620  0.49390  Biso   1.000  H
  C285     1.0000 0.76440  0.85850  0.05000  Biso   1.000  C
  C286     1.0000 0.76440  0.64150  0.55000  Biso   1.000  C
  C287     1.0000 0.23560  0.14150  0.95000  Biso   1.000  C
  C288     1.0000 0.23560  0.35850  0.45000  Biso   1.000  C
  H293     1.0000 0.75580  0.86220  0.07720  Biso   1.000  H
  H294     1.0000 0.75580  0.63780  0.57720  Biso   1.000  H
  H295     1.0000 0.24420  0.13780  0.92280  Biso   1.000  H
  H296     1.0000 0.24420  0.36220  0.42280  Biso   1.000  H
  C289     1.0000 0.65320  0.98380  0.92210  Biso   1.000  C
  C290     1.0000 0.65320  0.51620  0.42210  Biso   1.000  C
  C291     1.0000 0.34680  0.01620  0.07790  Biso   1.000  C
  C292     1.0000 0.34680  0.48380  0.57790  Biso   1.000  C
  H297     1.0000 0.62030  0.96010  0.91650  Biso   1.000  H
  H298     1.0000 0.62030  0.53990  0.41650  Biso   1.000  H
  H299     1.0000 0.37970  0.03990  0.08350  Biso   1.000  H
  H300     1.0000 0.37970  0.46010  0.58350  Biso   1.000  H
  H301     1.0000 0.67110  0.98250  0.95560  Biso   1.000  H
  H302     1.0000 0.67110  0.51750  0.45560  Biso   1.000  H
  H303     1.0000 0.32890  0.01750  0.04440  Biso   1.000  H
  H304     1.0000 0.32890  0.48250  0.54440  Biso   1.000  H
  C293     1.0000 0.68330  0.93700  0.89770  Biso   1.000  C
  C294     1.0000 0.68330  0.56300  0.39770  Biso   1.000  C
  C295     1.0000 0.31670  0.06300  0.10230  Biso   1.000  C
  C296     1.0000 0.31670  0.43700  0.60230  Biso   1.000  C
  H305     1.0000 0.71500  0.96260  0.90080  Biso   1.000  H
  H306     1.0000 0.71500  0.53740  0.40080  Biso   1.000  H
  H307     1.0000 0.28500  0.03740  0.09920  Biso   1.000  H
  H308     1.0000 0.28500  0.46260  0.59920  Biso   1.000  H
  H309     1.0000 0.66390  0.93390  0.86440  Biso   1.000  H
  H310     1.0000 0.66390  0.56610  0.36440  Biso   1.000  H
  H311     1.0000 0.33610  0.06610  0.13560  Biso   1.000  H
  H312     1.0000 0.33610  0.43390  0.63560  Biso   1.000  H
  C297     1.0000 0.69530  0.85710  0.91720  Biso   1.000  C
  C298     1.0000 0.69530  0.64290  0.41720  Biso   1.000  C
  C299     1.0000 0.30470  0.14290  0.08280  Biso   1.000  C
  C300     1.0000 0.30470  0.35710  0.58280  Biso   1.000  C
  H313     1.0000 0.66450  0.83450  0.91990  Biso   1.000  H
  H314     1.0000 0.66450  0.66550  0.41990  Biso   1.000  H
  H315     1.0000 0.33550  0.16550  0.08010  Biso   1.000  H
  H316     1.0000 0.33550  0.33450  0.58010  Biso   1.000  H
  H317     1.0000 0.70630  0.82690  0.89550  Biso   1.000  H
  H318     1.0000 0.70630  0.67310  0.39550  Biso   1.000  H
  H319     1.0000 0.29370  0.17310  0.10450  Biso   1.000  H
  H320     1.0000 0.29370  0.32690  0.60450  Biso   1.000  H
  N45      1.0000 0.62730  0.21850  0.88095  Biso   1.000  N
  N46      1.0000 0.62730  0.28150  0.38095  Biso   1.000  N
  N47      1.0000 0.37270  0.78150  0.11905  Biso   1.000  N
  N48      1.0000 0.37270  0.71850  0.61905  Biso   1.000  N
  C301     1.0000 0.60450  0.18610  0.90940  Biso   1.000  C
  C302     1.0000 0.60450  0.31390  0.40940  Biso   1.000  C
  C303     1.0000 0.39550  0.81390  0.09060  Biso   1.000  C
  C304     1.0000 0.39550  0.68610  0.59060  Biso   1.000  C
  H321     1.0000 0.58270  0.21510  0.92020  Biso   1.000  H
  H322     1.0000 0.58270  0.28490  0.42020  Biso   1.000  H
  H323     1.0000 0.41730  0.78490  0.07980  Biso   1.000  H
  H324     1.0000 0.41730  0.71510  0.57980  Biso   1.000  H
  C305     1.0000 0.61230  0.11110  0.92330  Biso   1.000  C
  C306     1.0000 0.61230  0.38890  0.42330  Biso   1.000  C
  C307     1.0000 0.38770  0.88890  0.07670  Biso   1.000  C
  C308     1.0000 0.38770  0.61110  0.57670  Biso   1.000  C
  H325     1.0000 0.59640  0.09100  0.94330  Biso   1.000  H
  H326     1.0000 0.59640  0.40900  0.44330  Biso   1.000  H
  H327     1.0000 0.40360  0.90900  0.05670  Biso   1.000  H
  H328     1.0000 0.40360  0.59100  0.55670  Biso   1.000  H
  C309     1.0000 0.64440  0.06550  0.90690  Biso   1.000  C
  C310     1.0000 0.64440  0.43450  0.40690  Biso   1.000  C
  C311     1.0000 0.35560  0.93450  0.09310  Biso   1.000  C
  C312     1.0000 0.35560  0.56550  0.59310  Biso   1.000  C
  C313     1.0000 0.66670  0.09950  0.87680  Biso   1.000  C
  C314     1.0000 0.66670  0.40050  0.37680  Biso   1.000  C
  C315     1.0000 0.33330  0.90050  0.12320  Biso   1.000  C
  C316     1.0000 0.33330  0.59950  0.62320  Biso   1.000  C
  H329     1.0000 0.68770  0.07140  0.86460  Biso   1.000  H
  H330     1.0000 0.68770  0.42860  0.36460  Biso   1.000  H
  H331     1.0000 0.31230  0.92860  0.13540  Biso   1.000  H
  H332     1.0000 0.31230  0.57140  0.63540  Biso   1.000  H
  C317     1.0000 0.65800  0.17460  0.86510  Biso   1.000  C
  C318     1.0000 0.65800  0.32540  0.36510  Biso   1.000  C
  C319     1.0000 0.34200  0.82540  0.13490  Biso   1.000  C
  C320     1.0000 0.34200  0.67460  0.63490  Biso   1.000  C
  H333     1.0000 0.67390  0.19590  0.84540  Biso   1.000  H
  H334     1.0000 0.67390  0.30410  0.34540  Biso   1.000  H
  H335     1.0000 0.32610  0.80410  0.15460  Biso   1.000  H
  H336     1.0000 0.32610  0.69590  0.65460  Biso   1.000  H
  N49      1.0000 0.87094  0.72710  0.11210  Biso   1.000  N
  N50      1.0000 0.87094  0.77290  0.61210  Biso   1.000  N
  N51      1.0000 0.12906  0.27290  0.88790  Biso   1.000  N
  N52      1.0000 0.12906  0.22710  0.38790  Biso   1.000  N
  C321     1.0000 0.89250  0.69430  0.08320  Biso   1.000  C
  C322     1.0000 0.89250  0.80570  0.58320  Biso   1.000  C
  C323     1.0000 0.10750  0.30570  0.91680  Biso   1.000  C
  C324     1.0000 0.10750  0.19430  0.41680  Biso   1.000  C
  H337     1.0000 0.90660  0.72470  0.06560  Biso   1.000  H
  H338     1.0000 0.90660  0.77530  0.56560  Biso   1.000  H
  H339     1.0000 0.09340  0.27530  0.93440  Biso   1.000  H
  H340     1.0000 0.09340  0.22470  0.43440  Biso   1.000  H
  C325     1.0000 0.89440  0.61640  0.07860  Biso   1.000  C
  C326     1.0000 0.89440  0.88360  0.57860  Biso   1.000  C
  C327     1.0000 0.10560  0.38360  0.92140  Biso   1.000  C
  C328     1.0000 0.10560  0.11640  0.42140  Biso   1.000  C
  H341     1.0000 0.90950  0.59590  0.05800  Biso   1.000  H
  H342     1.0000 0.90950  0.90410  0.55800  Biso   1.000  H
  H343     1.0000 0.09050  0.40410  0.94200  Biso   1.000  H
  H344     1.0000 0.09050  0.09590  0.44200  Biso   1.000  H
  C329     1.0000 0.87410  0.56920  0.10430  Biso   1.000  C
  C330     1.0000 0.87410  0.93080  0.60430  Biso   1.000  C
  C331     1.0000 0.12590  0.43080  0.89570  Biso   1.000  C
  C332     1.0000 0.12590  0.06920  0.39570  Biso   1.000  C
  C333     1.0000 0.85170  0.60360  0.13400  Biso   1.000  C
  C334     1.0000 0.85170  0.89640  0.63400  Biso   1.000  C
  C335     1.0000 0.14830  0.39640  0.86600  Biso   1.000  C
  C336     1.0000 0.14830  0.10360  0.36600  Biso   1.000  C
  H345     1.0000 0.83660  0.57440  0.15140  Biso   1.000  H
  H346     1.0000 0.83660  0.92560  0.65140  Biso   1.000  H
  H347     1.0000 0.16340  0.42560  0.84860  Biso   1.000  H
  H348     1.0000 0.16340  0.07440  0.34860  Biso   1.000  H
  C337     1.0000 0.85170  0.68090  0.13760  Biso   1.000  C
  C338     1.0000 0.85170  0.81910  0.63760  Biso   1.000  C
  C339     1.0000 0.14830  0.31910  0.86240  Biso   1.000  C
  C340     1.0000 0.14830  0.18090  0.36240  Biso   1.000  C
  H349     1.0000 0.83770  0.70250  0.15870  Biso   1.000  H
  H350     1.0000 0.83770  0.79750  0.65870  Biso   1.000  H
  H351     1.0000 0.16230  0.29750  0.84130  Biso   1.000  H
  H352     1.0000 0.16230  0.20250  0.34130  Biso   1.000  H
  C341     1.0000 0.87290  0.48480  0.09700  Biso   1.000  C
  C342     1.0000 0.87290  0.01520  0.59700  Biso   1.000  C
  C343     1.0000 0.12710  0.51520  0.90300  Biso   1.000  C
  C344     1.0000 0.12710  0.98480  0.40300  Biso   1.000  C
  H353     1.0000 0.87010  0.45950  0.12470  Biso   1.000  H
  H354     1.0000 0.87010  0.04050  0.62470  Biso   1.000  H
  H355     1.0000 0.12990  0.54050  0.87530  Biso   1.000  H
  H356     1.0000 0.12990  0.95950  0.37530  Biso   1.000  H
  H357     1.0000 0.90420  0.46850  0.09250  Biso   1.000  H
  H358     1.0000 0.90420  0.03150  0.59250  Biso   1.000  H
  H359     1.0000 0.09580  0.53150  0.90750  Biso   1.000  H
  H360     1.0000 0.09580  0.96850  0.40750  Biso   1.000  H
  C345     1.0000 0.82130  0.37900  0.04400  Biso   1.000  C
  C346     1.0000 0.82130  0.12100  0.54400  Biso   1.000  C
  C347     1.0000 0.17870  0.62100  0.95600  Biso   1.000  C
  C348     1.0000 0.17870  0.87900  0.45600  Biso   1.000  C
  H361     1.0000 0.85140  0.36000  0.03800  Biso   1.000  H
  H362     1.0000 0.85140  0.14000  0.53800  Biso   1.000  H
  H363     1.0000 0.14860  0.64000  0.96200  Biso   1.000  H
  H364     1.0000 0.14860  0.86000  0.46200  Biso   1.000  H
  H365     1.0000 0.81820  0.35300  0.07120  Biso   1.000  H
  H366     1.0000 0.81820  0.14700  0.57120  Biso   1.000  H
  H367     1.0000 0.18180  0.64700  0.92880  Biso   1.000  H
  H368     1.0000 0.18180  0.85300  0.42880  Biso   1.000  H
  C349     1.0000 0.82700  0.46340  0.05380  Biso   1.000  C
  C350     1.0000 0.82700  0.03660  0.55380  Biso   1.000  C
  C351     1.0000 0.17300  0.53660  0.94620  Biso   1.000  C
  C352     1.0000 0.17300  0.96340  0.44620  Biso   1.000  C
  H369     1.0000 0.79610  0.48200  0.05830  Biso   1.000  H
  H370     1.0000 0.79610  0.01800  0.55830  Biso   1.000  H
  H371     1.0000 0.20390  0.51800  0.94170  Biso   1.000  H
  H372     1.0000 0.20390  0.98200  0.44170  Biso   1.000  H
  H373     1.0000 0.83050  0.48850  0.02640  Biso   1.000  H
  H374     1.0000 0.83050  0.01150  0.52640  Biso   1.000  H
  H375     1.0000 0.16950  0.51150  0.97360  Biso   1.000  H
  H376     1.0000 0.16950  0.98850  0.47360  Biso   1.000  H
  N53      1.0000 0.68625  0.34440  0.92307  Biso   1.000  N
  N54      1.0000 0.68625  0.15560  0.42307  Biso   1.000  N
  N55      1.0000 0.31375  0.65560  0.07693  Biso   1.000  N
  N56      1.0000 0.31375  0.84440  0.57693  Biso   1.000  N
  C353     1.0000 0.73280  0.34350  0.91890  Biso   1.000  C
  C354     1.0000 0.73280  0.15650  0.41890  Biso   1.000  C
  C355     1.0000 0.26720  0.65650  0.08110  Biso   1.000  C
  C356     1.0000 0.26720  0.84350  0.58110  Biso   1.000  C
  H377     1.0000 0.73560  0.33680  0.88930  Biso   1.000  H
  H378     1.0000 0.73560  0.16320  0.38930  Biso   1.000  H
  H379     1.0000 0.26440  0.66320  0.11070  Biso   1.000  H
  H380     1.0000 0.26440  0.83680  0.61070  Biso   1.000  H
  C357     1.0000 0.77760  0.35240  0.95740  Biso   1.000  C
  C358     1.0000 0.77760  0.14760  0.45740  Biso   1.000  C
  C359     1.0000 0.22240  0.64760  0.04260  Biso   1.000  C
  C360     1.0000 0.22240  0.85240  0.54260  Biso   1.000  C
  H381     1.0000 0.80920  0.35060  0.95300  Biso   1.000  H
  H382     1.0000 0.80920  0.14940  0.45300  Biso   1.000  H
  H383     1.0000 0.19080  0.64940  0.04700  Biso   1.000  H
  H384     1.0000 0.19080  0.85060  0.54700  Biso   1.000  H
  C361     1.0000 0.77470  0.36390  0.00190  Biso   1.000  C
  C362     1.0000 0.77470  0.13610  0.50190  Biso   1.000  C
  C363     1.0000 0.22530  0.63610  0.99810  Biso   1.000  C
  C364     1.0000 0.22530  0.86390  0.49810  Biso   1.000  C
  C365     1.0000 0.72610  0.36440  0.00550  Biso   1.000  C
  C366     1.0000 0.72610  0.13560  0.50550  Biso   1.000  C
  C367     1.0000 0.27390  0.63560  0.99450  Biso   1.000  C
  C368     1.0000 0.27390  0.86440  0.49450  Biso   1.000  C
  H385     1.0000 0.72220  0.37110  0.03470  Biso   1.000  H
  H386     1.0000 0.72220  0.12890  0.53470  Biso   1.000  H
  H387     1.0000 0.27780  0.62890  0.96530  Biso   1.000  H
  H388     1.0000 0.27780  0.87110  0.46530  Biso   1.000  H
  C369     1.0000 0.68330  0.35500  0.96600  Biso   1.000  C
  C370     1.0000 0.68330  0.14500  0.46600  Biso   1.000  C
  C371     1.0000 0.31670  0.64500  0.03400  Biso   1.000  C
  C372     1.0000 0.31670  0.85500  0.53400  Biso   1.000  C
  H389     1.0000 0.65130  0.35620  0.96960  Biso   1.000  H
  H390     1.0000 0.65130  0.14380  0.46960  Biso   1.000  H
  H391     1.0000 0.34870  0.64380  0.03040  Biso   1.000  H
  H392     1.0000 0.34870  0.85620  0.53040  Biso   1.000  H
  N57      1.0000 0.61736  0.44430  0.85699  Biso   1.000  N
  N58      1.0000 0.61736  0.05570  0.35699  Biso   1.000  N
  N59      1.0000 0.38264  0.55570  0.14301  Biso   1.000  N
  N60      1.0000 0.38264  0.94430  0.64301  Biso   1.000  N
  C373     1.0000 0.62660  0.47950  0.82160  Biso   1.000  C
  C374     1.0000 0.62660  0.02050  0.32160  Biso   1.000  C
  C375     1.0000 0.37340  0.52050  0.17840  Biso   1.000  C
  C376     1.0000 0.37340  0.97950  0.67840  Biso   1.000  C
  H393     1.0000 0.63820  0.45100  0.80120  Biso   1.000  H
  H394     1.0000 0.63820  0.04900  0.30120  Biso   1.000  H
  H395     1.0000 0.36180  0.54900  0.19880  Biso   1.000  H
  H396     1.0000 0.36180  0.95100  0.69880  Biso   1.000  H
  C377     1.0000 0.62000  0.55640  0.81330  Biso   1.000  C
  C378     1.0000 0.62000  0.94360  0.31330  Biso   1.000  C
  C379     1.0000 0.38000  0.44360  0.18670  Biso   1.000  C
  C380     1.0000 0.38000  0.05640  0.68670  Biso   1.000  C
  H397     1.0000 0.62730  0.57790  0.78810  Biso   1.000  H
  H398     1.0000 0.62730  0.92210  0.28810  Biso   1.000  H
  H399     1.0000 0.37270  0.42210  0.21190  Biso   1.000  H
  H400     1.0000 0.37270  0.07790  0.71190  Biso   1.000  H
  C381     1.0000 0.60250  0.60160  0.84280  Biso   1.000  C
  C382     1.0000 0.60250  0.89840  0.34280  Biso   1.000  C
  C383     1.0000 0.39750  0.39840  0.15720  Biso   1.000  C
  C384     1.0000 0.39750  0.10160  0.65720  Biso   1.000  C
  C385     1.0000 0.59480  0.56470  0.88070  Biso   1.000  C
  C386     1.0000 0.59480  0.93530  0.38070  Biso   1.000  C
  C387     1.0000 0.40520  0.43530  0.11930  Biso   1.000  C
  C388     1.0000 0.40520  0.06470  0.61930  Biso   1.000  C
  H401     1.0000 0.58440  0.59200  0.90220  Biso   1.000  H
  H402     1.0000 0.58440  0.90800  0.40220  Biso   1.000  H
  H403     1.0000 0.41560  0.40800  0.09780  Biso   1.000  H
  H404     1.0000 0.41560  0.09200  0.59780  Biso   1.000  H
  C389     1.0000 0.60240  0.48840  0.88670  Biso   1.000  C
  C390     1.0000 0.60240  0.01160  0.38670  Biso   1.000  C
  C391     1.0000 0.39760  0.51160  0.11330  Biso   1.000  C
  C392     1.0000 0.39760  0.98840  0.61330  Biso   1.000  C
  H405     1.0000 0.59700  0.46580  0.91250  Biso   1.000  H
  H406     1.0000 0.59700  0.03420  0.41250  Biso   1.000  H
  H407     1.0000 0.40300  0.53420  0.08750  Biso   1.000  H
  H408     1.0000 0.40300  0.96580  0.58750  Biso   1.000  H
  C393     1.0000 0.58920  0.68480  0.83400  Biso   1.000  C
  C394     1.0000 0.58920  0.81520  0.33400  Biso   1.000  C
  C395     1.0000 0.41080  0.31520  0.16600  Biso   1.000  C
  C396     1.0000 0.41080  0.18480  0.66600  Biso   1.000  C
  H409     1.0000 0.55270  0.68850  0.81790  Biso   1.000  H
  H410     1.0000 0.55270  0.81150  0.31790  Biso   1.000  H
  H411     1.0000 0.44730  0.31150  0.18210  Biso   1.000  H
  H412     1.0000 0.44730  0.18850  0.68210  Biso   1.000  H
  H413     1.0000 0.59620  0.70920  0.86430  Biso   1.000  H
  H414     1.0000 0.59620  0.79080  0.36430  Biso   1.000  H
  H415     1.0000 0.40380  0.29080  0.13570  Biso   1.000  H
  H416     1.0000 0.40380  0.20920  0.63570  Biso   1.000  H
  C397     1.0000 0.61550  0.72850  0.80650  Biso   1.000  C
  C398     1.0000 0.61550  0.77150  0.30650  Biso   1.000  C
  C399     1.0000 0.38450  0.27150  0.19350  Biso   1.000  C
  C400     1.0000 0.38450  0.22850  0.69350  Biso   1.000  C
  H417     1.0000 0.61140  0.70270  0.77710  Biso   1.000  H
  H418     1.0000 0.61140  0.79730  0.27710  Biso   1.000  H
  H419     1.0000 0.38860  0.29730  0.22290  Biso   1.000  H
  H420     1.0000 0.38860  0.20270  0.72290  Biso   1.000  H
  H421     1.0000 0.65170  0.73090  0.82400  Biso   1.000  H
  H422     1.0000 0.65170  0.76910  0.32400  Biso   1.000  H
  H423     1.0000 0.34830  0.26910  0.17600  Biso   1.000  H
  H424     1.0000 0.34830  0.23090  0.67600  Biso   1.000  H
  C401     1.0000 0.59400  0.80990  0.79590  Biso   1.000  C
  C402     1.0000 0.59400  0.69010  0.29590  Biso   1.000  C
  C403     1.0000 0.40600  0.19010  0.20410  Biso   1.000  C
  C404     1.0000 0.40600  0.30990  0.70410  Biso   1.000  C
  H425     1.0000 0.59160  0.83190  0.82460  Biso   1.000  H
  H426     1.0000 0.59160  0.66810  0.32460  Biso   1.000  H
  H427     1.0000 0.40840  0.16810  0.17540  Biso   1.000  H
  H428     1.0000 0.40840  0.33190  0.67540  Biso   1.000  H
  H429     1.0000 0.61760  0.84030  0.78590  Biso   1.000  H
  H430     1.0000 0.61760  0.65970  0.28590  Biso   1.000  H
  H431     1.0000 0.38240  0.15970  0.21410  Biso   1.000  H
  H432     1.0000 0.38240  0.34030  0.71410  Biso   1.000  H
  N61      1.0000 0.44612  0.81730  0.68671  Biso   1.000  N
  N62      1.0000 0.44612  0.68270  0.18671  Biso   1.000  N
  N63      1.0000 0.55388  0.18270  0.31329  Biso   1.000  N
  N64      1.0000 0.55388  0.31730  0.81329  Biso   1.000  N
  C405     1.0000 0.45010  0.82080  0.73240  Biso   1.000  C
  C406     1.0000 0.45010  0.67920  0.23240  Biso   1.000  C
  C407     1.0000 0.54990  0.17920  0.26760  Biso   1.000  C
  C408     1.0000 0.54990  0.32080  0.76760  Biso   1.000  C
  H433     1.0000 0.42060  0.82490  0.74030  Biso   1.000  H
  H434     1.0000 0.42060  0.67510  0.24030  Biso   1.000  H
  H435     1.0000 0.57940  0.17510  0.25970  Biso   1.000  H
  H436     1.0000 0.57940  0.32490  0.75970  Biso   1.000  H
  C409     1.0000 0.49720  0.81840  0.76840  Biso   1.000  C
  C410     1.0000 0.49720  0.68160  0.26840  Biso   1.000  C
  C411     1.0000 0.50280  0.18160  0.23160  Biso   1.000  C
  C412     1.0000 0.50280  0.31840  0.73160  Biso   1.000  C
  H437     1.0000 0.49830  0.82100  0.79950  Biso   1.000  H
  H438     1.0000 0.49830  0.67900  0.29950  Biso   1.000  H
  H439     1.0000 0.50170  0.17900  0.20050  Biso   1.000  H
  H440     1.0000 0.50170  0.32100  0.70050  Biso   1.000  H
  C413     1.0000 0.54200  0.81230  0.75830  Biso   1.000  C
  C414     1.0000 0.54200  0.68770  0.25830  Biso   1.000  C
  C415     1.0000 0.45800  0.18770  0.24170  Biso   1.000  C
  C416     1.0000 0.45800  0.31230  0.74170  Biso   1.000  C
  C417     1.0000 0.53780  0.80690  0.71140  Biso   1.000  C
  C418     1.0000 0.53780  0.69310  0.21140  Biso   1.000  C
  C419     1.0000 0.46220  0.19310  0.28860  Biso   1.000  C
  C420     1.0000 0.46220  0.30690  0.78860  Biso   1.000  C
  H441     1.0000 0.56700  0.80130  0.70290  Biso   1.000  H
  H442     1.0000 0.56700  0.69870  0.20290  Biso   1.000  H
  H443     1.0000 0.43300  0.19870  0.29710  Biso   1.000  H
  H444     1.0000 0.43300  0.30130  0.79710  Biso   1.000  H
  C421     1.0000 0.49020  0.80970  0.67690  Biso   1.000  C
  C422     1.0000 0.49020  0.69030  0.17690  Biso   1.000  C
  C423     1.0000 0.50980  0.19030  0.32310  Biso   1.000  C
  C424     1.0000 0.50980  0.30970  0.82310  Biso   1.000  C
  H445     1.0000 0.48840  0.80610  0.64560  Biso   1.000  H
  H446     1.0000 0.48840  0.69390  0.14560  Biso   1.000  H
  H447     1.0000 0.51160  0.19390  0.35440  Biso   1.000  H
  H448     1.0000 0.51160  0.30610  0.85440  Biso   1.000  H
  S1       1.0000 0.45639  0.87464  0.53542  Biso   1.000  S
  S2       1.0000 0.45639  0.62536  0.03542  Biso   1.000  S
  S3       1.0000 0.54361  0.12536  0.46458  Biso   1.000  S
  S4       1.0000 0.54361  0.37464  0.96458  Biso   1.000  S
  O25      1.0000 0.43704  0.84760  0.57154  Biso   1.000  O
  O26      1.0000 0.43704  0.65240  0.07154  Biso   1.000  O
  O27      1.0000 0.56296  0.15240  0.42846  Biso   1.000  O
  O28      1.0000 0.56296  0.34760  0.92846  Biso   1.000  O
  O29      1.0000 0.47050  0.96070  0.54990  Biso   1.000  O
  O30      1.0000 0.47050  0.53930  0.04990  Biso   1.000  O
  O31      1.0000 0.52950  0.03930  0.45010  Biso   1.000  O
  O32      1.0000 0.52950  0.46070  0.95010  Biso   1.000  O
  O33      1.0000 0.42390  0.87720  0.48840  Biso   1.000  O
  O34      1.0000 0.42390  0.62280  0.98840  Biso   1.000  O
  O35      1.0000 0.57610  0.12280  0.51160  Biso   1.000  O
  O36      1.0000 0.57610  0.37720  0.01160  Biso   1.000  O
  O37      1.0000 0.50680  0.84160  0.54100  Biso   1.000  O
  O38      1.0000 0.50680  0.65840  0.04100  Biso   1.000  O
  O39      1.0000 0.49320  0.15840  0.45900  Biso   1.000  O
  O40      1.0000 0.49320  0.34160  0.95900  Biso   1.000  O
  O41      1.0000 0.51070  0.87610  0.54850  Biso   1.000  O
  O42      1.0000 0.51070  0.62390  0.04850  Biso   1.000  O
  O43      1.0000 0.48930  0.12390  0.45150  Biso   1.000  O
  O44      1.0000 0.48930  0.37610  0.95150  Biso   1.000  O
  O45      1.0000 0.42970  0.94010  0.51160  Biso   1.000  O
  O46      1.0000 0.42970  0.55990  0.01160  Biso   1.000  O
  O47      1.0000 0.57030  0.05990  0.48840  Biso   1.000  O
  O48      1.0000 0.57030  0.44010  0.98840  Biso   1.000  O
  O49      1.0000 0.43860  0.80840  0.49890  Biso   1.000  O
  O50      1.0000 0.43860  0.69160  0.99890  Biso   1.000  O
  O51      1.0000 0.56140  0.19160  0.50110  Biso   1.000  O
  O52      1.0000 0.56140  0.30840  0.00110  Biso   1.000  O
  S5       1.0000 0.69293  0.30201  0.77647  Biso   1.000  S
  S6       1.0000 0.69293  0.19799  0.27647  Biso   1.000  S
  S7       1.0000 0.30707  0.69799  0.22353  Biso   1.000  S
  S8       1.0000 0.30707  0.80201  0.72353  Biso   1.000  S
  O53      1.0000 0.72800  0.23790  0.79130  Biso   1.000  O
  O54      1.0000 0.72800  0.26210  0.29130  Biso   1.000  O
  O55      1.0000 0.27200  0.76210  0.20870  Biso   1.000  O
  O56      1.0000 0.27200  0.73790  0.70870  Biso   1.000  O
  O57      1.0000 0.66997  0.32020  0.81279  Biso   1.000  O
  O58      1.0000 0.66997  0.17980  0.31279  Biso   1.000  O
  O59      1.0000 0.33003  0.67980  0.18721  Biso   1.000  O
  O60      1.0000 0.33003  0.82020  0.68721  Biso   1.000  O
  O61      1.0000 0.65200  0.28150  0.73256  Biso   1.000  O
  O62      1.0000 0.65200  0.21850  0.23256  Biso   1.000  O
  O63      1.0000 0.34800  0.71850  0.26744  Biso   1.000  O
  O64      1.0000 0.34800  0.78150  0.76744  Biso   1.000  O
  O65      1.0000 0.72120  0.36760  0.76824  Biso   1.000  O
  O66      1.0000 0.72120  0.13240  0.26824  Biso   1.000  O
  O67      1.0000 0.27880  0.63240  0.23176  Biso   1.000  O
  O68      1.0000 0.27880  0.86760  0.73176  Biso   1.000  O
  S9       1.0000 0.18244  0.39761  0.65532  Biso   1.000  S
  S10      1.0000 0.18244  0.10239  0.15532  Biso   1.000  S
  S11      1.0000 0.81756  0.60239  0.34468  Biso   1.000  S
  S12      1.0000 0.81756  0.89761  0.84468  Biso   1.000  S
  O69      1.0000 0.15650  0.37000  0.68801  Biso   1.000  O
  O70      1.0000 0.15650  0.13000  0.18801  Biso   1.000  O
  O71      1.0000 0.84350  0.63000  0.31199  Biso   1.000  O
  O72      1.0000 0.84350  0.87000  0.81199  Biso   1.000  O
  O73      1.0000 0.23505  0.37050  0.66883  Biso   1.000  O
  O74      1.0000 0.23505  0.12950  0.16883  Biso   1.000  O
  O75      1.0000 0.76495  0.62950  0.33117  Biso   1.000  O
  O76      1.0000 0.76495  0.87050  0.83117  Biso   1.000  O
  O77      1.0000 0.18060  0.48130  0.65425  Biso   1.000  O
  O78      1.0000 0.18060  0.01870  0.15425  Biso   1.000  O
  O79      1.0000 0.81940  0.51870  0.34575  Biso   1.000  O
  O80      1.0000 0.81940  0.98130  0.84575  Biso   1.000  O
  O81      1.0000 0.15299  0.36920  0.60761  Biso   1.000  O
  O82      1.0000 0.15299  0.13080  0.10761  Biso   1.000  O
  O83      1.0000 0.84701  0.63080  0.39239  Biso   1.000  O
  O84      1.0000 0.84701  0.86920  0.89239  Biso   1.000  O
  S13      1.0000 0.76612  0.66927  0.67645  Biso   1.000  S
  S14      1.0000 0.76612  0.83073  0.17645  Biso   1.000  S
  S15      1.0000 0.23388  0.33073  0.32355  Biso   1.000  S
  S16      1.0000 0.23388  0.16927  0.82355  Biso   1.000  S
  O85      1.0000 0.71619  0.67080  0.63914  Biso   1.000  O
  O86      1.0000 0.71619  0.82920  0.13914  Biso   1.000  O
  O87      1.0000 0.28381  0.32920  0.36086  Biso   1.000  O
  O88      1.0000 0.28381  0.17080  0.86086  Biso   1.000  O
  O89      1.0000 0.77028  0.60320  0.70725  Biso   1.000  O
  O90      1.0000 0.77028  0.89680  0.20725  Biso   1.000  O
  O91      1.0000 0.22972  0.39680  0.29275  Biso   1.000  O
  O92      1.0000 0.22972  0.10320  0.79275  Biso   1.000  O
  O93      1.0000 0.77268  0.73840  0.70549  Biso   1.000  O
  O94      1.0000 0.77268  0.76160  0.20549  Biso   1.000  O
  O95      1.0000 0.22732  0.26160  0.29451  Biso   1.000  O
  O96      1.0000 0.22732  0.23840  0.79451  Biso   1.000  O
  O97      1.0000 0.80715  0.66620  0.65544  Biso   1.000  O
  O98      1.0000 0.80715  0.83380  0.15544  Biso   1.000  O
  O99      1.0000 0.19285  0.33380  0.34456  Biso   1.000  O
  O100     1.0000 0.19285  0.16620  0.84456  Biso   1.000  O
  S17      1.0000 0.98949  0.67144  0.56481  Biso   1.000  S
  S18      1.0000 0.98949  0.82856  0.06481  Biso   1.000  S
  S19      1.0000 0.01051  0.32856  0.43519  Biso   1.000  S
  S20      1.0000 0.01051  0.17144  0.93519  Biso   1.000  S
  O101     1.0000 0.97380  0.70890  0.51859  Biso   1.000  O
  O102     1.0000 0.97380  0.79110  0.01859  Biso   1.000  O
  O103     1.0000 0.02620  0.29110  0.48141  Biso   1.000  O
  O104     1.0000 0.02620  0.20890  0.98141  Biso   1.000  O
  O105     1.0000 0.02268  0.72330  0.60101  Biso   1.000  O
  O106     1.0000 0.02268  0.77670  0.10101  Biso   1.000  O
  O107     1.0000 0.97732  0.27670  0.39899  Biso   1.000  O
  O108     1.0000 0.97732  0.22330  0.89899  Biso   1.000  O
  O109     1.0000 0.01948  0.60310  0.56310  Biso   1.000  O
  O110     1.0000 0.01948  0.89690  0.06310  Biso   1.000  O
  O111     1.0000 0.98052  0.39690  0.43690  Biso   1.000  O
  O112     1.0000 0.98052  0.10310  0.93690  Biso   1.000  O
  O113     1.0000 0.94404  0.65100  0.57701  Biso   1.000  O
  O114     1.0000 0.94404  0.84900  0.07701  Biso   1.000  O
  O115     1.0000 0.05596  0.34900  0.42299  Biso   1.000  O
  O116     1.0000 0.05596  0.15100  0.92299  Biso   1.000  O
  O117     1.0000 0.01848  0.66020  0.45387  Biso   1.000  O
  O118     1.0000 0.01848  0.83980  0.95387  Biso   1.000  O
  O119     1.0000 0.98152  0.33980  0.54613  Biso   1.000  O
  O120     1.0000 0.98152  0.16020  0.04613  Biso   1.000  O
  O121     1.0000 0.05131  0.50530  0.48365  Biso   1.000  O
  O122     1.0000 0.05131  0.99470  0.98365  Biso   1.000  O
  O123     1.0000 0.94869  0.49470  0.51635  Biso   1.000  O
  O124     1.0000 0.94869  0.00530  0.01635  Biso   1.000  O
  O125     1.0000 0.15072  0.21670  0.70454  Biso   1.000  O
  O126     1.0000 0.15072  0.28330  0.20454  Biso   1.000  O
  O127     1.0000 0.84928  0.78330  0.29546  Biso   1.000  O
  O128     1.0000 0.84928  0.71670  0.79546  Biso   1.000  O
  O129     1.0000 0.88770  0.76110  0.44600  Biso   1.000  O
  O130     1.0000 0.88770  0.73890  0.94600  Biso   1.000  O
  O131     1.0000 0.11230  0.23890  0.55400  Biso   1.000  O
  O132     1.0000 0.11230  0.26110  0.05400  Biso   1.000  O
  O133     1.0000 0.20560  0.39550  0.78397  Biso   1.000  O
  O134     1.0000 0.20560  0.10450  0.28397  Biso   1.000  O
  O135     1.0000 0.79440  0.60450  0.21603  Biso   1.000  O
  O136     1.0000 0.79440  0.89550  0.71603  Biso   1.000  O
  O137     1.0000 0.04810  0.18360  0.13860  Biso   1.000  O
  O138     1.0000 0.04810  0.31640  0.63860  Biso   1.000  O
  O139     1.0000 0.95190  0.81640  0.86140  Biso   1.000  O
  O140     1.0000 0.95190  0.68360  0.36140  Biso   1.000  O
  O141     1.0000 0.18150  0.74060  0.13820  Biso   1.000  O
  O142     1.0000 0.18150  0.75940  0.63820  Biso   1.000  O
  O143     1.0000 0.81850  0.25940  0.86180  Biso   1.000  O
  O144     1.0000 0.81850  0.24060  0.36180  Biso   1.000  O
  O145     1.0000 0.62740  0.67830  0.56360  Biso   1.000  O
  O146     1.0000 0.62740  0.82170  0.06360  Biso   1.000  O
  O147     1.0000 0.37260  0.32170  0.43640  Biso   1.000  O
  O148     1.0000 0.37260  0.17830  0.93640  Biso   1.000  O
  O149     1.0000 0.29660  0.20200  0.25230  Biso   1.000  O
  O150     1.0000 0.29660  0.29800  0.75230  Biso   1.000  O
  O151     1.0000 0.70340  0.79800  0.74770  Biso   1.000  O
  O152     1.0000 0.70340  0.70200  0.24770  Biso   1.000  O
  O153     1.0000 0.26570  0.57140  0.69710  Biso   1.000  O
  O154     1.0000 0.26570  0.92860  0.19710  Biso   1.000  O
  O155     1.0000 0.73430  0.42860  0.30290  Biso   1.000  O
  O156     1.0000 0.73430  0.07140  0.80290  Biso   1.000  O
  O157     1.0000 0.95370  0.15320  0.45040  Biso   1.000  O
  O158     1.0000 0.95370  0.34680  0.95040  Biso   1.000  O
  O159     1.0000 0.04630  0.84680  0.54960  Biso   1.000  O
  O160     1.0000 0.04630  0.65320  0.04960  Biso   1.000  O
  O161     1.0000 0.42680  0.71400  0.35530  Biso   1.000  O
  O162     1.0000 0.42680  0.78600  0.85530  Biso   1.000  O
  O163     1.0000 0.57320  0.28600  0.64470  Biso   1.000  O
  O164     1.0000 0.57320  0.21400  0.14470  Biso   1.000  O
  O165     1.0000 0.43310  0.67350  0.91060  Biso   1.000  O
  O166     1.0000 0.43310  0.82650  0.41060  Biso   1.000  O
  O167     1.0000 0.56690  0.32650  0.08940  Biso   1.000  O
  O168     1.0000 0.56690  0.17350  0.58940  Biso   1.000  O
  O169     1.0000 0.32140  0.46340  0.72240  Biso   1.000  O
  O170     1.0000 0.32140  0.03660  0.22240  Biso   1.000  O
  O171     1.0000 0.67860  0.53660  0.27760  Biso   1.000  O
  O172     1.0000 0.67860  0.96340  0.77760  Biso   1.000  O
  O173     1.0000 0.26670  0.82270  0.29700  Biso   1.000  O
  O174     1.0000 0.26670  0.67730  0.79700  Biso   1.000  O
  O175     1.0000 0.73330  0.17730  0.70300  Biso   1.000  O
  O176     1.0000 0.73330  0.32270  0.20300  Biso   1.000  O
  C425     1.0000 0.21390  0.84330  0.28090  Biso   1.000  C
  C426     1.0000 0.21390  0.65670  0.78090  Biso   1.000  C
  C427     1.0000 0.78610  0.15670  0.71910  Biso   1.000  C
  C428     1.0000 0.78610  0.34330  0.21910  Biso   1.000  C
  C429     1.0000 0.20070  0.87250  0.32250  Biso   1.000  C
  C430     1.0000 0.20070  0.62750  0.82250  Biso   1.000  C
  C431     1.0000 0.79930  0.12750  0.67750  Biso   1.000  C
  C432     1.0000 0.79930  0.37250  0.17750  Biso   1.000  C
  O177     1.0000 0.55310  0.89080  0.47540  Biso   1.000  O
  O178     1.0000 0.55310  0.60920  0.97540  Biso   1.000  O
  O179     1.0000 0.44690  0.10920  0.52460  Biso   1.000  O
  O180     1.0000 0.44690  0.39080  0.02460  Biso   1.000  O
  O181     1.0000 0.00130  0.91360  0.39990  Biso   1.000  O
  O182     1.0000 0.00130  0.58640  0.89990  Biso   1.000  O
  O183     1.0000 0.99870  0.08640  0.60010  Biso   1.000  O
  O184     1.0000 0.99870  0.41360  0.10010  Biso   1.000  O
  O185     1.0000 0.06040  0.80870  0.46470  Biso   1.000  O
  O186     1.0000 0.06040  0.69130  0.96470  Biso   1.000  O
  O187     1.0000 0.93960  0.19130  0.53530  Biso   1.000  O
  O188     1.0000 0.93960  0.30870  0.03530  Biso   1.000  O
  O189     1.0000 0.61070  0.75740  0.47670  Biso   1.000  O
  O190     1.0000 0.61070  0.74260  0.97670  Biso   1.000  O
  O191     1.0000 0.38930  0.24260  0.52330  Biso   1.000  O
  O192     1.0000 0.38930  0.25740  0.02330  Biso   1.000  O
  O193     1.0000 0.01900  0.02820  0.46670  Biso   1.000  O
  O194     1.0000 0.01900  0.47180  0.96670  Biso   1.000  O
  O195     1.0000 0.98100  0.97180  0.53330  Biso   1.000  O
  O196     1.0000 0.98100  0.52820  0.03330  Biso   1.000  O
  O197     1.0000 0.86400  0.09570  0.39880  Biso   1.000  O
  O198     1.0000 0.86400  0.40430  0.89880  Biso   1.000  O
  O199     1.0000 0.13600  0.90430  0.60120  Biso   1.000  O
  O200     1.0000 0.13600  0.59570  0.10120  Biso   1.000  O
  O201     1.0000 0.09370  0.34780  0.12160  Biso   1.000  O
  O202     1.0000 0.09370  0.15220  0.62160  Biso   1.000  O
  O203     1.0000 0.90630  0.65220  0.87840  Biso   1.000  O
  O204     1.0000 0.90630  0.84780  0.37840  Biso   1.000  O
  O205     1.0000 0.45700  0.33240  0.59620  Biso   1.000  O
  O206     1.0000 0.45700  0.16760  0.09620  Biso   1.000  O
  O207     1.0000 0.54300  0.66760  0.40380  Biso   1.000  O
  O208     1.0000 0.54300  0.83240  0.90380  Biso   1.000  O
  O209     1.0000 0.11850  0.47310  0.04600  Biso   1.000  O
  O210     1.0000 0.11850  0.02690  0.54600  Biso   1.000  O
  O211     1.0000 0.88150  0.52690  0.95400  Biso   1.000  O
  O212     1.0000 0.88150  0.97310  0.45400  Biso   1.000  O
  O213     1.0000 0.48410  0.66070  0.88970  Biso   1.000  O
  O214     1.0000 0.48410  0.83930  0.38970  Biso   1.000  O
  O215     1.0000 0.51590  0.33930  0.11030  Biso   1.000  O
  O216     1.0000 0.51590  0.16070  0.61030  Biso   1.000  O
  O217     1.0000 0.46340  0.65560  0.51310  Biso   1.000  O
  O218     1.0000 0.46340  0.84440  0.01310  Biso   1.000  O
  O219     1.0000 0.53660  0.34440  0.48690  Biso   1.000  O
  O220     1.0000 0.53660  0.15560  0.98690  Biso   1.000  O
  O221     1.0000 0.42840  0.58800  0.42970  Biso   1.000  O
  O222     1.0000 0.42840  0.91200  0.92970  Biso   1.000  O
  O223     1.0000 0.57160  0.41200  0.57030  Biso   1.000  O
  O224     1.0000 0.57160  0.08800  0.07030  Biso   1.000  O
  O225     1.0000 0.47170  0.45030  0.55220  Biso   1.000  O
  O226     1.0000 0.47170  0.04970  0.05220  Biso   1.000  O
  O227     1.0000 0.52830  0.54970  0.44780  Biso   1.000  O
  O228     1.0000 0.52830  0.95030  0.94780  Biso   1.000  O
  O229     1.0000 0.40260  0.47450  0.47900  Biso   1.000  O
  O230     1.0000 0.40260  0.02550  0.97900  Biso   1.000  O
  O231     1.0000 0.59740  0.52550  0.52100  Biso   1.000  O
  O232     1.0000 0.59740  0.97450  0.02100  Biso   1.000  O
  O233     1.0000 0.47540  0.31000  0.43240  Biso   1.000  O
  O234     1.0000 0.47540  0.19000  0.93240  Biso   1.000  O
  O235     1.0000 0.52460  0.69000  0.56760  Biso   1.000  O
  O236     1.0000 0.52460  0.81000  0.06760  Biso   1.000  O
  O237     1.0000 0.43910  0.42870  0.45400  Biso   1.000  O
  O238     1.0000 0.43910  0.07130  0.95400  Biso   1.000  O
  O239     1.0000 0.56090  0.57130  0.54600  Biso   1.000  O
  O240     1.0000 0.56090  0.92870  0.04600  Biso   1.000  O
