data_image0
_cell_length_a       19.1231
_cell_length_b       19.1231
_cell_length_c       19.3407
_cell_angle_alpha    90
_cell_angle_beta     90
_cell_angle_gamma    90

_symmetry_space_group_name_H-M    "P 1"
_symmetry_int_tables_number       1

loop_
  _symmetry_equiv_pos_as_xyz
  'x, y, z'

loop_
  _atom_site_label
  _atom_site_occupancy
  _atom_site_fract_x
  _atom_site_fract_y
  _atom_site_fract_z
  _atom_site_thermal_displace_type
  _atom_site_B_iso_or_equiv
  _atom_site_type_symbol
  Cu1      1.0000 0.20102  0.92479  0.12377  Biso   1.000  Cu
  Cu2      1.0000 0.29898  0.07521  0.62377  Biso   1.000  Cu
  Cu3      1.0000 0.82521  0.45102  0.37377  Biso   1.000  Cu
  Cu4      1.0000 0.67479  0.54898  0.87377  Biso   1.000  Cu
  Cu5      1.0000 0.70102  0.42479  0.62377  Biso   1.000  Cu
  Cu6      1.0000 0.79898  0.57521  0.12377  Biso   1.000  Cu
  Cu7      1.0000 0.32521  0.95102  0.87377  Biso   1.000  Cu
  Cu8      1.0000 0.17479  0.04898  0.37377  Biso   1.000  Cu
  Cu9      1.0000 0.79898  0.07521  0.87623  Biso   1.000  Cu
  Cu10     1.0000 0.70102  0.92479  0.37623  Biso   1.000  Cu
  Cu11     1.0000 0.67479  0.04898  0.12623  Biso   1.000  Cu
  Cu12     1.0000 0.82521  0.95102  0.62623  Biso   1.000  Cu
  Cu13     1.0000 0.29898  0.57521  0.37623  Biso   1.000  Cu
  Cu14     1.0000 0.20102  0.42479  0.87623  Biso   1.000  Cu
  Cu15     1.0000 0.17479  0.54898  0.62623  Biso   1.000  Cu
  Cu16     1.0000 0.32521  0.45102  0.12623  Biso   1.000  Cu
  C1       1.0000 0.29810  0.81040  0.10530  Biso   1.000  C
  C2       1.0000 0.20190  0.18960  0.60530  Biso   1.000  C
  C3       1.0000 0.93960  0.54810  0.35530  Biso   1.000  C
  C4       1.0000 0.56040  0.45190  0.85530  Biso   1.000  C
  C5       1.0000 0.79810  0.31040  0.60530  Biso   1.000  C
  C6       1.0000 0.70190  0.68960  0.10530  Biso   1.000  C
  C7       1.0000 0.43960  0.04810  0.85530  Biso   1.000  C
  C8       1.0000 0.06040  0.95190  0.35530  Biso   1.000  C
  C9       1.0000 0.70190  0.18960  0.89470  Biso   1.000  C
  C10      1.0000 0.79810  0.81040  0.39470  Biso   1.000  C
  C11      1.0000 0.56040  0.95190  0.14470  Biso   1.000  C
  C12      1.0000 0.93960  0.04810  0.64470  Biso   1.000  C
  C13      1.0000 0.20190  0.68960  0.39470  Biso   1.000  C
  C14      1.0000 0.29810  0.31040  0.89470  Biso   1.000  C
  C15      1.0000 0.06040  0.45190  0.64470  Biso   1.000  C
  C16      1.0000 0.43960  0.54810  0.14470  Biso   1.000  C
  H1       1.0000 0.28360  0.81660  0.05980  Biso   1.000  H
  H2       1.0000 0.21640  0.18340  0.55980  Biso   1.000  H
  H3       1.0000 0.93340  0.53360  0.30980  Biso   1.000  H
  H4       1.0000 0.56660  0.46640  0.80980  Biso   1.000  H
  H5       1.0000 0.78360  0.31660  0.55980  Biso   1.000  H
  H6       1.0000 0.71640  0.68340  0.05980  Biso   1.000  H
  H7       1.0000 0.43340  0.03360  0.80980  Biso   1.000  H
  H8       1.0000 0.06660  0.96640  0.30980  Biso   1.000  H
  H9       1.0000 0.71640  0.18340  0.94020  Biso   1.000  H
  H10      1.0000 0.78360  0.81660  0.44020  Biso   1.000  H
  H11      1.0000 0.56660  0.96640  0.19020  Biso   1.000  H
  H12      1.0000 0.93340  0.03360  0.69020  Biso   1.000  H
  H13      1.0000 0.21640  0.68340  0.44020  Biso   1.000  H
  H14      1.0000 0.28360  0.31660  0.94020  Biso   1.000  H
  H15      1.0000 0.06660  0.46640  0.69020  Biso   1.000  H
  H16      1.0000 0.43340  0.53360  0.19020  Biso   1.000  H
  C17      1.0000 0.34810  0.76050  0.11830  Biso   1.000  C
  C18      1.0000 0.15190  0.23950  0.61830  Biso   1.000  C
  C19      1.0000 0.98950  0.59810  0.36830  Biso   1.000  C
  C20      1.0000 0.51050  0.40190  0.86830  Biso   1.000  C
  C21      1.0000 0.84810  0.26050  0.61830  Biso   1.000  C
  C22      1.0000 0.65190  0.73950  0.11830  Biso   1.000  C
  C23      1.0000 0.48950  0.09810  0.86830  Biso   1.000  C
  C24      1.0000 0.01050  0.90190  0.36830  Biso   1.000  C
  C25      1.0000 0.65190  0.23950  0.88170  Biso   1.000  C
  C26      1.0000 0.84810  0.76050  0.38170  Biso   1.000  C
  C27      1.0000 0.51050  0.90190  0.13170  Biso   1.000  C
  C28      1.0000 0.98950  0.09810  0.63170  Biso   1.000  C
  C29      1.0000 0.15190  0.73950  0.38170  Biso   1.000  C
  C30      1.0000 0.34810  0.26050  0.88170  Biso   1.000  C
  C31      1.0000 0.01050  0.40190  0.63170  Biso   1.000  C
  C32      1.0000 0.48950  0.59810  0.13170  Biso   1.000  C
  H17      1.0000 0.36680  0.73370  0.08270  Biso   1.000  H
  H18      1.0000 0.13320  0.26630  0.58270  Biso   1.000  H
  H19      1.0000 0.01630  0.61680  0.33270  Biso   1.000  H
  H20      1.0000 0.48370  0.38320  0.83270  Biso   1.000  H
  H21      1.0000 0.86680  0.23370  0.58270  Biso   1.000  H
  H22      1.0000 0.63320  0.76630  0.08270  Biso   1.000  H
  H23      1.0000 0.51630  0.11680  0.83270  Biso   1.000  H
  H24      1.0000 0.98370  0.88320  0.33270  Biso   1.000  H
  H25      1.0000 0.63320  0.26630  0.91730  Biso   1.000  H
  H26      1.0000 0.86680  0.73370  0.41730  Biso   1.000  H
  H27      1.0000 0.48370  0.88320  0.16730  Biso   1.000  H
  H28      1.0000 0.01630  0.11680  0.66730  Biso   1.000  H
  H29      1.0000 0.13320  0.76630  0.41730  Biso   1.000  H
  H30      1.0000 0.36680  0.23370  0.91730  Biso   1.000  H
  H31      1.0000 0.98370  0.38320  0.66730  Biso   1.000  H
  H32      1.0000 0.51630  0.61680  0.16730  Biso   1.000  H
  C33      1.0000 0.36970  0.75150  0.18530  Biso   1.000  C
  C34      1.0000 0.13030  0.24850  0.68530  Biso   1.000  C
  C35      1.0000 0.99850  0.61970  0.43530  Biso   1.000  C
  C36      1.0000 0.50150  0.38030  0.93530  Biso   1.000  C
  C37      1.0000 0.86970  0.25150  0.68530  Biso   1.000  C
  C38      1.0000 0.63030  0.74850  0.18530  Biso   1.000  C
  C39      1.0000 0.49850  0.11970  0.93530  Biso   1.000  C
  C40      1.0000 0.00150  0.88030  0.43530  Biso   1.000  C
  C41      1.0000 0.63030  0.24850  0.81470  Biso   1.000  C
  C42      1.0000 0.86970  0.75150  0.31470  Biso   1.000  C
  C43      1.0000 0.50150  0.88030  0.06470  Biso   1.000  C
  C44      1.0000 0.99850  0.11970  0.56470  Biso   1.000  C
  C45      1.0000 0.13030  0.74850  0.31470  Biso   1.000  C
  C46      1.0000 0.36970  0.25150  0.81470  Biso   1.000  C
  C47      1.0000 0.00150  0.38030  0.56470  Biso   1.000  C
  C48      1.0000 0.49850  0.61970  0.06470  Biso   1.000  C
  H33      1.0000 0.40390  0.71870  0.19600  Biso   1.000  H
  H34      1.0000 0.09610  0.28130  0.69600  Biso   1.000  H
  H35      1.0000 0.03130  0.65390  0.44600  Biso   1.000  H
  H36      1.0000 0.46870  0.34610  0.94600  Biso   1.000  H
  H37      1.0000 0.90390  0.21870  0.69600  Biso   1.000  H
  H38      1.0000 0.59610  0.78130  0.19600  Biso   1.000  H
  H39      1.0000 0.53130  0.15390  0.94600  Biso   1.000  H
  H40      1.0000 0.96870  0.84610  0.44600  Biso   1.000  H
  H41      1.0000 0.59610  0.28130  0.80400  Biso   1.000  H
  H42      1.0000 0.90390  0.71870  0.30400  Biso   1.000  H
  H43      1.0000 0.46870  0.84610  0.05400  Biso   1.000  H
  H44      1.0000 0.03130  0.15390  0.55400  Biso   1.000  H
  H45      1.0000 0.09610  0.78130  0.30400  Biso   1.000  H
  H46      1.0000 0.40390  0.21870  0.80400  Biso   1.000  H
  H47      1.0000 0.96870  0.34610  0.55400  Biso   1.000  H
  H48      1.0000 0.53130  0.65390  0.05400  Biso   1.000  H
  C49      1.0000 0.33990  0.79200  0.23680  Biso   1.000  C
  C50      1.0000 0.16010  0.20800  0.73680  Biso   1.000  C
  C51      1.0000 0.95800  0.58990  0.48680  Biso   1.000  C
  C52      1.0000 0.54200  0.41010  0.98680  Biso   1.000  C
  C53      1.0000 0.83990  0.29200  0.73680  Biso   1.000  C
  C54      1.0000 0.66010  0.70800  0.23680  Biso   1.000  C
  C55      1.0000 0.45800  0.08990  0.98680  Biso   1.000  C
  C56      1.0000 0.04200  0.91010  0.48680  Biso   1.000  C
  C57      1.0000 0.66010  0.20800  0.76320  Biso   1.000  C
  C58      1.0000 0.83990  0.79200  0.26320  Biso   1.000  C
  C59      1.0000 0.54200  0.91010  0.01320  Biso   1.000  C
  C60      1.0000 0.95800  0.08990  0.51320  Biso   1.000  C
  C61      1.0000 0.16010  0.70800  0.26320  Biso   1.000  C
  C62      1.0000 0.33990  0.29200  0.76320  Biso   1.000  C
  C63      1.0000 0.04200  0.41010  0.51320  Biso   1.000  C
  C64      1.0000 0.45800  0.58990  0.01320  Biso   1.000  C
  H49      1.0000 0.35410  0.78620  0.28240  Biso   1.000  H
  H50      1.0000 0.14590  0.21380  0.78240  Biso   1.000  H
  H51      1.0000 0.96380  0.60410  0.53240  Biso   1.000  H
  H52      1.0000 0.53620  0.39590  0.03240  Biso   1.000  H
  H53      1.0000 0.85410  0.28620  0.78240  Biso   1.000  H
  H54      1.0000 0.64590  0.71380  0.28240  Biso   1.000  H
  H55      1.0000 0.46380  0.10410  0.03240  Biso   1.000  H
  H56      1.0000 0.03620  0.89590  0.53240  Biso   1.000  H
  H57      1.0000 0.64590  0.21380  0.71760  Biso   1.000  H
  H58      1.0000 0.85410  0.78620  0.21760  Biso   1.000  H
  H59      1.0000 0.53620  0.89590  0.96760  Biso   1.000  H
  H60      1.0000 0.96380  0.10410  0.46760  Biso   1.000  H
  H61      1.0000 0.14590  0.71380  0.21760  Biso   1.000  H
  H62      1.0000 0.35410  0.28620  0.71760  Biso   1.000  H
  H63      1.0000 0.03620  0.39590  0.46760  Biso   1.000  H
  H64      1.0000 0.46380  0.60410  0.96760  Biso   1.000  H
  C65      1.0000 0.28940  0.84080  0.22080  Biso   1.000  C
  C66      1.0000 0.21060  0.15920  0.72080  Biso   1.000  C
  C67      1.0000 0.90920  0.53940  0.47080  Biso   1.000  C
  C68      1.0000 0.59080  0.46060  0.97080  Biso   1.000  C
  C69      1.0000 0.78940  0.34080  0.72080  Biso   1.000  C
  C70      1.0000 0.71060  0.65920  0.22080  Biso   1.000  C
  C71      1.0000 0.40920  0.03940  0.97080  Biso   1.000  C
  C72      1.0000 0.09080  0.96060  0.47080  Biso   1.000  C
  C73      1.0000 0.71060  0.15920  0.77920  Biso   1.000  C
  C74      1.0000 0.78940  0.84080  0.27920  Biso   1.000  C
  C75      1.0000 0.59080  0.96060  0.02920  Biso   1.000  C
  C76      1.0000 0.90920  0.03940  0.52920  Biso   1.000  C
  C77      1.0000 0.21060  0.65920  0.27920  Biso   1.000  C
  C78      1.0000 0.28940  0.34080  0.77920  Biso   1.000  C
  C79      1.0000 0.09080  0.46060  0.52920  Biso   1.000  C
  C80      1.0000 0.40920  0.53940  0.02920  Biso   1.000  C
  C81      1.0000 0.25830  0.88270  0.27840  Biso   1.000  C
  C82      1.0000 0.24170  0.11730  0.77840  Biso   1.000  C
  C83      1.0000 0.86730  0.50830  0.52840  Biso   1.000  C
  C84      1.0000 0.63270  0.49170  0.02840  Biso   1.000  C
  C85      1.0000 0.75830  0.38270  0.77840  Biso   1.000  C
  C86      1.0000 0.74170  0.61730  0.27840  Biso   1.000  C
  C87      1.0000 0.36730  0.00830  0.02840  Biso   1.000  C
  C88      1.0000 0.13270  0.99170  0.52840  Biso   1.000  C
  C89      1.0000 0.74170  0.11730  0.72160  Biso   1.000  C
  C90      1.0000 0.75830  0.88270  0.22160  Biso   1.000  C
  C91      1.0000 0.63270  0.99170  0.97160  Biso   1.000  C
  C92      1.0000 0.86730  0.00830  0.47160  Biso   1.000  C
  C93      1.0000 0.24170  0.61730  0.22160  Biso   1.000  C
  C94      1.0000 0.25830  0.38270  0.72160  Biso   1.000  C
  C95      1.0000 0.13270  0.49170  0.47160  Biso   1.000  C
  C96      1.0000 0.36730  0.50830  0.97160  Biso   1.000  C
  C97      1.0000 0.26100  0.88860  0.40120  Biso   1.000  C
  C98      1.0000 0.23900  0.11140  0.90120  Biso   1.000  C
  C99      1.0000 0.86140  0.51100  0.65120  Biso   1.000  C
  C100     1.0000 0.63860  0.48900  0.15120  Biso   1.000  C
  C101     1.0000 0.76100  0.38860  0.90120  Biso   1.000  C
  C102     1.0000 0.73900  0.61140  0.40120  Biso   1.000  C
  C103     1.0000 0.36140  0.01100  0.15120  Biso   1.000  C
  C104     1.0000 0.13860  0.98900  0.65120  Biso   1.000  C
  C105     1.0000 0.73900  0.11140  0.59880  Biso   1.000  C
  C106     1.0000 0.76100  0.88860  0.09880  Biso   1.000  C
  C107     1.0000 0.63860  0.98900  0.84880  Biso   1.000  C
  C108     1.0000 0.86140  0.01100  0.34880  Biso   1.000  C
  C109     1.0000 0.23900  0.61140  0.09880  Biso   1.000  C
  C110     1.0000 0.26100  0.38860  0.59880  Biso   1.000  C
  C111     1.0000 0.13860  0.48900  0.34880  Biso   1.000  C
  C112     1.0000 0.36140  0.51100  0.84880  Biso   1.000  C
  H65      1.0000 0.27790  0.86160  0.43960  Biso   1.000  H
  H66      1.0000 0.22210  0.13840  0.93960  Biso   1.000  H
  H67      1.0000 0.88840  0.52790  0.68960  Biso   1.000  H
  H68      1.0000 0.61160  0.47210  0.18960  Biso   1.000  H
  H69      1.0000 0.77790  0.36160  0.93960  Biso   1.000  H
  H70      1.0000 0.72210  0.63840  0.43960  Biso   1.000  H
  H71      1.0000 0.38840  0.02790  0.18960  Biso   1.000  H
  H72      1.0000 0.11160  0.97210  0.68960  Biso   1.000  H
  H73      1.0000 0.72210  0.13840  0.56040  Biso   1.000  H
  H74      1.0000 0.77790  0.86160  0.06040  Biso   1.000  H
  H75      1.0000 0.61160  0.97210  0.81040  Biso   1.000  H
  H76      1.0000 0.88840  0.02790  0.31040  Biso   1.000  H
  H77      1.0000 0.22210  0.63840  0.06040  Biso   1.000  H
  H78      1.0000 0.27790  0.36160  0.56040  Biso   1.000  H
  H79      1.0000 0.11160  0.47210  0.31040  Biso   1.000  H
  H80      1.0000 0.38840  0.52790  0.81040  Biso   1.000  H
  H81      1.0000 0.21130  0.89420  0.40510  Biso   1.000  H
  H82      1.0000 0.28870  0.10580  0.90510  Biso   1.000  H
  H83      1.0000 0.85580  0.46130  0.65510  Biso   1.000  H
  H84      1.0000 0.64420  0.53870  0.15510  Biso   1.000  H
  H85      1.0000 0.71130  0.39420  0.90510  Biso   1.000  H
  H86      1.0000 0.78870  0.60580  0.40510  Biso   1.000  H
  H87      1.0000 0.35580  0.96130  0.15510  Biso   1.000  H
  H88      1.0000 0.14420  0.03870  0.65510  Biso   1.000  H
  H89      1.0000 0.78870  0.10580  0.59490  Biso   1.000  H
  H90      1.0000 0.71130  0.89420  0.09490  Biso   1.000  H
  H91      1.0000 0.64420  0.03870  0.84490  Biso   1.000  H
  H92      1.0000 0.85580  0.96130  0.34490  Biso   1.000  H
  H93      1.0000 0.28870  0.60580  0.09490  Biso   1.000  H
  H94      1.0000 0.21130  0.39420  0.59490  Biso   1.000  H
  H95      1.0000 0.14420  0.53870  0.34490  Biso   1.000  H
  H96      1.0000 0.35580  0.46130  0.84490  Biso   1.000  H
  H97      1.0000 0.28300  0.93370  0.40140  Biso   1.000  H
  H98      1.0000 0.21700  0.06630  0.90140  Biso   1.000  H
  H99      1.0000 0.81630  0.53300  0.65140  Biso   1.000  H
  H100     1.0000 0.68370  0.46700  0.15140  Biso   1.000  H
  H101     1.0000 0.78300  0.43370  0.90140  Biso   1.000  H
  H102     1.0000 0.71700  0.56630  0.40140  Biso   1.000  H
  H103     1.0000 0.31630  0.03300  0.15140  Biso   1.000  H
  H104     1.0000 0.18370  0.96700  0.65140  Biso   1.000  H
  H105     1.0000 0.71700  0.06630  0.59860  Biso   1.000  H
  H106     1.0000 0.78300  0.93370  0.09860  Biso   1.000  H
  H107     1.0000 0.68370  0.96700  0.84860  Biso   1.000  H
  H108     1.0000 0.81630  0.03300  0.34860  Biso   1.000  H
  H109     1.0000 0.21700  0.56630  0.09860  Biso   1.000  H
  H110     1.0000 0.28300  0.43370  0.59860  Biso   1.000  H
  H111     1.0000 0.18370  0.46700  0.34860  Biso   1.000  H
  H112     1.0000 0.31630  0.53300  0.84860  Biso   1.000  H
  C113     1.0000 0.16080  0.02360  0.22330  Biso   1.000  C
  C114     1.0000 0.33920  0.97640  0.72330  Biso   1.000  C
  C115     1.0000 0.72640  0.41080  0.47330  Biso   1.000  C
  C116     1.0000 0.77360  0.58920  0.97330  Biso   1.000  C
  C117     1.0000 0.66080  0.52360  0.72330  Biso   1.000  C
  C118     1.0000 0.83920  0.47640  0.22330  Biso   1.000  C
  C119     1.0000 0.22640  0.91080  0.97330  Biso   1.000  C
  C120     1.0000 0.27360  0.08920  0.47330  Biso   1.000  C
  C121     1.0000 0.83920  0.97640  0.77670  Biso   1.000  C
  C122     1.0000 0.66080  0.02360  0.27670  Biso   1.000  C
  C123     1.0000 0.77360  0.08920  0.02670  Biso   1.000  C
  C124     1.0000 0.72640  0.91080  0.52670  Biso   1.000  C
  C125     1.0000 0.33920  0.47640  0.27670  Biso   1.000  C
  C126     1.0000 0.16080  0.52360  0.77670  Biso   1.000  C
  C127     1.0000 0.27360  0.58920  0.52670  Biso   1.000  C
  C128     1.0000 0.22640  0.41080  0.02670  Biso   1.000  C
  C129     1.0000 0.13450  0.05210  0.15620  Biso   1.000  C
  C130     1.0000 0.36550  0.94790  0.65620  Biso   1.000  C
  C131     1.0000 0.69790  0.38450  0.40620  Biso   1.000  C
  C132     1.0000 0.80210  0.61550  0.90620  Biso   1.000  C
  C133     1.0000 0.63450  0.55210  0.65620  Biso   1.000  C
  C134     1.0000 0.86550  0.44790  0.15620  Biso   1.000  C
  C135     1.0000 0.19790  0.88450  0.90620  Biso   1.000  C
  C136     1.0000 0.30210  0.11550  0.40620  Biso   1.000  C
  C137     1.0000 0.86550  0.94790  0.84380  Biso   1.000  C
  C138     1.0000 0.63450  0.05210  0.34380  Biso   1.000  C
  C139     1.0000 0.80210  0.11550  0.09380  Biso   1.000  C
  C140     1.0000 0.69790  0.88450  0.59380  Biso   1.000  C
  C141     1.0000 0.36550  0.44790  0.34380  Biso   1.000  C
  C142     1.0000 0.13450  0.55210  0.84380  Biso   1.000  C
  C143     1.0000 0.30210  0.61550  0.59380  Biso   1.000  C
  C144     1.0000 0.19790  0.38450  0.09380  Biso   1.000  C
  C145     1.0000 0.11900  0.03310  0.04110  Biso   1.000  C
  C146     1.0000 0.38100  0.96690  0.54110  Biso   1.000  C
  C147     1.0000 0.71690  0.36900  0.29110  Biso   1.000  C
  C148     1.0000 0.78310  0.63100  0.79110  Biso   1.000  C
  C149     1.0000 0.61900  0.53310  0.54110  Biso   1.000  C
  C150     1.0000 0.88100  0.46690  0.04110  Biso   1.000  C
  C151     1.0000 0.21690  0.86900  0.79110  Biso   1.000  C
  C152     1.0000 0.28310  0.13100  0.29110  Biso   1.000  C
  C153     1.0000 0.88100  0.96690  0.95890  Biso   1.000  C
  C154     1.0000 0.61900  0.03310  0.45890  Biso   1.000  C
  C155     1.0000 0.78310  0.13100  0.20890  Biso   1.000  C
  C156     1.0000 0.71690  0.86900  0.70890  Biso   1.000  C
  C157     1.0000 0.38100  0.46690  0.45890  Biso   1.000  C
  C158     1.0000 0.11900  0.53310  0.95890  Biso   1.000  C
  C159     1.0000 0.28310  0.63100  0.70890  Biso   1.000  C
  C160     1.0000 0.21690  0.36900  0.20890  Biso   1.000  C
  H113     1.0000 0.12480  0.00590  0.00170  Biso   1.000  H
  H114     1.0000 0.37520  0.99410  0.50170  Biso   1.000  H
  H115     1.0000 0.74410  0.37480  0.25170  Biso   1.000  H
  H116     1.0000 0.75590  0.62520  0.75170  Biso   1.000  H
  H117     1.0000 0.62480  0.50590  0.50170  Biso   1.000  H
  H118     1.0000 0.87520  0.49410  0.00170  Biso   1.000  H
  H119     1.0000 0.24410  0.87480  0.75170  Biso   1.000  H
  H120     1.0000 0.25590  0.12520  0.25170  Biso   1.000  H
  H121     1.0000 0.87520  0.99410  0.99830  Biso   1.000  H
  H122     1.0000 0.62480  0.00590  0.49830  Biso   1.000  H
  H123     1.0000 0.75590  0.12520  0.24830  Biso   1.000  H
  H124     1.0000 0.74410  0.87480  0.74830  Biso   1.000  H
  H125     1.0000 0.37520  0.49410  0.49830  Biso   1.000  H
  H126     1.0000 0.12480  0.50590  0.99830  Biso   1.000  H
  H127     1.0000 0.25590  0.62520  0.74830  Biso   1.000  H
  H128     1.0000 0.24410  0.37480  0.24830  Biso   1.000  H
  C161     1.0000 0.08320  0.09540  0.03690  Biso   1.000  C
  C162     1.0000 0.41680  0.90460  0.53690  Biso   1.000  C
  C163     1.0000 0.65460  0.33320  0.28690  Biso   1.000  C
  C164     1.0000 0.84540  0.66680  0.78690  Biso   1.000  C
  C165     1.0000 0.58320  0.59540  0.53690  Biso   1.000  C
  C166     1.0000 0.91680  0.40460  0.03690  Biso   1.000  C
  C167     1.0000 0.15460  0.83320  0.78690  Biso   1.000  C
  C168     1.0000 0.34540  0.16680  0.28690  Biso   1.000  C
  C169     1.0000 0.91680  0.90460  0.96310  Biso   1.000  C
  C170     1.0000 0.58320  0.09540  0.46310  Biso   1.000  C
  C171     1.0000 0.84540  0.16680  0.21310  Biso   1.000  C
  C172     1.0000 0.65460  0.83320  0.71310  Biso   1.000  C
  C173     1.0000 0.41680  0.40460  0.46310  Biso   1.000  C
  C174     1.0000 0.08320  0.59540  0.96310  Biso   1.000  C
  C175     1.0000 0.34540  0.66680  0.71310  Biso   1.000  C
  C176     1.0000 0.15460  0.33320  0.21310  Biso   1.000  C
  H129     1.0000 0.06530  0.10910  0.99430  Biso   1.000  H
  H130     1.0000 0.43470  0.89090  0.49430  Biso   1.000  H
  H131     1.0000 0.64090  0.31530  0.24430  Biso   1.000  H
  H132     1.0000 0.85910  0.68470  0.74430  Biso   1.000  H
  H133     1.0000 0.56530  0.60910  0.49430  Biso   1.000  H
  H134     1.0000 0.93470  0.39090  0.99430  Biso   1.000  H
  H135     1.0000 0.14090  0.81530  0.74430  Biso   1.000  H
  H136     1.0000 0.35910  0.18470  0.24430  Biso   1.000  H
  H137     1.0000 0.93470  0.89090  0.00570  Biso   1.000  H
  H138     1.0000 0.56530  0.10910  0.50570  Biso   1.000  H
  H139     1.0000 0.85910  0.18470  0.25570  Biso   1.000  H
  H140     1.0000 0.64090  0.81530  0.75570  Biso   1.000  H
  H141     1.0000 0.43470  0.39090  0.50570  Biso   1.000  H
  H142     1.0000 0.06530  0.60910  0.00570  Biso   1.000  H
  H143     1.0000 0.35910  0.68470  0.75570  Biso   1.000  H
  H144     1.0000 0.14090  0.31530  0.25570  Biso   1.000  H
  C177     1.0000 0.09900  0.11370  0.15100  Biso   1.000  C
  C178     1.0000 0.40100  0.88630  0.65100  Biso   1.000  C
  C179     1.0000 0.63630  0.34900  0.40100  Biso   1.000  C
  C180     1.0000 0.86370  0.65100  0.90100  Biso   1.000  C
  C181     1.0000 0.59900  0.61370  0.65100  Biso   1.000  C
  C182     1.0000 0.90100  0.38630  0.15100  Biso   1.000  C
  C183     1.0000 0.13630  0.84900  0.90100  Biso   1.000  C
  C184     1.0000 0.36370  0.15100  0.40100  Biso   1.000  C
  C185     1.0000 0.90100  0.88630  0.84900  Biso   1.000  C
  C186     1.0000 0.59900  0.11370  0.34900  Biso   1.000  C
  C187     1.0000 0.86370  0.15100  0.09900  Biso   1.000  C
  C188     1.0000 0.63630  0.84900  0.59900  Biso   1.000  C
  C189     1.0000 0.40100  0.38630  0.34900  Biso   1.000  C
  C190     1.0000 0.09900  0.61370  0.84900  Biso   1.000  C
  C191     1.0000 0.36370  0.65100  0.59900  Biso   1.000  C
  C192     1.0000 0.13630  0.34900  0.09900  Biso   1.000  C
  H145     1.0000 0.09260  0.14070  0.19050  Biso   1.000  H
  H146     1.0000 0.40740  0.85930  0.69050  Biso   1.000  H
  H147     1.0000 0.60930  0.34260  0.44050  Biso   1.000  H
  H148     1.0000 0.89070  0.65740  0.94050  Biso   1.000  H
  H149     1.0000 0.59260  0.64070  0.69050  Biso   1.000  H
  H150     1.0000 0.90740  0.35930  0.19050  Biso   1.000  H
  H151     1.0000 0.10930  0.84260  0.94050  Biso   1.000  H
  H152     1.0000 0.39070  0.15740  0.44050  Biso   1.000  H
  H153     1.0000 0.90740  0.85930  0.80950  Biso   1.000  H
  H154     1.0000 0.59260  0.14070  0.30950  Biso   1.000  H
  H155     1.0000 0.89070  0.15740  0.05950  Biso   1.000  H
  H156     1.0000 0.60930  0.84260  0.55950  Biso   1.000  H
  H157     1.0000 0.40740  0.35930  0.30950  Biso   1.000  H
  H158     1.0000 0.09260  0.64070  0.80950  Biso   1.000  H
  H159     1.0000 0.39070  0.65740  0.55950  Biso   1.000  H
  H160     1.0000 0.10930  0.34260  0.05950  Biso   1.000  H
  N1       1.0000 0.14560  0.01150  0.10114  Biso   1.000  N
  N2       1.0000 0.35440  0.98850  0.60114  Biso   1.000  N
  N3       1.0000 0.73850  0.39560  0.35114  Biso   1.000  N
  N4       1.0000 0.76150  0.60440  0.85114  Biso   1.000  N
  N5       1.0000 0.64560  0.51150  0.60114  Biso   1.000  N
  N6       1.0000 0.85440  0.48850  0.10114  Biso   1.000  N
  N7       1.0000 0.23850  0.89560  0.85114  Biso   1.000  N
  N8       1.0000 0.26150  0.10440  0.35114  Biso   1.000  N
  N9       1.0000 0.85440  0.98850  0.89886  Biso   1.000  N
  N10      1.0000 0.64560  0.01150  0.39886  Biso   1.000  N
  N11      1.0000 0.76150  0.10440  0.14886  Biso   1.000  N
  N12      1.0000 0.73850  0.89560  0.64886  Biso   1.000  N
  N13      1.0000 0.35440  0.48850  0.39886  Biso   1.000  N
  N14      1.0000 0.14560  0.51150  0.89886  Biso   1.000  N
  N15      1.0000 0.26150  0.60440  0.64886  Biso   1.000  N
  N16      1.0000 0.23850  0.39560  0.14886  Biso   1.000  N
  N17      1.0000 0.19810  0.96630  0.21653  Biso   1.000  N
  N18      1.0000 0.30190  0.03370  0.71653  Biso   1.000  N
  N19      1.0000 0.78370  0.44810  0.46653  Biso   1.000  N
  N20      1.0000 0.71630  0.55190  0.96653  Biso   1.000  N
  N21      1.0000 0.69810  0.46630  0.71653  Biso   1.000  N
  N22      1.0000 0.80190  0.53370  0.21653  Biso   1.000  N
  N23      1.0000 0.28370  0.94810  0.96653  Biso   1.000  N
  N24      1.0000 0.21630  0.05190  0.46653  Biso   1.000  N
  N25      1.0000 0.80190  0.03370  0.78347  Biso   1.000  N
  N26      1.0000 0.69810  0.96630  0.28347  Biso   1.000  N
  N27      1.0000 0.71630  0.05190  0.03347  Biso   1.000  N
  N28      1.0000 0.78370  0.94810  0.53347  Biso   1.000  N
  N29      1.0000 0.30190  0.53370  0.28347  Biso   1.000  N
  N30      1.0000 0.19810  0.46630  0.78347  Biso   1.000  N
  N31      1.0000 0.21630  0.55190  0.53347  Biso   1.000  N
  N32      1.0000 0.28370  0.44810  0.03347  Biso   1.000  N
  N33      1.0000 0.21970  0.93740  0.27956  Biso   1.000  N
  N34      1.0000 0.28030  0.06260  0.77956  Biso   1.000  N
  N35      1.0000 0.81260  0.46970  0.52956  Biso   1.000  N
  N36      1.0000 0.68740  0.53030  0.02956  Biso   1.000  N
  N37      1.0000 0.71970  0.43740  0.77956  Biso   1.000  N
  N38      1.0000 0.78030  0.56260  0.27956  Biso   1.000  N
  N39      1.0000 0.31260  0.96970  0.02956  Biso   1.000  N
  N40      1.0000 0.18740  0.03030  0.52956  Biso   1.000  N
  N41      1.0000 0.78030  0.06260  0.72044  Biso   1.000  N
  N42      1.0000 0.71970  0.93740  0.22044  Biso   1.000  N
  N43      1.0000 0.68740  0.03030  0.97044  Biso   1.000  N
  N44      1.0000 0.81260  0.96970  0.47044  Biso   1.000  N
  N45      1.0000 0.28030  0.56260  0.22044  Biso   1.000  N
  N46      1.0000 0.21970  0.43740  0.72044  Biso   1.000  N
  N47      1.0000 0.18740  0.53030  0.47044  Biso   1.000  N
  N48      1.0000 0.31260  0.46970  0.97044  Biso   1.000  N
  N49      1.0000 0.26910  0.85060  0.15410  Biso   1.000  N
  N50      1.0000 0.23090  0.14940  0.65410  Biso   1.000  N
  N51      1.0000 0.89940  0.51910  0.40410  Biso   1.000  N
  N52      1.0000 0.60060  0.48090  0.90410  Biso   1.000  N
  N53      1.0000 0.76910  0.35060  0.65410  Biso   1.000  N
  N54      1.0000 0.73090  0.64940  0.15410  Biso   1.000  N
  N55      1.0000 0.39940  0.01910  0.90410  Biso   1.000  N
  N56      1.0000 0.10060  0.98090  0.40410  Biso   1.000  N
  N57      1.0000 0.73090  0.14940  0.84590  Biso   1.000  N
  N58      1.0000 0.76910  0.85060  0.34590  Biso   1.000  N
  N59      1.0000 0.60060  0.98090  0.09590  Biso   1.000  N
  N60      1.0000 0.89940  0.01910  0.59590  Biso   1.000  N
  N61      1.0000 0.23090  0.64940  0.34590  Biso   1.000  N
  N62      1.0000 0.26910  0.35060  0.84590  Biso   1.000  N
  N63      1.0000 0.10060  0.48090  0.59590  Biso   1.000  N
  N64      1.0000 0.39940  0.51910  0.09590  Biso   1.000  N
  N65      1.0000 0.07310  0.13640  0.09090  Biso   1.000  N
  N66      1.0000 0.42690  0.86360  0.59090  Biso   1.000  N
  N67      1.0000 0.61360  0.32310  0.34090  Biso   1.000  N
  N68      1.0000 0.88640  0.67690  0.84090  Biso   1.000  N
  N69      1.0000 0.57310  0.63640  0.59090  Biso   1.000  N
  N70      1.0000 0.92690  0.36360  0.09090  Biso   1.000  N
  N71      1.0000 0.11360  0.82310  0.84090  Biso   1.000  N
  N72      1.0000 0.38640  0.17690  0.34090  Biso   1.000  N
  N73      1.0000 0.92690  0.86360  0.90910  Biso   1.000  N
  N74      1.0000 0.57310  0.13640  0.40910  Biso   1.000  N
  N75      1.0000 0.88640  0.17690  0.15910  Biso   1.000  N
  N76      1.0000 0.61360  0.82310  0.65910  Biso   1.000  N
  N77      1.0000 0.42690  0.36360  0.40910  Biso   1.000  N
  N78      1.0000 0.07310  0.63640  0.90910  Biso   1.000  N
  N79      1.0000 0.38640  0.67690  0.65910  Biso   1.000  N
  N80      1.0000 0.11360  0.32310  0.15910  Biso   1.000  N
  O1       1.0000 0.27720  0.85325  0.33804  Biso   1.000  O
  O2       1.0000 0.22280  0.14675  0.83804  Biso   1.000  O
  O3       1.0000 0.89675  0.52720  0.58804  Biso   1.000  O
  O4       1.0000 0.60325  0.47280  0.08804  Biso   1.000  O
  O5       1.0000 0.77720  0.35325  0.83804  Biso   1.000  O
  O6       1.0000 0.72280  0.64675  0.33804  Biso   1.000  O
  O7       1.0000 0.39675  0.02720  0.08804  Biso   1.000  O
  O8       1.0000 0.10325  0.97280  0.58804  Biso   1.000  O
  O9       1.0000 0.72280  0.14675  0.66196  Biso   1.000  O
  O10      1.0000 0.77720  0.85325  0.16196  Biso   1.000  O
  O11      1.0000 0.60325  0.97280  0.91196  Biso   1.000  O
  O12      1.0000 0.89675  0.02720  0.41196  Biso   1.000  O
  O13      1.0000 0.22280  0.64675  0.16196  Biso   1.000  O
  O14      1.0000 0.27720  0.35325  0.66196  Biso   1.000  O
  O15      1.0000 0.10325  0.47280  0.41196  Biso   1.000  O
  O16      1.0000 0.39675  0.52720  0.91196  Biso   1.000  O
  O17      1.0000 0.14436  0.05659  0.27744  Biso   1.000  O
  O18      1.0000 0.35564  0.94341  0.77744  Biso   1.000  O
  O19      1.0000 0.69341  0.39436  0.52744  Biso   1.000  O
  O20      1.0000 0.80659  0.60564  0.02744  Biso   1.000  O
  O21      1.0000 0.64436  0.55659  0.77744  Biso   1.000  O
  O22      1.0000 0.85564  0.44341  0.27744  Biso   1.000  O
  O23      1.0000 0.19341  0.89436  0.02744  Biso   1.000  O
  O24      1.0000 0.30659  0.10564  0.52744  Biso   1.000  O
  O25      1.0000 0.85564  0.94341  0.72256  Biso   1.000  O
  O26      1.0000 0.64436  0.05659  0.22256  Biso   1.000  O
  O27      1.0000 0.80659  0.10564  0.97256  Biso   1.000  O
  O28      1.0000 0.69341  0.89436  0.47256  Biso   1.000  O
  O29      1.0000 0.35564  0.44341  0.22256  Biso   1.000  O
  O30      1.0000 0.14436  0.55659  0.72256  Biso   1.000  O
  O31      1.0000 0.30659  0.60564  0.47256  Biso   1.000  O
  O32      1.0000 0.19341  0.39436  0.97256  Biso   1.000  O
  O33      1.0000 0.10790  0.85160  0.15320  Biso   1.000  O
  O34      1.0000 0.39210  0.14840  0.65320  Biso   1.000  O
  O35      1.0000 0.89840  0.35790  0.40320  Biso   1.000  O
  O36      1.0000 0.60160  0.64210  0.90320  Biso   1.000  O
  O37      1.0000 0.60790  0.35160  0.65320  Biso   1.000  O
  O38      1.0000 0.89210  0.64840  0.15320  Biso   1.000  O
  O39      1.0000 0.39840  0.85790  0.90320  Biso   1.000  O
  O40      1.0000 0.10160  0.14210  0.40320  Biso   1.000  O
  O41      1.0000 0.89210  0.14840  0.84680  Biso   1.000  O
  O42      1.0000 0.60790  0.85160  0.34680  Biso   1.000  O
  O43      1.0000 0.60160  0.14210  0.09680  Biso   1.000  O
  O44      1.0000 0.89840  0.85790  0.59680  Biso   1.000  O
  O45      1.0000 0.39210  0.64840  0.34680  Biso   1.000  O
  O46      1.0000 0.10790  0.35160  0.84680  Biso   1.000  O
  O47      1.0000 0.10160  0.64210  0.59680  Biso   1.000  O
  O48      1.0000 0.39840  0.35790  0.09680  Biso   1.000  O
  H161     1.0000 0.06620  0.86690  0.15150  Biso   1.000  H
  H162     1.0000 0.43380  0.13310  0.65150  Biso   1.000  H
  H163     1.0000 0.88310  0.31620  0.40150  Biso   1.000  H
  H164     1.0000 0.61690  0.68380  0.90150  Biso   1.000  H
  H165     1.0000 0.56620  0.36690  0.65150  Biso   1.000  H
  H166     1.0000 0.93380  0.63310  0.15150  Biso   1.000  H
  H167     1.0000 0.38310  0.81620  0.90150  Biso   1.000  H
  H168     1.0000 0.11690  0.18380  0.40150  Biso   1.000  H
  H169     1.0000 0.93380  0.13310  0.84850  Biso   1.000  H
  H170     1.0000 0.56620  0.86690  0.34850  Biso   1.000  H
  H171     1.0000 0.61690  0.18380  0.09850  Biso   1.000  H
  H172     1.0000 0.88310  0.81620  0.59850  Biso   1.000  H
  H173     1.0000 0.43380  0.63310  0.34850  Biso   1.000  H
  H174     1.0000 0.06620  0.36690  0.84850  Biso   1.000  H
  H175     1.0000 0.11690  0.68380  0.59850  Biso   1.000  H
  H176     1.0000 0.38310  0.31620  0.09850  Biso   1.000  H
  H177     1.0000 0.11570  0.80960  0.16550  Biso   1.000  H
  H178     1.0000 0.38430  0.19040  0.66550  Biso   1.000  H
  H179     1.0000 0.94040  0.36570  0.41550  Biso   1.000  H
  H180     1.0000 0.55960  0.63430  0.91550  Biso   1.000  H
  H181     1.0000 0.61570  0.30960  0.66550  Biso   1.000  H
  H182     1.0000 0.88430  0.69040  0.16550  Biso   1.000  H
  H183     1.0000 0.44040  0.86570  0.91550  Biso   1.000  H
  H184     1.0000 0.05960  0.13430  0.41550  Biso   1.000  H
  H185     1.0000 0.88430  0.19040  0.83450  Biso   1.000  H
  H186     1.0000 0.61570  0.80960  0.33450  Biso   1.000  H
  H187     1.0000 0.55960  0.13430  0.08450  Biso   1.000  H
  H188     1.0000 0.94040  0.86570  0.58450  Biso   1.000  H
  H189     1.0000 0.38430  0.69040  0.33450  Biso   1.000  H
  H190     1.0000 0.11570  0.30960  0.83450  Biso   1.000  H
  H191     1.0000 0.05960  0.63430  0.58450  Biso   1.000  H
  H192     1.0000 0.44040  0.36570  0.08450  Biso   1.000  H
  O49      1.0000 0.00000  0.25000  0.03210  Biso   1.000  O
  O50      1.0000 0.50000  0.75000  0.53210  Biso   1.000  O
  O51      1.0000 0.50000  0.25000  0.28210  Biso   1.000  O
  O52      1.0000 0.00000  0.75000  0.78210  Biso   1.000  O
  O53      1.0000 0.00000  0.75000  0.96790  Biso   1.000  O
  O54      1.0000 0.50000  0.25000  0.46790  Biso   1.000  O
  O55      1.0000 0.00000  0.25000  0.21790  Biso   1.000  O
  O56      1.0000 0.50000  0.75000  0.71790  Biso   1.000  O
  H193     1.0000 0.98780  0.28420  0.05750  Biso   1.000  H
  H194     1.0000 0.51220  0.71580  0.55750  Biso   1.000  H
  H195     1.0000 0.46580  0.23780  0.30750  Biso   1.000  H
  H196     1.0000 0.03420  0.76220  0.80750  Biso   1.000  H
  H197     1.0000 0.48780  0.78420  0.55750  Biso   1.000  H
  H198     1.0000 0.01220  0.21580  0.05750  Biso   1.000  H
  H199     1.0000 0.96580  0.73780  0.80750  Biso   1.000  H
  H200     1.0000 0.53420  0.26220  0.30750  Biso   1.000  H
  H201     1.0000 0.01220  0.71580  0.94250  Biso   1.000  H
  H202     1.0000 0.48780  0.28420  0.44250  Biso   1.000  H
  H203     1.0000 0.03420  0.26220  0.19250  Biso   1.000  H
  H204     1.0000 0.46580  0.73780  0.69250  Biso   1.000  H
  H205     1.0000 0.51220  0.21580  0.44250  Biso   1.000  H
  H206     1.0000 0.98780  0.78420  0.94250  Biso   1.000  H
  H207     1.0000 0.53420  0.76220  0.69250  Biso   1.000  H
  H208     1.0000 0.96580  0.23780  0.19250  Biso   1.000  H
  O57      1.0000 0.10220  0.74810  0.07470  Biso   1.000  O
  O58      1.0000 0.39780  0.25190  0.57470  Biso   1.000  O
  O59      1.0000 0.00190  0.35220  0.32470  Biso   1.000  O
  O60      1.0000 0.49810  0.64780  0.82470  Biso   1.000  O
  O61      1.0000 0.60220  0.24810  0.57470  Biso   1.000  O
  O62      1.0000 0.89780  0.75190  0.07470  Biso   1.000  O
  O63      1.0000 0.50190  0.85220  0.82470  Biso   1.000  O
  O64      1.0000 0.99810  0.14780  0.32470  Biso   1.000  O
  O65      1.0000 0.89780  0.25190  0.92530  Biso   1.000  O
  O66      1.0000 0.60220  0.74810  0.42530  Biso   1.000  O
  O67      1.0000 0.49810  0.14780  0.17530  Biso   1.000  O
  O68      1.0000 0.00190  0.85220  0.67530  Biso   1.000  O
  O69      1.0000 0.39780  0.75190  0.42530  Biso   1.000  O
  O70      1.0000 0.10220  0.24810  0.92530  Biso   1.000  O
  O71      1.0000 0.99810  0.64780  0.67530  Biso   1.000  O
  O72      1.0000 0.50190  0.35220  0.17530  Biso   1.000  O
  H209     1.0000 0.13220  0.74350  0.04260  Biso   1.000  H
  H210     1.0000 0.36780  0.25650  0.54260  Biso   1.000  H
  H211     1.0000 0.00650  0.38220  0.29260  Biso   1.000  H
  H212     1.0000 0.49350  0.61780  0.79260  Biso   1.000  H
  H213     1.0000 0.63220  0.24350  0.54260  Biso   1.000  H
  H214     1.0000 0.86780  0.75650  0.04260  Biso   1.000  H
  H215     1.0000 0.50650  0.88220  0.79260  Biso   1.000  H
  H216     1.0000 0.99350  0.11780  0.29260  Biso   1.000  H
  H217     1.0000 0.86780  0.25650  0.95740  Biso   1.000  H
  H218     1.0000 0.63220  0.74350  0.45740  Biso   1.000  H
  H219     1.0000 0.49350  0.11780  0.20740  Biso   1.000  H
  H220     1.0000 0.00650  0.88220  0.70740  Biso   1.000  H
  H221     1.0000 0.36780  0.75650  0.45740  Biso   1.000  H
  H222     1.0000 0.13220  0.24350  0.95740  Biso   1.000  H
  H223     1.0000 0.99350  0.61780  0.70740  Biso   1.000  H
  H224     1.0000 0.50650  0.38220  0.20740  Biso   1.000  H
  H225     1.0000 0.07050  0.71740  0.08000  Biso   1.000  H
  H226     1.0000 0.42950  0.28260  0.58000  Biso   1.000  H
  H227     1.0000 0.03260  0.32050  0.33000  Biso   1.000  H
  H228     1.0000 0.46740  0.67950  0.83000  Biso   1.000  H
  H229     1.0000 0.57050  0.21740  0.58000  Biso   1.000  H
  H230     1.0000 0.92950  0.78260  0.08000  Biso   1.000  H
  H231     1.0000 0.53260  0.82050  0.83000  Biso   1.000  H
  H232     1.0000 0.96740  0.17950  0.33000  Biso   1.000  H
  H233     1.0000 0.92950  0.28260  0.92000  Biso   1.000  H
  H234     1.0000 0.57050  0.71740  0.42000  Biso   1.000  H
  H235     1.0000 0.46740  0.17950  0.17000  Biso   1.000  H
  H236     1.0000 0.03260  0.82050  0.67000  Biso   1.000  H
  H237     1.0000 0.42950  0.78260  0.42000  Biso   1.000  H
  H238     1.0000 0.07050  0.21740  0.92000  Biso   1.000  H
  H239     1.0000 0.96740  0.67950  0.67000  Biso   1.000  H
  H240     1.0000 0.53260  0.32050  0.17000  Biso   1.000  H
  O73      1.0000 0.15030  0.79100  0.57290  Biso   1.000  O
  O74      1.0000 0.34970  0.20900  0.07290  Biso   1.000  O
  O75      1.0000 0.95900  0.40030  0.82290  Biso   1.000  O
  O76      1.0000 0.54100  0.59970  0.32290  Biso   1.000  O
  O77      1.0000 0.65030  0.29100  0.07290  Biso   1.000  O
  O78      1.0000 0.84970  0.70900  0.57290  Biso   1.000  O
  O79      1.0000 0.45900  0.90030  0.32290  Biso   1.000  O
  O80      1.0000 0.04100  0.09970  0.82290  Biso   1.000  O
  O81      1.0000 0.84970  0.20900  0.42710  Biso   1.000  O
  O82      1.0000 0.65030  0.79100  0.92710  Biso   1.000  O
  O83      1.0000 0.54100  0.09970  0.67710  Biso   1.000  O
  O84      1.0000 0.95900  0.90030  0.17710  Biso   1.000  O
  O85      1.0000 0.34970  0.70900  0.92710  Biso   1.000  O
  O86      1.0000 0.15030  0.29100  0.42710  Biso   1.000  O
  O87      1.0000 0.04100  0.59970  0.17710  Biso   1.000  O
  O88      1.0000 0.45900  0.40030  0.67710  Biso   1.000  O
  O89      1.0000 0.23030  0.86890  0.56860  Biso   1.000  O
  O90      1.0000 0.26970  0.13110  0.06860  Biso   1.000  O
  O91      1.0000 0.88110  0.48030  0.81860  Biso   1.000  O
  O92      1.0000 0.61890  0.51970  0.31860  Biso   1.000  O
  O93      1.0000 0.73030  0.36890  0.06860  Biso   1.000  O
  O94      1.0000 0.76970  0.63110  0.56860  Biso   1.000  O
  O95      1.0000 0.38110  0.98030  0.31860  Biso   1.000  O
  O96      1.0000 0.11890  0.01970  0.81860  Biso   1.000  O
  O97      1.0000 0.76970  0.13110  0.43140  Biso   1.000  O
  O98      1.0000 0.73030  0.86890  0.93140  Biso   1.000  O
  O99      1.0000 0.61890  0.01970  0.68140  Biso   1.000  O
  O100     1.0000 0.88110  0.98030  0.18140  Biso   1.000  O
  O101     1.0000 0.26970  0.63110  0.93140  Biso   1.000  O
  O102     1.0000 0.23030  0.36890  0.43140  Biso   1.000  O
  O103     1.0000 0.11890  0.51970  0.18140  Biso   1.000  O
  O104     1.0000 0.38110  0.48030  0.68140  Biso   1.000  O
  O105     1.0000 0.23820  0.78310  0.64750  Biso   1.000  O
  O106     1.0000 0.26180  0.21690  0.14750  Biso   1.000  O
  O107     1.0000 0.96690  0.48820  0.89750  Biso   1.000  O
  O108     1.0000 0.53310  0.51180  0.39750  Biso   1.000  O
  O109     1.0000 0.73820  0.28310  0.14750  Biso   1.000  O
  O110     1.0000 0.76180  0.71690  0.64750  Biso   1.000  O
  O111     1.0000 0.46690  0.98820  0.39750  Biso   1.000  O
  O112     1.0000 0.03310  0.01180  0.89750  Biso   1.000  O
  O113     1.0000 0.76180  0.21690  0.35250  Biso   1.000  O
  O114     1.0000 0.73820  0.78310  0.85250  Biso   1.000  O
  O115     1.0000 0.53310  0.01180  0.60250  Biso   1.000  O
  O116     1.0000 0.96690  0.98820  0.10250  Biso   1.000  O
  O117     1.0000 0.26180  0.71690  0.85250  Biso   1.000  O
  O118     1.0000 0.23820  0.28310  0.35250  Biso   1.000  O
  O119     1.0000 0.03310  0.51180  0.10250  Biso   1.000  O
  O120     1.0000 0.46690  0.48820  0.60250  Biso   1.000  O
  O121     1.0000 0.25420  0.75810  0.53790  Biso   1.000  O
  O122     1.0000 0.24580  0.24190  0.03790  Biso   1.000  O
  O123     1.0000 0.99190  0.50420  0.78790  Biso   1.000  O
  O124     1.0000 0.50810  0.49580  0.28790  Biso   1.000  O
  O125     1.0000 0.75420  0.25810  0.03790  Biso   1.000  O
  O126     1.0000 0.74580  0.74190  0.53790  Biso   1.000  O
  O127     1.0000 0.49190  0.00420  0.28790  Biso   1.000  O
  O128     1.0000 0.00810  0.99580  0.78790  Biso   1.000  O
  O129     1.0000 0.74580  0.24190  0.46210  Biso   1.000  O
  O130     1.0000 0.75420  0.75810  0.96210  Biso   1.000  O
  O131     1.0000 0.50810  0.99580  0.71210  Biso   1.000  O
  O132     1.0000 0.99190  0.00420  0.21210  Biso   1.000  O
  O133     1.0000 0.24580  0.74190  0.96210  Biso   1.000  O
  O134     1.0000 0.25420  0.25810  0.46210  Biso   1.000  O
  O135     1.0000 0.00810  0.49580  0.21210  Biso   1.000  O
  O136     1.0000 0.49190  0.50420  0.71210  Biso   1.000  O
  Cl1      1.0000 0.21665  0.80066  0.58272  Biso   1.000  Cl
  Cl2      1.0000 0.28335  0.19934  0.08272  Biso   1.000  Cl
  Cl3      1.0000 0.94934  0.46665  0.83272  Biso   1.000  Cl
  Cl4      1.0000 0.55066  0.53335  0.33272  Biso   1.000  Cl
  Cl5      1.0000 0.71665  0.30066  0.08272  Biso   1.000  Cl
  Cl6      1.0000 0.78335  0.69934  0.58272  Biso   1.000  Cl
  Cl7      1.0000 0.44934  0.96665  0.33272  Biso   1.000  Cl
  Cl8      1.0000 0.05066  0.03335  0.83272  Biso   1.000  Cl
  Cl9      1.0000 0.78335  0.19934  0.41728  Biso   1.000  Cl
  Cl10     1.0000 0.71665  0.80066  0.91728  Biso   1.000  Cl
  Cl11     1.0000 0.55066  0.03335  0.66728  Biso   1.000  Cl
  Cl12     1.0000 0.94934  0.96665  0.16728  Biso   1.000  Cl
  Cl13     1.0000 0.28335  0.69934  0.91728  Biso   1.000  Cl
  Cl14     1.0000 0.21665  0.30066  0.41728  Biso   1.000  Cl
  Cl15     1.0000 0.05066  0.53335  0.16728  Biso   1.000  Cl
  Cl16     1.0000 0.44934  0.46665  0.66728  Biso   1.000  Cl
