data_image0
_cell_length_a       15.9667
_cell_length_b       54.5343
_cell_length_c       10.5728
_cell_angle_alpha    90
_cell_angle_beta     90
_cell_angle_gamma    90

_symmetry_space_group_name_H-M    "P 1"
_symmetry_int_tables_number       1

loop_
  _symmetry_equiv_pos_as_xyz
  'x, y, z'

loop_
  _atom_site_label
  _atom_site_occupancy
  _atom_site_fract_x
  _atom_site_fract_y
  _atom_site_fract_z
  _atom_site_thermal_displace_type
  _atom_site_B_iso_or_equiv
  _atom_site_type_symbol
  Cu1      1.0000 0.09477  0.25000  0.75000  Biso   1.000  Cu
  Cu2      1.0000 0.40523  0.75000  0.75000  Biso   1.000  Cu
  Cu3      1.0000 0.90523  0.75000  0.25000  Biso   1.000  Cu
  Cu4      1.0000 0.59477  0.25000  0.25000  Biso   1.000  Cu
  Cu5      1.0000 0.25000  0.00000  0.33765  Biso   1.000  Cu
  Cu6      1.0000 0.25000  0.50000  0.16235  Biso   1.000  Cu
  Cu7      1.0000 0.75000  0.00000  0.66235  Biso   1.000  Cu
  Cu8      1.0000 0.75000  0.50000  0.83765  Biso   1.000  Cu
  S1       1.0000 0.42397  0.12326  0.42328  Biso   1.000  S
  S2       1.0000 0.07603  0.87674  0.42328  Biso   1.000  S
  S3       1.0000 0.07603  0.62326  0.07672  Biso   1.000  S
  S4       1.0000 0.42397  0.37674  0.07672  Biso   1.000  S
  S5       1.0000 0.57603  0.87674  0.57672  Biso   1.000  S
  S6       1.0000 0.92397  0.12326  0.57672  Biso   1.000  S
  S7       1.0000 0.92397  0.37674  0.92328  Biso   1.000  S
  S8       1.0000 0.57603  0.62326  0.92328  Biso   1.000  S
  S9       1.0000 0.33084  0.17610  0.44930  Biso   1.000  S
  S10      1.0000 0.16916  0.82390  0.44930  Biso   1.000  S
  S11      1.0000 0.16916  0.67610  0.05070  Biso   1.000  S
  S12      1.0000 0.33084  0.32390  0.05070  Biso   1.000  S
  S13      1.0000 0.66916  0.82390  0.55070  Biso   1.000  S
  S14      1.0000 0.83084  0.17610  0.55070  Biso   1.000  S
  S15      1.0000 0.83084  0.32390  0.94930  Biso   1.000  S
  S16      1.0000 0.66916  0.67610  0.94930  Biso   1.000  S
  C1       1.0000 0.39570  0.25000  0.75000  Biso   1.000  C
  C2       1.0000 0.10430  0.75000  0.75000  Biso   1.000  C
  C3       1.0000 0.60430  0.75000  0.25000  Biso   1.000  C
  C4       1.0000 0.89570  0.25000  0.25000  Biso   1.000  C
  H1       1.0000 0.45400  0.25000  0.75000  Biso   1.000  H
  H2       1.0000 0.04600  0.75000  0.75000  Biso   1.000  H
  H3       1.0000 0.54600  0.75000  0.25000  Biso   1.000  H
  H4       1.0000 0.95400  0.25000  0.25000  Biso   1.000  H
  C5       1.0000 0.09037  0.23236  0.02000  Biso   1.000  C
  C6       1.0000 0.40963  0.76764  0.02000  Biso   1.000  C
  C7       1.0000 0.40963  0.73236  0.48000  Biso   1.000  C
  C8       1.0000 0.09037  0.26764  0.48000  Biso   1.000  C
  C9       1.0000 0.90963  0.76764  0.98000  Biso   1.000  C
  C10      1.0000 0.59037  0.23236  0.98000  Biso   1.000  C
  C11      1.0000 0.59037  0.26764  0.52000  Biso   1.000  C
  C12      1.0000 0.90963  0.73236  0.52000  Biso   1.000  C
  H5       1.0000 0.08160  0.24890  0.03690  Biso   1.000  H
  H6       1.0000 0.41840  0.75110  0.03690  Biso   1.000  H
  H7       1.0000 0.41840  0.74890  0.46310  Biso   1.000  H
  H8       1.0000 0.08160  0.25110  0.46310  Biso   1.000  H
  H9       1.0000 0.91840  0.75110  0.96310  Biso   1.000  H
  H10      1.0000 0.58160  0.24890  0.96310  Biso   1.000  H
  H11      1.0000 0.58160  0.25110  0.53690  Biso   1.000  H
  H12      1.0000 0.91840  0.74890  0.53690  Biso   1.000  H
  C13      1.0000 0.92150  0.24374  0.64710  Biso   1.000  C
  C14      1.0000 0.57850  0.75626  0.64710  Biso   1.000  C
  C15      1.0000 0.57850  0.74374  0.85290  Biso   1.000  C
  C16      1.0000 0.92150  0.25626  0.85290  Biso   1.000  C
  C17      1.0000 0.07850  0.75626  0.35290  Biso   1.000  C
  C18      1.0000 0.42150  0.24374  0.35290  Biso   1.000  C
  C19      1.0000 0.42150  0.25626  0.14710  Biso   1.000  C
  C20      1.0000 0.07850  0.74374  0.14710  Biso   1.000  C
  H13      1.0000 0.95040  0.23920  0.57450  Biso   1.000  H
  H14      1.0000 0.54960  0.76080  0.57450  Biso   1.000  H
  H15      1.0000 0.54960  0.73920  0.92550  Biso   1.000  H
  H16      1.0000 0.95040  0.26080  0.92550  Biso   1.000  H
  H17      1.0000 0.04960  0.76080  0.42550  Biso   1.000  H
  H18      1.0000 0.45040  0.23920  0.42550  Biso   1.000  H
  H19      1.0000 0.45040  0.26080  0.07450  Biso   1.000  H
  H20      1.0000 0.04960  0.73920  0.07450  Biso   1.000  H
  C21      1.0000 0.26690  0.23169  0.69990  Biso   1.000  C
  C22      1.0000 0.23310  0.76831  0.69990  Biso   1.000  C
  C23      1.0000 0.23310  0.73169  0.80010  Biso   1.000  C
  C24      1.0000 0.26690  0.26831  0.80010  Biso   1.000  C
  C25      1.0000 0.73310  0.76831  0.30010  Biso   1.000  C
  C26      1.0000 0.76690  0.23169  0.30010  Biso   1.000  C
  C27      1.0000 0.76690  0.26831  0.19990  Biso   1.000  C
  C28      1.0000 0.73310  0.73169  0.19990  Biso   1.000  C
  H21      1.0000 0.23780  0.21860  0.66500  Biso   1.000  H
  H22      1.0000 0.26220  0.78140  0.66500  Biso   1.000  H
  H23      1.0000 0.26220  0.71860  0.83500  Biso   1.000  H
  H24      1.0000 0.23780  0.28140  0.83500  Biso   1.000  H
  H25      1.0000 0.76220  0.78140  0.33500  Biso   1.000  H
  H26      1.0000 0.73780  0.21860  0.33500  Biso   1.000  H
  H27      1.0000 0.73780  0.28140  0.16500  Biso   1.000  H
  H28      1.0000 0.76220  0.71860  0.16500  Biso   1.000  H
  C29      1.0000 0.11180  0.20164  0.88020  Biso   1.000  C
  C30      1.0000 0.38820  0.79836  0.88020  Biso   1.000  C
  C31      1.0000 0.38820  0.70164  0.61980  Biso   1.000  C
  C32      1.0000 0.11180  0.29836  0.61980  Biso   1.000  C
  C33      1.0000 0.88820  0.79836  0.11980  Biso   1.000  C
  C34      1.0000 0.61180  0.20164  0.11980  Biso   1.000  C
  C35      1.0000 0.61180  0.29836  0.38020  Biso   1.000  C
  C36      1.0000 0.88820  0.70164  0.38020  Biso   1.000  C
  H29      1.0000 0.11700  0.19620  0.79720  Biso   1.000  H
  H30      1.0000 0.38300  0.80380  0.79720  Biso   1.000  H
  H31      1.0000 0.38300  0.69620  0.70280  Biso   1.000  H
  H32      1.0000 0.11700  0.30380  0.70280  Biso   1.000  H
  H33      1.0000 0.88300  0.80380  0.20280  Biso   1.000  H
  H34      1.0000 0.61700  0.19620  0.20280  Biso   1.000  H
  H35      1.0000 0.61700  0.30380  0.29720  Biso   1.000  H
  H36      1.0000 0.88300  0.69620  0.29720  Biso   1.000  H
  C37      1.0000 0.09460  0.21638  0.12030  Biso   1.000  C
  C38      1.0000 0.40540  0.78362  0.12030  Biso   1.000  C
  C39      1.0000 0.40540  0.71638  0.37970  Biso   1.000  C
  C40      1.0000 0.09460  0.28362  0.37970  Biso   1.000  C
  C41      1.0000 0.90540  0.78362  0.87970  Biso   1.000  C
  C42      1.0000 0.59460  0.21638  0.87970  Biso   1.000  C
  C43      1.0000 0.59460  0.28362  0.62030  Biso   1.000  C
  C44      1.0000 0.90540  0.71638  0.62030  Biso   1.000  C
  H37      1.0000 0.08790  0.22200  0.20270  Biso   1.000  H
  H38      1.0000 0.41210  0.77800  0.20270  Biso   1.000  H
  H39      1.0000 0.41210  0.72200  0.29730  Biso   1.000  H
  H40      1.0000 0.08790  0.27800  0.29730  Biso   1.000  H
  H41      1.0000 0.91210  0.77800  0.79730  Biso   1.000  H
  H42      1.0000 0.58790  0.22200  0.79730  Biso   1.000  H
  H43      1.0000 0.58790  0.27800  0.70270  Biso   1.000  H
  H44      1.0000 0.91210  0.72200  0.70270  Biso   1.000  H
  C45      1.0000 0.10850  0.19250  0.09780  Biso   1.000  C
  C46      1.0000 0.39150  0.80750  0.09780  Biso   1.000  C
  C47      1.0000 0.39150  0.69250  0.40220  Biso   1.000  C
  C48      1.0000 0.10850  0.30750  0.40220  Biso   1.000  C
  C49      1.0000 0.89150  0.80750  0.90220  Biso   1.000  C
  C50      1.0000 0.60850  0.19250  0.90220  Biso   1.000  C
  C51      1.0000 0.60850  0.30750  0.59780  Biso   1.000  C
  C52      1.0000 0.89150  0.69250  0.59780  Biso   1.000  C
  H45      1.0000 0.11110  0.18140  0.16450  Biso   1.000  H
  H46      1.0000 0.38890  0.81860  0.16450  Biso   1.000  H
  H47      1.0000 0.38890  0.68140  0.33550  Biso   1.000  H
  H48      1.0000 0.11110  0.31860  0.33550  Biso   1.000  H
  H49      1.0000 0.88890  0.81860  0.83550  Biso   1.000  H
  H50      1.0000 0.61110  0.18140  0.83550  Biso   1.000  H
  H51      1.0000 0.61110  0.31860  0.66450  Biso   1.000  H
  H52      1.0000 0.88890  0.68140  0.66450  Biso   1.000  H
  C53      1.0000 0.83590  0.24374  0.64340  Biso   1.000  C
  C54      1.0000 0.66410  0.75626  0.64340  Biso   1.000  C
  C55      1.0000 0.66410  0.74374  0.85660  Biso   1.000  C
  C56      1.0000 0.83590  0.25626  0.85660  Biso   1.000  C
  C57      1.0000 0.16410  0.75626  0.35660  Biso   1.000  C
  C58      1.0000 0.33590  0.24374  0.35660  Biso   1.000  C
  C59      1.0000 0.33590  0.25626  0.14340  Biso   1.000  C
  C60      1.0000 0.16410  0.74374  0.14340  Biso   1.000  C
  H53      1.0000 0.80770  0.23950  0.56950  Biso   1.000  H
  H54      1.0000 0.69230  0.76050  0.56950  Biso   1.000  H
  H55      1.0000 0.69230  0.73950  0.93050  Biso   1.000  H
  H56      1.0000 0.80770  0.26050  0.93050  Biso   1.000  H
  H57      1.0000 0.19230  0.76050  0.43050  Biso   1.000  H
  H58      1.0000 0.30770  0.23950  0.43050  Biso   1.000  H
  H59      1.0000 0.30770  0.26050  0.06950  Biso   1.000  H
  H60      1.0000 0.19230  0.73950  0.06950  Biso   1.000  H
  C61      1.0000 0.11870  0.18468  0.97560  Biso   1.000  C
  C62      1.0000 0.38130  0.81532  0.97560  Biso   1.000  C
  C63      1.0000 0.38130  0.68468  0.52440  Biso   1.000  C
  C64      1.0000 0.11870  0.31532  0.52440  Biso   1.000  C
  C65      1.0000 0.88130  0.81532  0.02440  Biso   1.000  C
  C66      1.0000 0.61870  0.18468  0.02440  Biso   1.000  C
  C67      1.0000 0.61870  0.31532  0.47560  Biso   1.000  C
  C68      1.0000 0.88130  0.68468  0.47560  Biso   1.000  C
  H61      1.0000 0.13000  0.16830  0.95780  Biso   1.000  H
  H62      1.0000 0.37000  0.83170  0.95780  Biso   1.000  H
  H63      1.0000 0.37000  0.66830  0.54220  Biso   1.000  H
  H64      1.0000 0.13000  0.33170  0.54220  Biso   1.000  H
  H65      1.0000 0.87000  0.83170  0.04220  Biso   1.000  H
  H66      1.0000 0.63000  0.16830  0.04220  Biso   1.000  H
  H67      1.0000 0.63000  0.33170  0.45780  Biso   1.000  H
  H68      1.0000 0.87000  0.66830  0.45780  Biso   1.000  H
  C69      1.0000 0.35310  0.23113  0.69680  Biso   1.000  C
  C70      1.0000 0.14690  0.76887  0.69680  Biso   1.000  C
  C71      1.0000 0.14690  0.73113  0.80320  Biso   1.000  C
  C72      1.0000 0.35310  0.26887  0.80320  Biso   1.000  C
  C73      1.0000 0.64690  0.76887  0.30320  Biso   1.000  C
  C74      1.0000 0.85310  0.23113  0.30320  Biso   1.000  C
  C75      1.0000 0.85310  0.26887  0.19680  Biso   1.000  C
  C76      1.0000 0.64690  0.73113  0.19680  Biso   1.000  C
  H69      1.0000 0.38140  0.21810  0.65910  Biso   1.000  H
  H70      1.0000 0.11860  0.78190  0.65910  Biso   1.000  H
  H71      1.0000 0.11860  0.71810  0.84090  Biso   1.000  H
  H72      1.0000 0.38140  0.28190  0.84090  Biso   1.000  H
  H73      1.0000 0.61860  0.78190  0.34090  Biso   1.000  H
  H74      1.0000 0.88140  0.21810  0.34090  Biso   1.000  H
  H75      1.0000 0.88140  0.28190  0.15910  Biso   1.000  H
  H76      1.0000 0.61860  0.71810  0.15910  Biso   1.000  H
  C77      1.0000 0.29279  0.10604  0.56500  Biso   1.000  C
  C78      1.0000 0.20721  0.89396  0.56500  Biso   1.000  C
  C79      1.0000 0.20721  0.60604  0.93500  Biso   1.000  C
  C80      1.0000 0.29279  0.39396  0.93500  Biso   1.000  C
  C81      1.0000 0.70721  0.89396  0.43500  Biso   1.000  C
  C82      1.0000 0.79279  0.10604  0.43500  Biso   1.000  C
  C83      1.0000 0.79279  0.39396  0.06500  Biso   1.000  C
  C84      1.0000 0.70721  0.60604  0.06500  Biso   1.000  C
  C85      1.0000 0.21480  0.15141  0.58640  Biso   1.000  C
  C86      1.0000 0.28520  0.84859  0.58640  Biso   1.000  C
  C87      1.0000 0.28520  0.65141  0.91360  Biso   1.000  C
  C88      1.0000 0.21480  0.34859  0.91360  Biso   1.000  C
  C89      1.0000 0.78520  0.84859  0.41360  Biso   1.000  C
  C90      1.0000 0.71480  0.15141  0.41360  Biso   1.000  C
  C91      1.0000 0.71480  0.34859  0.08640  Biso   1.000  C
  C92      1.0000 0.78520  0.65141  0.08640  Biso   1.000  C
  C93      1.0000 0.07861  0.20414  0.51040  Biso   1.000  C
  C94      1.0000 0.42139  0.79586  0.51040  Biso   1.000  C
  C95      1.0000 0.42139  0.70414  0.98960  Biso   1.000  C
  C96      1.0000 0.07861  0.29586  0.98960  Biso   1.000  C
  C97      1.0000 0.92139  0.79586  0.48960  Biso   1.000  C
  C98      1.0000 0.57861  0.20414  0.48960  Biso   1.000  C
  C99      1.0000 0.57861  0.29586  0.01040  Biso   1.000  C
  C100     1.0000 0.92139  0.70414  0.01040  Biso   1.000  C
  C101     1.0000 0.22155  0.10829  0.64370  Biso   1.000  C
  C102     1.0000 0.27845  0.89171  0.64370  Biso   1.000  C
  C103     1.0000 0.27845  0.60829  0.85630  Biso   1.000  C
  C104     1.0000 0.22155  0.39171  0.85630  Biso   1.000  C
  C105     1.0000 0.77845  0.89171  0.35630  Biso   1.000  C
  C106     1.0000 0.72155  0.10829  0.35630  Biso   1.000  C
  C107     1.0000 0.72155  0.39171  0.14370  Biso   1.000  C
  C108     1.0000 0.77845  0.60829  0.14370  Biso   1.000  C
  C109     1.0000 0.18235  0.13133  0.65510  Biso   1.000  C
  C110     1.0000 0.31765  0.86867  0.65510  Biso   1.000  C
  C111     1.0000 0.31765  0.63133  0.84490  Biso   1.000  C
  C112     1.0000 0.18235  0.36867  0.84490  Biso   1.000  C
  C113     1.0000 0.81765  0.86867  0.34490  Biso   1.000  C
  C114     1.0000 0.68235  0.13133  0.34490  Biso   1.000  C
  C115     1.0000 0.68235  0.36867  0.15510  Biso   1.000  C
  C116     1.0000 0.81765  0.63133  0.15510  Biso   1.000  C
  C117     1.0000 0.32755  0.12601  0.50640  Biso   1.000  C
  C118     1.0000 0.17245  0.87399  0.50640  Biso   1.000  C
  C119     1.0000 0.17245  0.62601  0.99360  Biso   1.000  C
  C120     1.0000 0.32755  0.37399  0.99360  Biso   1.000  C
  C121     1.0000 0.67245  0.87399  0.49360  Biso   1.000  C
  C122     1.0000 0.82755  0.12601  0.49360  Biso   1.000  C
  C123     1.0000 0.82755  0.37399  0.00640  Biso   1.000  C
  C124     1.0000 0.67245  0.62601  0.00640  Biso   1.000  C
  C125     1.0000 0.28692  0.14935  0.51470  Biso   1.000  C
  C126     1.0000 0.21308  0.85065  0.51470  Biso   1.000  C
  C127     1.0000 0.21308  0.64935  0.98530  Biso   1.000  C
  C128     1.0000 0.28692  0.35065  0.98530  Biso   1.000  C
  C129     1.0000 0.71308  0.85065  0.48530  Biso   1.000  C
  C130     1.0000 0.78692  0.14935  0.48530  Biso   1.000  C
  C131     1.0000 0.78692  0.35065  0.01470  Biso   1.000  C
  C132     1.0000 0.71308  0.64935  0.01470  Biso   1.000  C
  C133     1.0000 0.11630  0.17883  0.49870  Biso   1.000  C
  C134     1.0000 0.38370  0.82117  0.49870  Biso   1.000  C
  C135     1.0000 0.38370  0.67883  0.00130  Biso   1.000  C
  C136     1.0000 0.11630  0.32117  0.00130  Biso   1.000  C
  C137     1.0000 0.88370  0.82117  0.50130  Biso   1.000  C
  C138     1.0000 0.61630  0.17883  0.50130  Biso   1.000  C
  C139     1.0000 0.61630  0.32117  0.99870  Biso   1.000  C
  C140     1.0000 0.88370  0.67883  0.99870  Biso   1.000  C
  H77      1.0000 0.07180  0.16670  0.50110  Biso   1.000  H
  H78      1.0000 0.42820  0.83330  0.50110  Biso   1.000  H
  H79      1.0000 0.42820  0.66670  0.99890  Biso   1.000  H
  H80      1.0000 0.07180  0.33330  0.99890  Biso   1.000  H
  H81      1.0000 0.92820  0.83330  0.49890  Biso   1.000  H
  H82      1.0000 0.57180  0.16670  0.49890  Biso   1.000  H
  H83      1.0000 0.57180  0.33330  0.00110  Biso   1.000  H
  H84      1.0000 0.92820  0.66670  0.00110  Biso   1.000  H
  H85      1.0000 0.14450  0.17740  0.41780  Biso   1.000  H
  H86      1.0000 0.35550  0.82260  0.41780  Biso   1.000  H
  H87      1.0000 0.35550  0.67740  0.08220  Biso   1.000  H
  H88      1.0000 0.14450  0.32260  0.08220  Biso   1.000  H
  H89      1.0000 0.85550  0.82260  0.58220  Biso   1.000  H
  H90      1.0000 0.64450  0.17740  0.58220  Biso   1.000  H
  H91      1.0000 0.64450  0.32260  0.91780  Biso   1.000  H
  H92      1.0000 0.85550  0.67740  0.91780  Biso   1.000  H
  C141     1.0000 0.49450  0.13024  0.65790  Biso   1.000  C
  C142     1.0000 0.00550  0.86976  0.65790  Biso   1.000  C
  C143     1.0000 0.00550  0.63024  0.84210  Biso   1.000  C
  C144     1.0000 0.49450  0.36976  0.84210  Biso   1.000  C
  C145     1.0000 0.50550  0.86976  0.34210  Biso   1.000  C
  C146     1.0000 0.99450  0.13024  0.34210  Biso   1.000  C
  C147     1.0000 0.99450  0.36976  0.15790  Biso   1.000  C
  C148     1.0000 0.50550  0.63024  0.15790  Biso   1.000  C
  H93      1.0000 0.46200  0.14440  0.66250  Biso   1.000  H
  H94      1.0000 0.03800  0.85560  0.66250  Biso   1.000  H
  H95      1.0000 0.03800  0.64440  0.83750  Biso   1.000  H
  H96      1.0000 0.46200  0.35560  0.83750  Biso   1.000  H
  H97      1.0000 0.53800  0.85560  0.33750  Biso   1.000  H
  H98      1.0000 0.96200  0.14440  0.33750  Biso   1.000  H
  H99      1.0000 0.96200  0.35560  0.16250  Biso   1.000  H
  H100     1.0000 0.53800  0.64440  0.16250  Biso   1.000  H
  C149     1.0000 0.49076  0.11556  0.55220  Biso   1.000  C
  C150     1.0000 0.00924  0.88444  0.55220  Biso   1.000  C
  C151     1.0000 0.00924  0.61556  0.94780  Biso   1.000  C
  C152     1.0000 0.49076  0.38444  0.94780  Biso   1.000  C
  C153     1.0000 0.50924  0.88444  0.44780  Biso   1.000  C
  C154     1.0000 0.99076  0.11556  0.44780  Biso   1.000  C
  C155     1.0000 0.99076  0.38444  0.05220  Biso   1.000  C
  C156     1.0000 0.50924  0.61556  0.05220  Biso   1.000  C
  C157     1.0000 0.18940  0.08799  0.71110  Biso   1.000  C
  C158     1.0000 0.31060  0.91201  0.71110  Biso   1.000  C
  C159     1.0000 0.31060  0.58799  0.78890  Biso   1.000  C
  C160     1.0000 0.18940  0.41201  0.78890  Biso   1.000  C
  C161     1.0000 0.81060  0.91201  0.28890  Biso   1.000  C
  C162     1.0000 0.68940  0.08799  0.28890  Biso   1.000  C
  C163     1.0000 0.68940  0.41201  0.21110  Biso   1.000  C
  C164     1.0000 0.81060  0.58799  0.21110  Biso   1.000  C
  H101     1.0000 0.21380  0.07260  0.70250  Biso   1.000  H
  H102     1.0000 0.28620  0.92740  0.70250  Biso   1.000  H
  H103     1.0000 0.28620  0.57260  0.79750  Biso   1.000  H
  H104     1.0000 0.21380  0.42740  0.79750  Biso   1.000  H
  H105     1.0000 0.78620  0.92740  0.29750  Biso   1.000  H
  H106     1.0000 0.71380  0.07260  0.29750  Biso   1.000  H
  H107     1.0000 0.71380  0.42740  0.20250  Biso   1.000  H
  H108     1.0000 0.78620  0.57260  0.20250  Biso   1.000  H
  C165     1.0000 0.28100  0.15373  0.22540  Biso   1.000  C
  C166     1.0000 0.21900  0.84627  0.22540  Biso   1.000  C
  C167     1.0000 0.21900  0.65373  0.27460  Biso   1.000  C
  C168     1.0000 0.28100  0.34627  0.27460  Biso   1.000  C
  C169     1.0000 0.71900  0.84627  0.77460  Biso   1.000  C
  C170     1.0000 0.78100  0.15373  0.77460  Biso   1.000  C
  C171     1.0000 0.78100  0.34627  0.72540  Biso   1.000  C
  C172     1.0000 0.71900  0.65373  0.72540  Biso   1.000  C
  H109     1.0000 0.24340  0.14440  0.27230  Biso   1.000  H
  H110     1.0000 0.25660  0.85560  0.27230  Biso   1.000  H
  H111     1.0000 0.25660  0.64440  0.22770  Biso   1.000  H
  H112     1.0000 0.24340  0.35560  0.22770  Biso   1.000  H
  H113     1.0000 0.75660  0.85560  0.72770  Biso   1.000  H
  H114     1.0000 0.74340  0.14440  0.72770  Biso   1.000  H
  H115     1.0000 0.74340  0.35560  0.77230  Biso   1.000  H
  H116     1.0000 0.75660  0.64440  0.77230  Biso   1.000  H
  C173     1.0000 0.33360  0.17000  0.28560  Biso   1.000  C
  C174     1.0000 0.16640  0.83000  0.28560  Biso   1.000  C
  C175     1.0000 0.16640  0.67000  0.21440  Biso   1.000  C
  C176     1.0000 0.33360  0.33000  0.21440  Biso   1.000  C
  C177     1.0000 0.66640  0.83000  0.71440  Biso   1.000  C
  C178     1.0000 0.83360  0.17000  0.71440  Biso   1.000  C
  C179     1.0000 0.83360  0.33000  0.78560  Biso   1.000  C
  C180     1.0000 0.66640  0.67000  0.78560  Biso   1.000  C
  C181     1.0000 0.08400  0.11418  0.80090  Biso   1.000  C
  C182     1.0000 0.41600  0.88582  0.80090  Biso   1.000  C
  C183     1.0000 0.41600  0.61418  0.69910  Biso   1.000  C
  C184     1.0000 0.08400  0.38582  0.69910  Biso   1.000  C
  C185     1.0000 0.91600  0.88582  0.19910  Biso   1.000  C
  C186     1.0000 0.58400  0.11418  0.19910  Biso   1.000  C
  C187     1.0000 0.58400  0.38582  0.30090  Biso   1.000  C
  C188     1.0000 0.91600  0.61418  0.30090  Biso   1.000  C
  H117     1.0000 0.03840  0.11600  0.85480  Biso   1.000  H
  H118     1.0000 0.46160  0.88400  0.85480  Biso   1.000  H
  H119     1.0000 0.46160  0.61600  0.64520  Biso   1.000  H
  H120     1.0000 0.03840  0.38400  0.64520  Biso   1.000  H
  H121     1.0000 0.96160  0.88400  0.14520  Biso   1.000  H
  H122     1.0000 0.53840  0.11600  0.14520  Biso   1.000  H
  H123     1.0000 0.53840  0.38400  0.35480  Biso   1.000  H
  H124     1.0000 0.96160  0.61600  0.35480  Biso   1.000  H
  C189     1.0000 0.11240  0.13378  0.73540  Biso   1.000  C
  C190     1.0000 0.38760  0.86622  0.73540  Biso   1.000  C
  C191     1.0000 0.38760  0.63378  0.76460  Biso   1.000  C
  C192     1.0000 0.11240  0.36622  0.76460  Biso   1.000  C
  C193     1.0000 0.88760  0.86622  0.26460  Biso   1.000  C
  C194     1.0000 0.61240  0.13378  0.26460  Biso   1.000  C
  C195     1.0000 0.61240  0.36622  0.23540  Biso   1.000  C
  C196     1.0000 0.88760  0.63378  0.23540  Biso   1.000  C
  H125     1.0000 0.08580  0.14890  0.74330  Biso   1.000  H
  H126     1.0000 0.41420  0.85110  0.74330  Biso   1.000  H
  H127     1.0000 0.41420  0.64890  0.75670  Biso   1.000  H
  H128     1.0000 0.08580  0.35110  0.75670  Biso   1.000  H
  H129     1.0000 0.91420  0.85110  0.25670  Biso   1.000  H
  H130     1.0000 0.58580  0.14890  0.25670  Biso   1.000  H
  H131     1.0000 0.58580  0.35110  0.24330  Biso   1.000  H
  H132     1.0000 0.91420  0.64890  0.24330  Biso   1.000  H
  C197     1.0000 0.33730  0.16538  0.02260  Biso   1.000  C
  C198     1.0000 0.16270  0.83462  0.02260  Biso   1.000  C
  C199     1.0000 0.16270  0.66538  0.47740  Biso   1.000  C
  C200     1.0000 0.33730  0.33462  0.47740  Biso   1.000  C
  C201     1.0000 0.66270  0.83462  0.97740  Biso   1.000  C
  C202     1.0000 0.83730  0.16538  0.97740  Biso   1.000  C
  C203     1.0000 0.83730  0.33462  0.52260  Biso   1.000  C
  C204     1.0000 0.66270  0.66538  0.52260  Biso   1.000  C
  C205     1.0000 0.54180  0.09514  0.54600  Biso   1.000  C
  C206     1.0000 0.95820  0.90486  0.54600  Biso   1.000  C
  C207     1.0000 0.95820  0.59514  0.95400  Biso   1.000  C
  C208     1.0000 0.54180  0.40486  0.95400  Biso   1.000  C
  C209     1.0000 0.45820  0.90486  0.45400  Biso   1.000  C
  C210     1.0000 0.04180  0.09514  0.45400  Biso   1.000  C
  C211     1.0000 0.04180  0.40486  0.04600  Biso   1.000  C
  C212     1.0000 0.45820  0.59514  0.04600  Biso   1.000  C
  H133     1.0000 0.54050  0.08530  0.47420  Biso   1.000  H
  H134     1.0000 0.95950  0.91470  0.47420  Biso   1.000  H
  H135     1.0000 0.95950  0.58530  0.02580  Biso   1.000  H
  H136     1.0000 0.54050  0.41470  0.02580  Biso   1.000  H
  H137     1.0000 0.45950  0.91470  0.52580  Biso   1.000  H
  H138     1.0000 0.04050  0.08530  0.52580  Biso   1.000  H
  H139     1.0000 0.04050  0.41470  0.97420  Biso   1.000  H
  H140     1.0000 0.45950  0.58530  0.97420  Biso   1.000  H
  C213     1.0000 0.59450  0.08915  0.64450  Biso   1.000  C
  C214     1.0000 0.90550  0.91085  0.64450  Biso   1.000  C
  C215     1.0000 0.90550  0.58915  0.85550  Biso   1.000  C
  C216     1.0000 0.59450  0.41085  0.85550  Biso   1.000  C
  C217     1.0000 0.40550  0.91085  0.35550  Biso   1.000  C
  C218     1.0000 0.09450  0.08915  0.35550  Biso   1.000  C
  C219     1.0000 0.09450  0.41085  0.14450  Biso   1.000  C
  C220     1.0000 0.40550  0.58915  0.14450  Biso   1.000  C
  H141     1.0000 0.62930  0.07550  0.63880  Biso   1.000  H
  H142     1.0000 0.87070  0.92450  0.63880  Biso   1.000  H
  H143     1.0000 0.87070  0.57550  0.86120  Biso   1.000  H
  H144     1.0000 0.62930  0.42450  0.86120  Biso   1.000  H
  H145     1.0000 0.37070  0.92450  0.36120  Biso   1.000  H
  H146     1.0000 0.12930  0.07550  0.36120  Biso   1.000  H
  H147     1.0000 0.12930  0.42450  0.13880  Biso   1.000  H
  H148     1.0000 0.37070  0.57550  0.13880  Biso   1.000  H
  C221     1.0000 0.28420  0.15117  0.09360  Biso   1.000  C
  C222     1.0000 0.21580  0.84883  0.09360  Biso   1.000  C
  C223     1.0000 0.21580  0.65117  0.40640  Biso   1.000  C
  C224     1.0000 0.28420  0.34883  0.40640  Biso   1.000  C
  C225     1.0000 0.71580  0.84883  0.90640  Biso   1.000  C
  C226     1.0000 0.78420  0.15117  0.90640  Biso   1.000  C
  C227     1.0000 0.78420  0.34883  0.59360  Biso   1.000  C
  C228     1.0000 0.71580  0.65117  0.59360  Biso   1.000  C
  H149     1.0000 0.25000  0.13970  0.05380  Biso   1.000  H
  H150     1.0000 0.25000  0.86030  0.05380  Biso   1.000  H
  H151     1.0000 0.25000  0.63970  0.44620  Biso   1.000  H
  H152     1.0000 0.25000  0.36030  0.44620  Biso   1.000  H
  H153     1.0000 0.75000  0.86030  0.94620  Biso   1.000  H
  H154     1.0000 0.75000  0.13970  0.94620  Biso   1.000  H
  H155     1.0000 0.75000  0.36030  0.55380  Biso   1.000  H
  H156     1.0000 0.75000  0.63970  0.55380  Biso   1.000  H
  C229     1.0000 0.59490  0.10340  0.75000  Biso   1.000  C
  C230     1.0000 0.90510  0.89660  0.75000  Biso   1.000  C
  C231     1.0000 0.90510  0.60340  0.75000  Biso   1.000  C
  C232     1.0000 0.59490  0.39660  0.75000  Biso   1.000  C
  C233     1.0000 0.40510  0.89660  0.25000  Biso   1.000  C
  C234     1.0000 0.09490  0.10340  0.25000  Biso   1.000  C
  C235     1.0000 0.09490  0.39660  0.25000  Biso   1.000  C
  C236     1.0000 0.40510  0.60340  0.25000  Biso   1.000  C
  C237     1.0000 0.12230  0.09115  0.78880  Biso   1.000  C
  C238     1.0000 0.37770  0.90885  0.78880  Biso   1.000  C
  C239     1.0000 0.37770  0.59115  0.71120  Biso   1.000  C
  C240     1.0000 0.12230  0.40885  0.71120  Biso   1.000  C
  C241     1.0000 0.87770  0.90885  0.21120  Biso   1.000  C
  C242     1.0000 0.62230  0.09115  0.21120  Biso   1.000  C
  C243     1.0000 0.62230  0.40885  0.28880  Biso   1.000  C
  C244     1.0000 0.87770  0.59115  0.28880  Biso   1.000  C
  H157     1.0000 0.10160  0.07790  0.83440  Biso   1.000  H
  H158     1.0000 0.39840  0.92210  0.83440  Biso   1.000  H
  H159     1.0000 0.39840  0.57790  0.66560  Biso   1.000  H
  H160     1.0000 0.10160  0.42210  0.66560  Biso   1.000  H
  H161     1.0000 0.89840  0.92210  0.16560  Biso   1.000  H
  H162     1.0000 0.60160  0.07790  0.16560  Biso   1.000  H
  H163     1.0000 0.60160  0.42210  0.33440  Biso   1.000  H
  H164     1.0000 0.89840  0.57790  0.33440  Biso   1.000  H
  C245     1.0000 0.54610  0.12411  0.75630  Biso   1.000  C
  C246     1.0000 0.95390  0.87589  0.75630  Biso   1.000  C
  C247     1.0000 0.95390  0.62411  0.74370  Biso   1.000  C
  C248     1.0000 0.54610  0.37589  0.74370  Biso   1.000  C
  C249     1.0000 0.45390  0.87589  0.24370  Biso   1.000  C
  C250     1.0000 0.04610  0.12411  0.24370  Biso   1.000  C
  C251     1.0000 0.04610  0.37589  0.25630  Biso   1.000  C
  C252     1.0000 0.45390  0.62411  0.25630  Biso   1.000  C
  H165     1.0000 0.54820  0.13400  0.82780  Biso   1.000  H
  H166     1.0000 0.95180  0.86600  0.82780  Biso   1.000  H
  H167     1.0000 0.95180  0.63400  0.67220  Biso   1.000  H
  H168     1.0000 0.54820  0.36600  0.67220  Biso   1.000  H
  H169     1.0000 0.45180  0.86600  0.17220  Biso   1.000  H
  H170     1.0000 0.04820  0.13400  0.17220  Biso   1.000  H
  H171     1.0000 0.04820  0.36600  0.32780  Biso   1.000  H
  H172     1.0000 0.45180  0.63400  0.32780  Biso   1.000  H
  C253     1.0000 0.38970  0.18344  0.21400  Biso   1.000  C
  C254     1.0000 0.11030  0.81656  0.21400  Biso   1.000  C
  C255     1.0000 0.11030  0.68344  0.28600  Biso   1.000  C
  C256     1.0000 0.38970  0.31656  0.28600  Biso   1.000  C
  C257     1.0000 0.61030  0.81656  0.78600  Biso   1.000  C
  C258     1.0000 0.88970  0.18344  0.78600  Biso   1.000  C
  C259     1.0000 0.88970  0.31656  0.71400  Biso   1.000  C
  C260     1.0000 0.61030  0.68344  0.71400  Biso   1.000  C
  H173     1.0000 0.42730  0.19400  0.25370  Biso   1.000  H
  H174     1.0000 0.07270  0.80600  0.25370  Biso   1.000  H
  H175     1.0000 0.07270  0.69400  0.24630  Biso   1.000  H
  H176     1.0000 0.42730  0.30600  0.24630  Biso   1.000  H
  H177     1.0000 0.57270  0.80600  0.74630  Biso   1.000  H
  H178     1.0000 0.92730  0.19400  0.74630  Biso   1.000  H
  H179     1.0000 0.92730  0.30600  0.75370  Biso   1.000  H
  H180     1.0000 0.57270  0.69400  0.75370  Biso   1.000  H
  C261     1.0000 0.39030  0.18129  0.08330  Biso   1.000  C
  C262     1.0000 0.10970  0.81871  0.08330  Biso   1.000  C
  C263     1.0000 0.10970  0.68129  0.41670  Biso   1.000  C
  C264     1.0000 0.39030  0.31871  0.41670  Biso   1.000  C
  C265     1.0000 0.60970  0.81871  0.91670  Biso   1.000  C
  C266     1.0000 0.89030  0.18129  0.91670  Biso   1.000  C
  C267     1.0000 0.89030  0.31871  0.58330  Biso   1.000  C
  C268     1.0000 0.60970  0.68129  0.58330  Biso   1.000  C
  H181     1.0000 0.42720  0.19080  0.03600  Biso   1.000  H
  H182     1.0000 0.07280  0.80920  0.03600  Biso   1.000  H
  H183     1.0000 0.07280  0.69080  0.46400  Biso   1.000  H
  H184     1.0000 0.42720  0.30920  0.46400  Biso   1.000  H
  H185     1.0000 0.57280  0.80920  0.96400  Biso   1.000  H
  H186     1.0000 0.92720  0.19080  0.96400  Biso   1.000  H
  H187     1.0000 0.92720  0.30920  0.53600  Biso   1.000  H
  H188     1.0000 0.57280  0.69080  0.53600  Biso   1.000  H
  C269     1.0000 0.32181  0.07058  0.44090  Biso   1.000  C
  C270     1.0000 0.17819  0.92942  0.44090  Biso   1.000  C
  C271     1.0000 0.17819  0.57058  0.05910  Biso   1.000  C
  C272     1.0000 0.32181  0.42942  0.05910  Biso   1.000  C
  C273     1.0000 0.67819  0.92942  0.55910  Biso   1.000  C
  C274     1.0000 0.82181  0.07058  0.55910  Biso   1.000  C
  C275     1.0000 0.82181  0.42942  0.94090  Biso   1.000  C
  C276     1.0000 0.67819  0.57058  0.94090  Biso   1.000  C
  H189     1.0000 0.37660  0.06940  0.40180  Biso   1.000  H
  H190     1.0000 0.12340  0.93060  0.40180  Biso   1.000  H
  H191     1.0000 0.12340  0.56940  0.09820  Biso   1.000  H
  H192     1.0000 0.37660  0.43060  0.09820  Biso   1.000  H
  H193     1.0000 0.62340  0.93060  0.59820  Biso   1.000  H
  H194     1.0000 0.87660  0.06940  0.59820  Biso   1.000  H
  H195     1.0000 0.87660  0.43060  0.90180  Biso   1.000  H
  H196     1.0000 0.62340  0.56940  0.90180  Biso   1.000  H
  H197     1.0000 0.28630  0.08020  0.38530  Biso   1.000  H
  H198     1.0000 0.21370  0.91980  0.38530  Biso   1.000  H
  H199     1.0000 0.21370  0.58020  0.11470  Biso   1.000  H
  H200     1.0000 0.28630  0.41980  0.11470  Biso   1.000  H
  H201     1.0000 0.71370  0.91980  0.61470  Biso   1.000  H
  H202     1.0000 0.78630  0.08020  0.61470  Biso   1.000  H
  H203     1.0000 0.78630  0.41980  0.88530  Biso   1.000  H
  H204     1.0000 0.71370  0.58020  0.88530  Biso   1.000  H
  C277     1.0000 0.95220  0.01184  0.33470  Biso   1.000  C
  C278     1.0000 0.54780  0.98816  0.33470  Biso   1.000  C
  C279     1.0000 0.54780  0.51184  0.16530  Biso   1.000  C
  C280     1.0000 0.95220  0.48816  0.16530  Biso   1.000  C
  C281     1.0000 0.04780  0.98816  0.66530  Biso   1.000  C
  C282     1.0000 0.45220  0.01184  0.66530  Biso   1.000  C
  C283     1.0000 0.45220  0.48816  0.83470  Biso   1.000  C
  C284     1.0000 0.04780  0.51184  0.83470  Biso   1.000  C
  H205     1.0000 0.89450  0.01400  0.33320  Biso   1.000  H
  H206     1.0000 0.60550  0.98600  0.33320  Biso   1.000  H
  H207     1.0000 0.60550  0.51400  0.16680  Biso   1.000  H
  H208     1.0000 0.89450  0.48600  0.16680  Biso   1.000  H
  H209     1.0000 0.10550  0.98600  0.66680  Biso   1.000  H
  H210     1.0000 0.39450  0.01400  0.66680  Biso   1.000  H
  H211     1.0000 0.39450  0.48600  0.83320  Biso   1.000  H
  H212     1.0000 0.10550  0.51400  0.83320  Biso   1.000  H
  C285     1.0000 0.28548  0.04509  0.45270  Biso   1.000  C
  C286     1.0000 0.21452  0.95491  0.45270  Biso   1.000  C
  C287     1.0000 0.21452  0.54509  0.04730  Biso   1.000  C
  C288     1.0000 0.28548  0.45491  0.04730  Biso   1.000  C
  C289     1.0000 0.71452  0.95491  0.54730  Biso   1.000  C
  C290     1.0000 0.78548  0.04509  0.54730  Biso   1.000  C
  C291     1.0000 0.78548  0.45491  0.95270  Biso   1.000  C
  C292     1.0000 0.71452  0.54509  0.95270  Biso   1.000  C
  C293     1.0000 0.08650  0.02259  0.41070  Biso   1.000  C
  C294     1.0000 0.41350  0.97741  0.41070  Biso   1.000  C
  C295     1.0000 0.41350  0.52259  0.08930  Biso   1.000  C
  C296     1.0000 0.08650  0.47741  0.08930  Biso   1.000  C
  C297     1.0000 0.91350  0.97741  0.58930  Biso   1.000  C
  C298     1.0000 0.58650  0.02259  0.58930  Biso   1.000  C
  C299     1.0000 0.58650  0.47741  0.91070  Biso   1.000  C
  C300     1.0000 0.91350  0.52259  0.91070  Biso   1.000  C
  H213     1.0000 0.11920  0.03260  0.46210  Biso   1.000  H
  H214     1.0000 0.38080  0.96740  0.46210  Biso   1.000  H
  H215     1.0000 0.38080  0.53260  0.03790  Biso   1.000  H
  H216     1.0000 0.11920  0.46740  0.03790  Biso   1.000  H
  H217     1.0000 0.88080  0.96740  0.53790  Biso   1.000  H
  H218     1.0000 0.61920  0.03260  0.53790  Biso   1.000  H
  H219     1.0000 0.61920  0.46740  0.96210  Biso   1.000  H
  H220     1.0000 0.88080  0.53260  0.96210  Biso   1.000  H
  C301     1.0000 0.07460  0.99116  0.27010  Biso   1.000  C
  C302     1.0000 0.42540  0.00884  0.27010  Biso   1.000  C
  C303     1.0000 0.42540  0.49116  0.22990  Biso   1.000  C
  C304     1.0000 0.07460  0.50884  0.22990  Biso   1.000  C
  C305     1.0000 0.92540  0.00884  0.72990  Biso   1.000  C
  C306     1.0000 0.57460  0.99116  0.72990  Biso   1.000  C
  C307     1.0000 0.57460  0.50884  0.77010  Biso   1.000  C
  C308     1.0000 0.92540  0.49116  0.77010  Biso   1.000  C
  H221     1.0000 0.09910  0.97880  0.22180  Biso   1.000  H
  H222     1.0000 0.40090  0.02120  0.22180  Biso   1.000  H
  H223     1.0000 0.40090  0.47880  0.27820  Biso   1.000  H
  H224     1.0000 0.09910  0.52120  0.27820  Biso   1.000  H
  H225     1.0000 0.90090  0.02120  0.77820  Biso   1.000  H
  H226     1.0000 0.59910  0.97880  0.77820  Biso   1.000  H
  H227     1.0000 0.59910  0.52120  0.72180  Biso   1.000  H
  H228     1.0000 0.90090  0.47880  0.72180  Biso   1.000  H
  C309     1.0000 0.00130  0.02639  0.40830  Biso   1.000  C
  C310     1.0000 0.49870  0.97361  0.40830  Biso   1.000  C
  C311     1.0000 0.49870  0.52639  0.09170  Biso   1.000  C
  C312     1.0000 0.00130  0.47361  0.09170  Biso   1.000  C
  C313     1.0000 0.99870  0.97361  0.59170  Biso   1.000  C
  C314     1.0000 0.50130  0.02639  0.59170  Biso   1.000  C
  C315     1.0000 0.50130  0.47361  0.90830  Biso   1.000  C
  C316     1.0000 0.99870  0.52639  0.90830  Biso   1.000  C
  H229     1.0000 0.97740  0.03880  0.45660  Biso   1.000  H
  H230     1.0000 0.52260  0.96120  0.45660  Biso   1.000  H
  H231     1.0000 0.52260  0.53880  0.04340  Biso   1.000  H
  H232     1.0000 0.97740  0.46120  0.04340  Biso   1.000  H
  H233     1.0000 0.02260  0.96120  0.54340  Biso   1.000  H
  H234     1.0000 0.47740  0.03880  0.54340  Biso   1.000  H
  H235     1.0000 0.47740  0.46120  0.95660  Biso   1.000  H
  H236     1.0000 0.02260  0.53880  0.95660  Biso   1.000  H
  C317     1.0000 0.98870  0.99410  0.26340  Biso   1.000  C
  C318     1.0000 0.51130  0.00590  0.26340  Biso   1.000  C
  C319     1.0000 0.51130  0.49410  0.23660  Biso   1.000  C
  C320     1.0000 0.98870  0.50590  0.23660  Biso   1.000  C
  C321     1.0000 0.01130  0.00590  0.73660  Biso   1.000  C
  C322     1.0000 0.48870  0.99410  0.73660  Biso   1.000  C
  C323     1.0000 0.48870  0.50590  0.76340  Biso   1.000  C
  C324     1.0000 0.01130  0.49410  0.76340  Biso   1.000  C
  H237     1.0000 0.95650  0.98410  0.21120  Biso   1.000  H
  H238     1.0000 0.54350  0.01590  0.21120  Biso   1.000  H
  H239     1.0000 0.54350  0.48410  0.28880  Biso   1.000  H
  H240     1.0000 0.95650  0.51590  0.28880  Biso   1.000  H
  H241     1.0000 0.04350  0.01590  0.78880  Biso   1.000  H
  H242     1.0000 0.45650  0.98410  0.78880  Biso   1.000  H
  H243     1.0000 0.45650  0.51590  0.71120  Biso   1.000  H
  H244     1.0000 0.04350  0.48410  0.71120  Biso   1.000  H
  C325     1.0000 0.24260  0.02054  0.91380  Biso   1.000  C
  C326     1.0000 0.25740  0.97946  0.91380  Biso   1.000  C
  C327     1.0000 0.25740  0.52054  0.58620  Biso   1.000  C
  C328     1.0000 0.24260  0.47946  0.58620  Biso   1.000  C
  C329     1.0000 0.75740  0.97946  0.08620  Biso   1.000  C
  C330     1.0000 0.74260  0.02054  0.08620  Biso   1.000  C
  C331     1.0000 0.74260  0.47946  0.41380  Biso   1.000  C
  C332     1.0000 0.75740  0.52054  0.41380  Biso   1.000  C
  H245     1.0000 0.23740  0.03540  0.87120  Biso   1.000  H
  H246     1.0000 0.26260  0.96460  0.87120  Biso   1.000  H
  H247     1.0000 0.26260  0.53540  0.62880  Biso   1.000  H
  H248     1.0000 0.23740  0.46460  0.62880  Biso   1.000  H
  H249     1.0000 0.76260  0.96460  0.12880  Biso   1.000  H
  H250     1.0000 0.73740  0.03540  0.12880  Biso   1.000  H
  H251     1.0000 0.73740  0.46460  0.37120  Biso   1.000  H
  H252     1.0000 0.76260  0.53540  0.37120  Biso   1.000  H
  C333     1.0000 0.25000  0.00000  0.85040  Biso   1.000  C
  C334     1.0000 0.25000  0.50000  0.64960  Biso   1.000  C
  C335     1.0000 0.75000  0.00000  0.14960  Biso   1.000  C
  C336     1.0000 0.75000  0.50000  0.35040  Biso   1.000  C
  H253     1.0000 0.25000  0.00000  0.76240  Biso   1.000  H
  H254     1.0000 0.25000  0.50000  0.73760  Biso   1.000  H
  H255     1.0000 0.75000  0.00000  0.23760  Biso   1.000  H
  H256     1.0000 0.75000  0.50000  0.26240  Biso   1.000  H
  C337     1.0000 0.24270  0.01995  0.04520  Biso   1.000  C
  C338     1.0000 0.25730  0.98005  0.04520  Biso   1.000  C
  C339     1.0000 0.25730  0.51995  0.45480  Biso   1.000  C
  C340     1.0000 0.24270  0.48005  0.45480  Biso   1.000  C
  C341     1.0000 0.75730  0.98005  0.95480  Biso   1.000  C
  C342     1.0000 0.74270  0.01995  0.95480  Biso   1.000  C
  C343     1.0000 0.74270  0.48005  0.54520  Biso   1.000  C
  C344     1.0000 0.75730  0.51995  0.54520  Biso   1.000  C
  H257     1.0000 0.23710  0.03470  0.08830  Biso   1.000  H
  H258     1.0000 0.26290  0.96530  0.08830  Biso   1.000  H
  H259     1.0000 0.26290  0.53470  0.41170  Biso   1.000  H
  H260     1.0000 0.23710  0.46530  0.41170  Biso   1.000  H
  H261     1.0000 0.76290  0.96530  0.91170  Biso   1.000  H
  H262     1.0000 0.73710  0.03470  0.91170  Biso   1.000  H
  H263     1.0000 0.73710  0.46530  0.58830  Biso   1.000  H
  H264     1.0000 0.76290  0.53470  0.58830  Biso   1.000  H
  N1       1.0000 0.22290  0.25000  0.75000  Biso   1.000  N
  N2       1.0000 0.27710  0.75000  0.75000  Biso   1.000  N
  N3       1.0000 0.77710  0.75000  0.25000  Biso   1.000  N
  N4       1.0000 0.72290  0.25000  0.25000  Biso   1.000  N
  N5       1.0000 0.96610  0.25000  0.75000  Biso   1.000  N
  N6       1.0000 0.53390  0.75000  0.75000  Biso   1.000  N
  N7       1.0000 0.03390  0.75000  0.25000  Biso   1.000  N
  N8       1.0000 0.46610  0.25000  0.25000  Biso   1.000  N
  N9       1.0000 0.09824  0.22534  0.89890  Biso   1.000  N
  N10      1.0000 0.40176  0.77466  0.89890  Biso   1.000  N
  N11      1.0000 0.40176  0.72534  0.60110  Biso   1.000  N
  N12      1.0000 0.09824  0.27466  0.60110  Biso   1.000  N
  N13      1.0000 0.90176  0.77466  0.10110  Biso   1.000  N
  N14      1.0000 0.59824  0.22534  0.10110  Biso   1.000  N
  N15      1.0000 0.59824  0.27466  0.39890  Biso   1.000  N
  N16      1.0000 0.90176  0.72534  0.39890  Biso   1.000  N
  N17      1.0000 0.12439  0.00507  0.34210  Biso   1.000  N
  N18      1.0000 0.37561  0.99493  0.34210  Biso   1.000  N
  N19      1.0000 0.37561  0.50507  0.15790  Biso   1.000  N
  N20      1.0000 0.12439  0.49493  0.15790  Biso   1.000  N
  N21      1.0000 0.87561  0.99493  0.65790  Biso   1.000  N
  N22      1.0000 0.62439  0.00507  0.65790  Biso   1.000  N
  N23      1.0000 0.62439  0.49493  0.84210  Biso   1.000  N
  N24      1.0000 0.87561  0.50507  0.84210  Biso   1.000  N
  N25      1.0000 0.25000  0.00000  0.11160  Biso   1.000  N
  N26      1.0000 0.25000  0.50000  0.38840  Biso   1.000  N
  N27      1.0000 0.75000  0.00000  0.88840  Biso   1.000  N
  N28      1.0000 0.75000  0.50000  0.61160  Biso   1.000  N
  O1       1.0000 0.32980  0.08315  0.55907  Biso   1.000  O
  O2       1.0000 0.17020  0.91685  0.55907  Biso   1.000  O
  O3       1.0000 0.17020  0.58315  0.94093  Biso   1.000  O
  O4       1.0000 0.32980  0.41685  0.94093  Biso   1.000  O
  O5       1.0000 0.67020  0.91685  0.44093  Biso   1.000  O
  O6       1.0000 0.82980  0.08315  0.44093  Biso   1.000  O
  O7       1.0000 0.82980  0.41685  0.05907  Biso   1.000  O
  O8       1.0000 0.67020  0.58315  0.05907  Biso   1.000  O
  O9       1.0000 0.09220  0.21600  0.61040  Biso   1.000  O
  O10      1.0000 0.40780  0.78400  0.61040  Biso   1.000  O
  O11      1.0000 0.40780  0.71600  0.88960  Biso   1.000  O
  O12      1.0000 0.09220  0.28400  0.88960  Biso   1.000  O
  O13      1.0000 0.90780  0.78400  0.38960  Biso   1.000  O
  O14      1.0000 0.59220  0.21600  0.38960  Biso   1.000  O
  O15      1.0000 0.59220  0.28400  0.11040  Biso   1.000  O
  O16      1.0000 0.90780  0.71600  0.11040  Biso   1.000  O
  O17      1.0000 0.26947  0.03535  0.34450  Biso   1.000  O
  O18      1.0000 0.23053  0.96465  0.34450  Biso   1.000  O
  O19      1.0000 0.23053  0.53535  0.15550  Biso   1.000  O
  O20      1.0000 0.26947  0.46465  0.15550  Biso   1.000  O
  O21      1.0000 0.73053  0.96465  0.65550  Biso   1.000  O
  O22      1.0000 0.76947  0.03535  0.65550  Biso   1.000  O
  O23      1.0000 0.76947  0.46465  0.84450  Biso   1.000  O
  O24      1.0000 0.73053  0.53535  0.84450  Biso   1.000  O
  O25      1.0000 0.17523  0.17381  0.59893  Biso   1.000  O
  O26      1.0000 0.32477  0.82619  0.59893  Biso   1.000  O
  O27      1.0000 0.32477  0.67381  0.90107  Biso   1.000  O
  O28      1.0000 0.17523  0.32619  0.90107  Biso   1.000  O
  O29      1.0000 0.82477  0.82619  0.40107  Biso   1.000  O
  O30      1.0000 0.67523  0.17381  0.40107  Biso   1.000  O
  O31      1.0000 0.67523  0.32619  0.09893  Biso   1.000  O
  O32      1.0000 0.82477  0.67381  0.09893  Biso   1.000  O
  O33      1.0000 0.03532  0.21068  0.41854  Biso   1.000  O
  O34      1.0000 0.46468  0.78932  0.41854  Biso   1.000  O
  O35      1.0000 0.46468  0.71068  0.08146  Biso   1.000  O
  O36      1.0000 0.03532  0.28932  0.08146  Biso   1.000  O
  O37      1.0000 0.96468  0.78932  0.58146  Biso   1.000  O
  O38      1.0000 0.53532  0.21068  0.58146  Biso   1.000  O
  O39      1.0000 0.53532  0.28932  0.91854  Biso   1.000  O
  O40      1.0000 0.96468  0.71068  0.91854  Biso   1.000  O
  O41      1.0000 0.27361  0.03553  0.55620  Biso   1.000  O
  O42      1.0000 0.22639  0.96447  0.55620  Biso   1.000  O
  O43      1.0000 0.22639  0.53553  0.94380  Biso   1.000  O
  O44      1.0000 0.27361  0.46447  0.94380  Biso   1.000  O
  O45      1.0000 0.72639  0.96447  0.44380  Biso   1.000  O
  O46      1.0000 0.77361  0.03553  0.44380  Biso   1.000  O
  O47      1.0000 0.77361  0.46447  0.05620  Biso   1.000  O
  O48      1.0000 0.72639  0.53553  0.05620  Biso   1.000  O
  O49      1.0000 0.33850  0.16284  0.88310  Biso   1.000  O
  O50      1.0000 0.16150  0.83716  0.88310  Biso   1.000  O
  O51      1.0000 0.16150  0.66284  0.61690  Biso   1.000  O
  O52      1.0000 0.33850  0.33716  0.61690  Biso   1.000  O
  O53      1.0000 0.66150  0.83716  0.11690  Biso   1.000  O
  O54      1.0000 0.83850  0.16284  0.11690  Biso   1.000  O
  O55      1.0000 0.83850  0.33716  0.38310  Biso   1.000  O
  O56      1.0000 0.66150  0.66284  0.38310  Biso   1.000  O
  O57      1.0000 0.64300  0.09923  0.86610  Biso   1.000  O
  O58      1.0000 0.85700  0.90077  0.86610  Biso   1.000  O
  O59      1.0000 0.85700  0.59923  0.63390  Biso   1.000  O
  O60      1.0000 0.64300  0.40077  0.63390  Biso   1.000  O
  O61      1.0000 0.35700  0.90077  0.13390  Biso   1.000  O
  O62      1.0000 0.14300  0.09923  0.13390  Biso   1.000  O
  O63      1.0000 0.14300  0.40077  0.36610  Biso   1.000  O
  O64      1.0000 0.35700  0.59923  0.36610  Biso   1.000  O
  C345     1.0000 0.67690  0.07966  0.87790  Biso   1.000  C
  C346     1.0000 0.82310  0.92034  0.87790  Biso   1.000  C
  C347     1.0000 0.82310  0.57966  0.62210  Biso   1.000  C
  C348     1.0000 0.67690  0.42034  0.62210  Biso   1.000  C
  C349     1.0000 0.32310  0.92034  0.12210  Biso   1.000  C
  C350     1.0000 0.17690  0.07966  0.12210  Biso   1.000  C
  C351     1.0000 0.17690  0.42034  0.37790  Biso   1.000  C
  C352     1.0000 0.32310  0.57966  0.37790  Biso   1.000  C
  H265     1.0000 0.63550  0.06690  0.87690  Biso   1.000  H
  H266     1.0000 0.86450  0.93310  0.87690  Biso   1.000  H
  H267     1.0000 0.86450  0.56690  0.62310  Biso   1.000  H
  H268     1.0000 0.63550  0.43310  0.62310  Biso   1.000  H
  H269     1.0000 0.36450  0.93310  0.12310  Biso   1.000  H
  H270     1.0000 0.13550  0.06690  0.12310  Biso   1.000  H
  H271     1.0000 0.13550  0.43310  0.37690  Biso   1.000  H
  H272     1.0000 0.36450  0.56690  0.37690  Biso   1.000  H
  H273     1.0000 0.70660  0.07920  0.95680  Biso   1.000  H
  H274     1.0000 0.79340  0.92080  0.95680  Biso   1.000  H
  H275     1.0000 0.79340  0.57920  0.54320  Biso   1.000  H
  H276     1.0000 0.70660  0.42080  0.54320  Biso   1.000  H
  H277     1.0000 0.29340  0.92080  0.04320  Biso   1.000  H
  H278     1.0000 0.20660  0.07920  0.04320  Biso   1.000  H
  H279     1.0000 0.20660  0.42080  0.45680  Biso   1.000  H
  H280     1.0000 0.29340  0.57920  0.45680  Biso   1.000  H
  H281     1.0000 0.71550  0.07720  0.80950  Biso   1.000  H
  H282     1.0000 0.78450  0.92280  0.80950  Biso   1.000  H
  H283     1.0000 0.78450  0.57720  0.69050  Biso   1.000  H
  H284     1.0000 0.71550  0.42280  0.69050  Biso   1.000  H
  H285     1.0000 0.28450  0.92280  0.19050  Biso   1.000  H
  H286     1.0000 0.21550  0.07720  0.19050  Biso   1.000  H
  H287     1.0000 0.21550  0.42280  0.30950  Biso   1.000  H
  H288     1.0000 0.28450  0.57720  0.30950  Biso   1.000  H
  C353     1.0000 0.35060  0.17690  0.82070  Biso   1.000  C
  C354     1.0000 0.14940  0.82310  0.82070  Biso   1.000  C
  C355     1.0000 0.14940  0.67690  0.67930  Biso   1.000  C
  C356     1.0000 0.35060  0.32310  0.67930  Biso   1.000  C
  C357     1.0000 0.64940  0.82310  0.17930  Biso   1.000  C
  C358     1.0000 0.85060  0.17690  0.17930  Biso   1.000  C
  C359     1.0000 0.85060  0.32310  0.32070  Biso   1.000  C
  C360     1.0000 0.64940  0.67690  0.32070  Biso   1.000  C
  H289     1.0000 0.37210  0.17030  0.74310  Biso   1.000  H
  H290     1.0000 0.12790  0.82970  0.74310  Biso   1.000  H
  H291     1.0000 0.12790  0.67030  0.75690  Biso   1.000  H
  H292     1.0000 0.37210  0.32970  0.75690  Biso   1.000  H
  H293     1.0000 0.62790  0.82970  0.25690  Biso   1.000  H
  H294     1.0000 0.87210  0.17030  0.25690  Biso   1.000  H
  H295     1.0000 0.87210  0.32970  0.24310  Biso   1.000  H
  H296     1.0000 0.62790  0.67030  0.24310  Biso   1.000  H
  H297     1.0000 0.39120  0.18780  0.85690  Biso   1.000  H
  H298     1.0000 0.10880  0.81220  0.85690  Biso   1.000  H
  H299     1.0000 0.10880  0.68780  0.64310  Biso   1.000  H
  H300     1.0000 0.39120  0.31220  0.64310  Biso   1.000  H
  H301     1.0000 0.60880  0.81220  0.14310  Biso   1.000  H
  H302     1.0000 0.89120  0.18780  0.14310  Biso   1.000  H
  H303     1.0000 0.89120  0.31220  0.35690  Biso   1.000  H
  H304     1.0000 0.60880  0.68780  0.35690  Biso   1.000  H
  H305     1.0000 0.29980  0.18570  0.80380  Biso   1.000  H
  H306     1.0000 0.20020  0.81430  0.80380  Biso   1.000  H
  H307     1.0000 0.20020  0.68570  0.69620  Biso   1.000  H
  H308     1.0000 0.29980  0.31430  0.69620  Biso   1.000  H
  H309     1.0000 0.70020  0.81430  0.19620  Biso   1.000  H
  H310     1.0000 0.79980  0.18570  0.19620  Biso   1.000  H
  H311     1.0000 0.79980  0.31430  0.30380  Biso   1.000  H
  H312     1.0000 0.70020  0.68570  0.30380  Biso   1.000  H
  C361     1.0000 0.79210  0.25000  0.75000  Biso   1.000  C
  C362     1.0000 0.70790  0.75000  0.75000  Biso   1.000  C
  C363     1.0000 0.20790  0.75000  0.25000  Biso   1.000  C
  C364     1.0000 0.29210  0.25000  0.25000  Biso   1.000  C
  H313     1.0000 0.73390  0.25000  0.75000  Biso   1.000  H
  H314     1.0000 0.76610  0.75000  0.75000  Biso   1.000  H
  H315     1.0000 0.26610  0.75000  0.25000  Biso   1.000  H
  H316     1.0000 0.23390  0.25000  0.25000  Biso   1.000  H
  N29      1.0000 0.04390  0.94516  0.05510  Biso   1.000  N
  N30      1.0000 0.45610  0.05484  0.05510  Biso   1.000  N
  N31      1.0000 0.45610  0.44516  0.44490  Biso   1.000  N
  N32      1.0000 0.04390  0.55484  0.44490  Biso   1.000  N
  N33      1.0000 0.95610  0.05484  0.94490  Biso   1.000  N
  N34      1.0000 0.54390  0.94516  0.94490  Biso   1.000  N
  N35      1.0000 0.54390  0.55484  0.55510  Biso   1.000  N
  N36      1.0000 0.95610  0.44516  0.55510  Biso   1.000  N
  C365     1.0000 0.07670  0.92701  0.10410  Biso   1.000  C
  C366     1.0000 0.42330  0.07299  0.10410  Biso   1.000  C
  C367     1.0000 0.42330  0.42701  0.39590  Biso   1.000  C
  C368     1.0000 0.07670  0.57299  0.39590  Biso   1.000  C
  C369     1.0000 0.92330  0.07299  0.89590  Biso   1.000  C
  C370     1.0000 0.57670  0.92701  0.89590  Biso   1.000  C
  C371     1.0000 0.57670  0.57299  0.60410  Biso   1.000  C
  C372     1.0000 0.92330  0.42701  0.60410  Biso   1.000  C
  H317     1.0000 0.07500  0.92580  0.19180  Biso   1.000  H
  H318     1.0000 0.42500  0.07420  0.19180  Biso   1.000  H
  H319     1.0000 0.42500  0.42580  0.30820  Biso   1.000  H
  H320     1.0000 0.07500  0.57420  0.30820  Biso   1.000  H
  H321     1.0000 0.92500  0.07420  0.80820  Biso   1.000  H
  H322     1.0000 0.57500  0.92580  0.80820  Biso   1.000  H
  H323     1.0000 0.57500  0.57420  0.69180  Biso   1.000  H
  H324     1.0000 0.92500  0.42580  0.69180  Biso   1.000  H
  C373     1.0000 0.08730  0.93043  0.86060  Biso   1.000  C
  C374     1.0000 0.41270  0.06957  0.86060  Biso   1.000  C
  C375     1.0000 0.41270  0.43043  0.63940  Biso   1.000  C
  C376     1.0000 0.08730  0.56957  0.63940  Biso   1.000  C
  C377     1.0000 0.91270  0.06957  0.13940  Biso   1.000  C
  C378     1.0000 0.58730  0.93043  0.13940  Biso   1.000  C
  C379     1.0000 0.58730  0.56957  0.36060  Biso   1.000  C
  C380     1.0000 0.91270  0.43043  0.36060  Biso   1.000  C
  H325     1.0000 0.09040  0.93260  0.77350  Biso   1.000  H
  H326     1.0000 0.40960  0.06740  0.77350  Biso   1.000  H
  H327     1.0000 0.40960  0.43260  0.72650  Biso   1.000  H
  H328     1.0000 0.09040  0.56740  0.72650  Biso   1.000  H
  H329     1.0000 0.90960  0.06740  0.22650  Biso   1.000  H
  H330     1.0000 0.59040  0.93260  0.22650  Biso   1.000  H
  H331     1.0000 0.59040  0.56740  0.27350  Biso   1.000  H
  H332     1.0000 0.90960  0.43260  0.27350  Biso   1.000  H
  C381     1.0000 0.12020  0.91118  0.91410  Biso   1.000  C
  C382     1.0000 0.37980  0.08882  0.91410  Biso   1.000  C
  C383     1.0000 0.37980  0.41118  0.58590  Biso   1.000  C
  C384     1.0000 0.12020  0.58882  0.58590  Biso   1.000  C
  C385     1.0000 0.87980  0.08882  0.08590  Biso   1.000  C
  C386     1.0000 0.62020  0.91118  0.08590  Biso   1.000  C
  C387     1.0000 0.62020  0.58882  0.41410  Biso   1.000  C
  C388     1.0000 0.87980  0.41118  0.41410  Biso   1.000  C
  H333     1.0000 0.14720  0.89920  0.86670  Biso   1.000  H
  H334     1.0000 0.35280  0.10080  0.86670  Biso   1.000  H
  H335     1.0000 0.35280  0.39920  0.63330  Biso   1.000  H
  H336     1.0000 0.14720  0.60080  0.63330  Biso   1.000  H
  H337     1.0000 0.85280  0.10080  0.13330  Biso   1.000  H
  H338     1.0000 0.64720  0.89920  0.13330  Biso   1.000  H
  H339     1.0000 0.64720  0.60080  0.36670  Biso   1.000  H
  H340     1.0000 0.85280  0.39920  0.36670  Biso   1.000  H
  C389     1.0000 0.05040  0.94649  0.93100  Biso   1.000  C
  C390     1.0000 0.44960  0.05351  0.93100  Biso   1.000  C
  C391     1.0000 0.44960  0.44649  0.56900  Biso   1.000  C
  C392     1.0000 0.05040  0.55351  0.56900  Biso   1.000  C
  C393     1.0000 0.94960  0.05351  0.06900  Biso   1.000  C
  C394     1.0000 0.55040  0.94649  0.06900  Biso   1.000  C
  C395     1.0000 0.55040  0.55351  0.43100  Biso   1.000  C
  C396     1.0000 0.94960  0.44649  0.43100  Biso   1.000  C
  H341     1.0000 0.02660  0.96000  0.89120  Biso   1.000  H
  H342     1.0000 0.47340  0.04000  0.89120  Biso   1.000  H
  H343     1.0000 0.47340  0.46000  0.60880  Biso   1.000  H
  H344     1.0000 0.02660  0.54000  0.60880  Biso   1.000  H
  H345     1.0000 0.97340  0.04000  0.10880  Biso   1.000  H
  H346     1.0000 0.52660  0.96000  0.10880  Biso   1.000  H
  H347     1.0000 0.52660  0.54000  0.39120  Biso   1.000  H
  H348     1.0000 0.97340  0.46000  0.39120  Biso   1.000  H
  C397     1.0000 0.11350  0.90935  0.04180  Biso   1.000  C
  C398     1.0000 0.38650  0.09065  0.04180  Biso   1.000  C
  C399     1.0000 0.38650  0.40935  0.45820  Biso   1.000  C
  C400     1.0000 0.11350  0.59065  0.45820  Biso   1.000  C
  C401     1.0000 0.88650  0.09065  0.95820  Biso   1.000  C
  C402     1.0000 0.61350  0.90935  0.95820  Biso   1.000  C
  C403     1.0000 0.61350  0.59065  0.54180  Biso   1.000  C
  C404     1.0000 0.88650  0.40935  0.54180  Biso   1.000  C
  H349     1.0000 0.13480  0.89580  0.08420  Biso   1.000  H
  H350     1.0000 0.36520  0.10420  0.08420  Biso   1.000  H
  H351     1.0000 0.36520  0.39580  0.41580  Biso   1.000  H
  H352     1.0000 0.13480  0.60420  0.41580  Biso   1.000  H
  H353     1.0000 0.86520  0.10420  0.91580  Biso   1.000  H
  H354     1.0000 0.63480  0.89580  0.91580  Biso   1.000  H
  H355     1.0000 0.63480  0.60420  0.58420  Biso   1.000  H
  H356     1.0000 0.86520  0.39580  0.58420  Biso   1.000  H
