data_image0
_cell_length_a       15.9305
_cell_length_b       54.404
_cell_length_c       10.6095
_cell_angle_alpha    90
_cell_angle_beta     90
_cell_angle_gamma    90

_symmetry_space_group_name_H-M    "P 1"
_symmetry_int_tables_number       1

loop_
  _symmetry_equiv_pos_as_xyz
  'x, y, z'

loop_
  _atom_site_label
  _atom_site_occupancy
  _atom_site_fract_x
  _atom_site_fract_y
  _atom_site_fract_z
  _atom_site_thermal_displace_type
  _atom_site_B_iso_or_equiv
  _atom_site_type_symbol
  Cu1      1.0000 0.39873  0.25000  0.25000  Biso   1.000  Cu
  Cu2      1.0000 0.10127  0.75000  0.25000  Biso   1.000  Cu
  Cu3      1.0000 0.60127  0.75000  0.75000  Biso   1.000  Cu
  Cu4      1.0000 0.89873  0.25000  0.75000  Biso   1.000  Cu
  Cu5      1.0000 0.25000  0.50000  0.66272  Biso   1.000  Cu
  Cu6      1.0000 0.25000  0.00000  0.83728  Biso   1.000  Cu
  Cu7      1.0000 0.75000  0.50000  0.33728  Biso   1.000  Cu
  Cu8      1.0000 0.75000  0.00000  0.16272  Biso   1.000  Cu
  Br1      1.0000 0.15380  0.33544  0.15021  Biso   1.000  Br
  Br2      1.0000 0.34620  0.66456  0.15021  Biso   1.000  Br
  Br3      1.0000 0.34620  0.83544  0.34979  Biso   1.000  Br
  Br4      1.0000 0.15380  0.16456  0.34979  Biso   1.000  Br
  Br5      1.0000 0.84620  0.66456  0.84979  Biso   1.000  Br
  Br6      1.0000 0.65380  0.33544  0.84979  Biso   1.000  Br
  Br7      1.0000 0.65380  0.16456  0.65021  Biso   1.000  Br
  Br8      1.0000 0.84620  0.83544  0.65021  Biso   1.000  Br
  Br9      1.0000 0.82627  0.40766  0.12719  Biso   1.000  Br
  Br10     1.0000 0.67373  0.59234  0.12719  Biso   1.000  Br
  Br11     1.0000 0.67373  0.90766  0.37281  Biso   1.000  Br
  Br12     1.0000 0.82627  0.09234  0.37281  Biso   1.000  Br
  Br13     1.0000 0.17373  0.59234  0.87281  Biso   1.000  Br
  Br14     1.0000 0.32627  0.40766  0.87281  Biso   1.000  Br
  Br15     1.0000 0.32627  0.09234  0.62719  Biso   1.000  Br
  Br16     1.0000 0.17373  0.90766  0.62719  Biso   1.000  Br
  S1       1.0000 0.07084  0.37691  0.58241  Biso   1.000  S
  S2       1.0000 0.42916  0.62309  0.58241  Biso   1.000  S
  S3       1.0000 0.42916  0.87691  0.91759  Biso   1.000  S
  S4       1.0000 0.07084  0.12309  0.91759  Biso   1.000  S
  S5       1.0000 0.92916  0.62309  0.41759  Biso   1.000  S
  S6       1.0000 0.57084  0.37691  0.41759  Biso   1.000  S
  S7       1.0000 0.57084  0.12309  0.08241  Biso   1.000  S
  S8       1.0000 0.92916  0.87691  0.08241  Biso   1.000  S
  S9       1.0000 0.16055  0.32351  0.54823  Biso   1.000  S
  S10      1.0000 0.33945  0.67649  0.54823  Biso   1.000  S
  S11      1.0000 0.33945  0.82351  0.95177  Biso   1.000  S
  S12      1.0000 0.16055  0.17649  0.95177  Biso   1.000  S
  S13      1.0000 0.83945  0.67649  0.45177  Biso   1.000  S
  S14      1.0000 0.66055  0.32351  0.45177  Biso   1.000  S
  S15      1.0000 0.66055  0.17649  0.04823  Biso   1.000  S
  S16      1.0000 0.83945  0.82351  0.04823  Biso   1.000  S
  C1       1.0000 0.20040  0.39405  0.43850  Biso   1.000  C
  C2       1.0000 0.29960  0.60595  0.43850  Biso   1.000  C
  C3       1.0000 0.29960  0.89405  0.06150  Biso   1.000  C
  C4       1.0000 0.20040  0.10595  0.06150  Biso   1.000  C
  C5       1.0000 0.79960  0.60595  0.56150  Biso   1.000  C
  C6       1.0000 0.70040  0.39405  0.56150  Biso   1.000  C
  C7       1.0000 0.70040  0.10595  0.93850  Biso   1.000  C
  C8       1.0000 0.79960  0.89405  0.93850  Biso   1.000  C
  C9       1.0000 0.16620  0.37385  0.49640  Biso   1.000  C
  C10      1.0000 0.33380  0.62615  0.49640  Biso   1.000  C
  C11      1.0000 0.33380  0.87385  0.00360  Biso   1.000  C
  C12      1.0000 0.16620  0.12615  0.00360  Biso   1.000  C
  C13      1.0000 0.83380  0.62615  0.50360  Biso   1.000  C
  C14      1.0000 0.66620  0.37385  0.50360  Biso   1.000  C
  C15      1.0000 0.66620  0.12615  0.99640  Biso   1.000  C
  C16      1.0000 0.83380  0.87385  0.99640  Biso   1.000  C
  C17      1.0000 0.27900  0.34839  0.41690  Biso   1.000  C
  C18      1.0000 0.22100  0.65161  0.41690  Biso   1.000  C
  C19      1.0000 0.22100  0.84839  0.08310  Biso   1.000  C
  C20      1.0000 0.27900  0.15161  0.08310  Biso   1.000  C
  C21      1.0000 0.72100  0.65161  0.58310  Biso   1.000  C
  C22      1.0000 0.77900  0.34839  0.58310  Biso   1.000  C
  C23      1.0000 0.77900  0.15161  0.91690  Biso   1.000  C
  C24      1.0000 0.72100  0.84839  0.91690  Biso   1.000  C
  C25      1.0000 0.15860  0.32881  0.71240  Biso   1.000  C
  C26      1.0000 0.34140  0.67119  0.71240  Biso   1.000  C
  C27      1.0000 0.34140  0.82881  0.78760  Biso   1.000  C
  C28      1.0000 0.15860  0.17119  0.78760  Biso   1.000  C
  C29      1.0000 0.84140  0.67119  0.28760  Biso   1.000  C
  C30      1.0000 0.65860  0.32881  0.28760  Biso   1.000  C
  C31      1.0000 0.65860  0.17119  0.21240  Biso   1.000  C
  C32      1.0000 0.84140  0.82881  0.21240  Biso   1.000  C
  C33      1.0000 0.41510  0.29544  0.48990  Biso   1.000  C
  C34      1.0000 0.08490  0.70456  0.48990  Biso   1.000  C
  C35      1.0000 0.08490  0.79544  0.01010  Biso   1.000  C
  C36      1.0000 0.41510  0.20456  0.01010  Biso   1.000  C
  C37      1.0000 0.58490  0.70456  0.51010  Biso   1.000  C
  C38      1.0000 0.91510  0.29544  0.51010  Biso   1.000  C
  C39      1.0000 0.91510  0.20456  0.98990  Biso   1.000  C
  C40      1.0000 0.58490  0.79544  0.98990  Biso   1.000  C
  C41      1.0000 0.38190  0.29903  0.12160  Biso   1.000  C
  C42      1.0000 0.11810  0.70097  0.12160  Biso   1.000  C
  C43      1.0000 0.11810  0.79903  0.37840  Biso   1.000  C
  C44      1.0000 0.38190  0.20097  0.37840  Biso   1.000  C
  C45      1.0000 0.61810  0.70097  0.87840  Biso   1.000  C
  C46      1.0000 0.88190  0.29903  0.87840  Biso   1.000  C
  C47      1.0000 0.88190  0.20097  0.62160  Biso   1.000  C
  C48      1.0000 0.61810  0.79903  0.62160  Biso   1.000  C
  H1       1.0000 0.37570  0.30440  0.20420  Biso   1.000  H
  H2       1.0000 0.12430  0.69560  0.20420  Biso   1.000  H
  H3       1.0000 0.12430  0.80440  0.29580  Biso   1.000  H
  H4       1.0000 0.37570  0.19560  0.29580  Biso   1.000  H
  H5       1.0000 0.62430  0.69560  0.79580  Biso   1.000  H
  H6       1.0000 0.87570  0.30440  0.79580  Biso   1.000  H
  H7       1.0000 0.87570  0.19560  0.70420  Biso   1.000  H
  H8       1.0000 0.62430  0.80440  0.70420  Biso   1.000  H
  C49      1.0000 0.31140  0.36861  0.34730  Biso   1.000  C
  C50      1.0000 0.18860  0.63139  0.34730  Biso   1.000  C
  C51      1.0000 0.18860  0.86861  0.15270  Biso   1.000  C
  C52      1.0000 0.31140  0.13139  0.15270  Biso   1.000  C
  C53      1.0000 0.68860  0.63139  0.65270  Biso   1.000  C
  C54      1.0000 0.81140  0.36861  0.65270  Biso   1.000  C
  C55      1.0000 0.81140  0.13139  0.84730  Biso   1.000  C
  C56      1.0000 0.68860  0.86861  0.84730  Biso   1.000  C
  C57      1.0000 0.17330  0.42955  0.56260  Biso   1.000  C
  C58      1.0000 0.32670  0.57045  0.56260  Biso   1.000  C
  C59      1.0000 0.32670  0.92955  0.93740  Biso   1.000  C
  C60      1.0000 0.17330  0.07045  0.93740  Biso   1.000  C
  C61      1.0000 0.82670  0.57045  0.43740  Biso   1.000  C
  C62      1.0000 0.67330  0.42955  0.43740  Biso   1.000  C
  C63      1.0000 0.67330  0.07045  0.06260  Biso   1.000  C
  C64      1.0000 0.82670  0.92955  0.06260  Biso   1.000  C
  H9       1.0000 0.20750  0.41970  0.61870  Biso   1.000  H
  H10      1.0000 0.29250  0.58030  0.61870  Biso   1.000  H
  H11      1.0000 0.29250  0.91970  0.88130  Biso   1.000  H
  H12      1.0000 0.20750  0.08030  0.88130  Biso   1.000  H
  H13      1.0000 0.79250  0.58030  0.38130  Biso   1.000  H
  H14      1.0000 0.70750  0.41970  0.38130  Biso   1.000  H
  H15      1.0000 0.70750  0.08030  0.11870  Biso   1.000  H
  H16      1.0000 0.79250  0.91970  0.11870  Biso   1.000  H
  H17      1.0000 0.11860  0.43150  0.60120  Biso   1.000  H
  H18      1.0000 0.38140  0.56850  0.60120  Biso   1.000  H
  H19      1.0000 0.38140  0.93150  0.89880  Biso   1.000  H
  H20      1.0000 0.11860  0.06850  0.89880  Biso   1.000  H
  H21      1.0000 0.88140  0.56850  0.39880  Biso   1.000  H
  H22      1.0000 0.61860  0.43150  0.39880  Biso   1.000  H
  H23      1.0000 0.61860  0.06850  0.10120  Biso   1.000  H
  H24      1.0000 0.88140  0.93150  0.10120  Biso   1.000  H
  C65      1.0000 0.22650  0.23098  0.20440  Biso   1.000  C
  C66      1.0000 0.27350  0.76902  0.20440  Biso   1.000  C
  C67      1.0000 0.27350  0.73098  0.29560  Biso   1.000  C
  C68      1.0000 0.22650  0.26902  0.29560  Biso   1.000  C
  C69      1.0000 0.77350  0.76902  0.79560  Biso   1.000  C
  C70      1.0000 0.72650  0.23098  0.79560  Biso   1.000  C
  C71      1.0000 0.72650  0.26902  0.70440  Biso   1.000  C
  C72      1.0000 0.77350  0.73098  0.70440  Biso   1.000  C
  H25      1.0000 0.25570  0.21760  0.17250  Biso   1.000  H
  H26      1.0000 0.24430  0.78240  0.17250  Biso   1.000  H
  H27      1.0000 0.24430  0.71760  0.32750  Biso   1.000  H
  H28      1.0000 0.25570  0.28240  0.32750  Biso   1.000  H
  H29      1.0000 0.74430  0.78240  0.82750  Biso   1.000  H
  H30      1.0000 0.75570  0.21760  0.82750  Biso   1.000  H
  H31      1.0000 0.75570  0.28240  0.67250  Biso   1.000  H
  H32      1.0000 0.74430  0.71760  0.67250  Biso   1.000  H
  C73      1.0000 0.20670  0.35048  0.48580  Biso   1.000  C
  C74      1.0000 0.29330  0.64952  0.48580  Biso   1.000  C
  C75      1.0000 0.29330  0.85048  0.01420  Biso   1.000  C
  C76      1.0000 0.20670  0.14952  0.01420  Biso   1.000  C
  C77      1.0000 0.79330  0.64952  0.51420  Biso   1.000  C
  C78      1.0000 0.70670  0.35048  0.51420  Biso   1.000  C
  C79      1.0000 0.70670  0.14952  0.98580  Biso   1.000  C
  C80      1.0000 0.79330  0.85048  0.98580  Biso   1.000  C
  C81      1.0000 0.89910  0.41214  0.36810  Biso   1.000  C
  C82      1.0000 0.60090  0.58786  0.36810  Biso   1.000  C
  C83      1.0000 0.60090  0.91214  0.13190  Biso   1.000  C
  C84      1.0000 0.89910  0.08786  0.13190  Biso   1.000  C
  C85      1.0000 0.10090  0.58786  0.63190  Biso   1.000  C
  C86      1.0000 0.39910  0.41214  0.63190  Biso   1.000  C
  C87      1.0000 0.39910  0.08786  0.86810  Biso   1.000  C
  C88      1.0000 0.10090  0.91214  0.86810  Biso   1.000  C
  H33      1.0000 0.86480  0.42590  0.37530  Biso   1.000  H
  H34      1.0000 0.63520  0.57410  0.37530  Biso   1.000  H
  H35      1.0000 0.63520  0.92590  0.12470  Biso   1.000  H
  H36      1.0000 0.86480  0.07410  0.12470  Biso   1.000  H
  H37      1.0000 0.13520  0.57410  0.62470  Biso   1.000  H
  H38      1.0000 0.36480  0.42590  0.62470  Biso   1.000  H
  H39      1.0000 0.36480  0.07410  0.87530  Biso   1.000  H
  H40      1.0000 0.13520  0.92590  0.87530  Biso   1.000  H
  C89      1.0000 0.94660  0.37738  0.25030  Biso   1.000  C
  C90      1.0000 0.55340  0.62262  0.25030  Biso   1.000  C
  C91      1.0000 0.55340  0.87738  0.24970  Biso   1.000  C
  C92      1.0000 0.94660  0.12262  0.24970  Biso   1.000  C
  C93      1.0000 0.05340  0.62262  0.74970  Biso   1.000  C
  C94      1.0000 0.44660  0.37738  0.74970  Biso   1.000  C
  C95      1.0000 0.44660  0.12262  0.75030  Biso   1.000  C
  C96      1.0000 0.05340  0.87738  0.75030  Biso   1.000  C
  H41      1.0000 0.94510  0.36800  0.17710  Biso   1.000  H
  H42      1.0000 0.55490  0.63200  0.17710  Biso   1.000  H
  H43      1.0000 0.55490  0.86800  0.32290  Biso   1.000  H
  H44      1.0000 0.94510  0.13200  0.32290  Biso   1.000  H
  H45      1.0000 0.05490  0.63200  0.82290  Biso   1.000  H
  H46      1.0000 0.44510  0.36800  0.82290  Biso   1.000  H
  H47      1.0000 0.44510  0.13200  0.67710  Biso   1.000  H
  H48      1.0000 0.05490  0.86800  0.67710  Biso   1.000  H
  C97      1.0000 0.40540  0.26828  0.98090  Biso   1.000  C
  C98      1.0000 0.09460  0.73172  0.98090  Biso   1.000  C
  C99      1.0000 0.09460  0.76828  0.51910  Biso   1.000  C
  C100     1.0000 0.40540  0.23172  0.51910  Biso   1.000  C
  C101     1.0000 0.59460  0.73172  0.01910  Biso   1.000  C
  C102     1.0000 0.90540  0.26828  0.01910  Biso   1.000  C
  C103     1.0000 0.90540  0.23172  0.48090  Biso   1.000  C
  C104     1.0000 0.59460  0.76828  0.48090  Biso   1.000  C
  H49      1.0000 0.41450  0.25170  0.96410  Biso   1.000  H
  H50      1.0000 0.08550  0.74830  0.96410  Biso   1.000  H
  H51      1.0000 0.08550  0.75170  0.53590  Biso   1.000  H
  H52      1.0000 0.41450  0.24830  0.53590  Biso   1.000  H
  H53      1.0000 0.58550  0.74830  0.03590  Biso   1.000  H
  H54      1.0000 0.91450  0.25170  0.03590  Biso   1.000  H
  H55      1.0000 0.91450  0.24830  0.46410  Biso   1.000  H
  H56      1.0000 0.58550  0.75170  0.46410  Biso   1.000  H
  C105     1.0000 0.40280  0.28428  0.88160  Biso   1.000  C
  C106     1.0000 0.09720  0.71572  0.88160  Biso   1.000  C
  C107     1.0000 0.09720  0.78428  0.61840  Biso   1.000  C
  C108     1.0000 0.40280  0.21572  0.61840  Biso   1.000  C
  C109     1.0000 0.59720  0.71572  0.11840  Biso   1.000  C
  C110     1.0000 0.90280  0.28428  0.11840  Biso   1.000  C
  C111     1.0000 0.90280  0.21572  0.38160  Biso   1.000  C
  C112     1.0000 0.59720  0.78428  0.38160  Biso   1.000  C
  H57      1.0000 0.41040  0.27860  0.79970  Biso   1.000  H
  H58      1.0000 0.08960  0.72140  0.79970  Biso   1.000  H
  H59      1.0000 0.08960  0.77860  0.70030  Biso   1.000  H
  H60      1.0000 0.41040  0.22140  0.70030  Biso   1.000  H
  H61      1.0000 0.58960  0.72140  0.20030  Biso   1.000  H
  H62      1.0000 0.91040  0.27860  0.20030  Biso   1.000  H
  H63      1.0000 0.91040  0.22140  0.29970  Biso   1.000  H
  H64      1.0000 0.58960  0.77860  0.29970  Biso   1.000  H
  C113     1.0000 0.27170  0.39178  0.35870  Biso   1.000  C
  C114     1.0000 0.22830  0.60822  0.35870  Biso   1.000  C
  C115     1.0000 0.22830  0.89178  0.14130  Biso   1.000  C
  C116     1.0000 0.27170  0.10822  0.14130  Biso   1.000  C
  C117     1.0000 0.72830  0.60822  0.64130  Biso   1.000  C
  C118     1.0000 0.77170  0.39178  0.64130  Biso   1.000  C
  C119     1.0000 0.77170  0.10822  0.85870  Biso   1.000  C
  C120     1.0000 0.72830  0.89178  0.85870  Biso   1.000  C
  C121     1.0000 0.65800  0.24473  0.14280  Biso   1.000  C
  C122     1.0000 0.84200  0.75527  0.14280  Biso   1.000  C
  C123     1.0000 0.84200  0.74473  0.35720  Biso   1.000  C
  C124     1.0000 0.65800  0.25527  0.35720  Biso   1.000  C
  C125     1.0000 0.34200  0.75527  0.85720  Biso   1.000  C
  C126     1.0000 0.15800  0.24473  0.85720  Biso   1.000  C
  C127     1.0000 0.15800  0.25527  0.64280  Biso   1.000  C
  C128     1.0000 0.34200  0.74473  0.64280  Biso   1.000  C
  H65      1.0000 0.68620  0.24120  0.06810  Biso   1.000  H
  H66      1.0000 0.81380  0.75880  0.06810  Biso   1.000  H
  H67      1.0000 0.81380  0.74120  0.43190  Biso   1.000  H
  H68      1.0000 0.68620  0.25880  0.43190  Biso   1.000  H
  H69      1.0000 0.31380  0.75880  0.93190  Biso   1.000  H
  H70      1.0000 0.18620  0.24120  0.93190  Biso   1.000  H
  H71      1.0000 0.18620  0.25880  0.56810  Biso   1.000  H
  H72      1.0000 0.31380  0.74120  0.56810  Biso   1.000  H
  C129     1.0000 0.89690  0.39808  0.26200  Biso   1.000  C
  C130     1.0000 0.60310  0.60192  0.26200  Biso   1.000  C
  C131     1.0000 0.60310  0.89808  0.23800  Biso   1.000  C
  C132     1.0000 0.89690  0.10192  0.23800  Biso   1.000  C
  C133     1.0000 0.10310  0.60192  0.73800  Biso   1.000  C
  C134     1.0000 0.39690  0.39808  0.73800  Biso   1.000  C
  C135     1.0000 0.39690  0.10192  0.76200  Biso   1.000  C
  C136     1.0000 0.10310  0.89808  0.76200  Biso   1.000  C
  C137     1.0000 0.99850  0.37089  0.34860  Biso   1.000  C
  C138     1.0000 0.50150  0.62911  0.34860  Biso   1.000  C
  C139     1.0000 0.50150  0.87089  0.15140  Biso   1.000  C
  C140     1.0000 0.99850  0.12911  0.15140  Biso   1.000  C
  C141     1.0000 0.00150  0.62911  0.65140  Biso   1.000  C
  C142     1.0000 0.49850  0.37089  0.65140  Biso   1.000  C
  C143     1.0000 0.49850  0.12911  0.84860  Biso   1.000  C
  C144     1.0000 0.00150  0.87089  0.84860  Biso   1.000  C
  H73      1.0000 0.03070  0.35670  0.34250  Biso   1.000  H
  H74      1.0000 0.46930  0.64330  0.34250  Biso   1.000  H
  H75      1.0000 0.46930  0.85670  0.15750  Biso   1.000  H
  H76      1.0000 0.03070  0.14330  0.15750  Biso   1.000  H
  H77      1.0000 0.96930  0.64330  0.65750  Biso   1.000  H
  H78      1.0000 0.53070  0.35670  0.65750  Biso   1.000  H
  H79      1.0000 0.53070  0.14330  0.84250  Biso   1.000  H
  H80      1.0000 0.96930  0.85670  0.84250  Biso   1.000  H
  C145     1.0000 0.15420  0.33288  0.97200  Biso   1.000  C
  C146     1.0000 0.34580  0.66712  0.97200  Biso   1.000  C
  C147     1.0000 0.34580  0.83288  0.52800  Biso   1.000  C
  C148     1.0000 0.15420  0.16712  0.52800  Biso   1.000  C
  C149     1.0000 0.84580  0.66712  0.02800  Biso   1.000  C
  C150     1.0000 0.65420  0.33288  0.02800  Biso   1.000  C
  C151     1.0000 0.65420  0.16712  0.47200  Biso   1.000  C
  C152     1.0000 0.84580  0.83288  0.47200  Biso   1.000  C
  C153     1.0000 0.21380  0.45467  0.54700  Biso   1.000  C
  C154     1.0000 0.28620  0.54533  0.54700  Biso   1.000  C
  C155     1.0000 0.28620  0.95467  0.95300  Biso   1.000  C
  C156     1.0000 0.21380  0.04533  0.95300  Biso   1.000  C
  C157     1.0000 0.78620  0.54533  0.45300  Biso   1.000  C
  C158     1.0000 0.71380  0.45467  0.45300  Biso   1.000  C
  C159     1.0000 0.71380  0.04533  0.04700  Biso   1.000  C
  C160     1.0000 0.78620  0.95467  0.04700  Biso   1.000  C
  C161     1.0000 0.57200  0.24464  0.14610  Biso   1.000  C
  C162     1.0000 0.92800  0.75536  0.14610  Biso   1.000  C
  C163     1.0000 0.92800  0.74464  0.35390  Biso   1.000  C
  C164     1.0000 0.57200  0.25536  0.35390  Biso   1.000  C
  C165     1.0000 0.42800  0.75536  0.85390  Biso   1.000  C
  C166     1.0000 0.07200  0.24464  0.85390  Biso   1.000  C
  C167     1.0000 0.07200  0.25536  0.64610  Biso   1.000  C
  C168     1.0000 0.42800  0.74464  0.64610  Biso   1.000  C
  H81      1.0000 0.54280  0.24070  0.07300  Biso   1.000  H
  H82      1.0000 0.95720  0.75930  0.07300  Biso   1.000  H
  H83      1.0000 0.95720  0.74070  0.42700  Biso   1.000  H
  H84      1.0000 0.54280  0.25930  0.42700  Biso   1.000  H
  H85      1.0000 0.45720  0.75930  0.92700  Biso   1.000  H
  H86      1.0000 0.04280  0.24070  0.92700  Biso   1.000  H
  H87      1.0000 0.04280  0.25930  0.57300  Biso   1.000  H
  H88      1.0000 0.45720  0.74070  0.57300  Biso   1.000  H
  C169     1.0000 0.37640  0.32063  0.50380  Biso   1.000  C
  C170     1.0000 0.12360  0.67937  0.50380  Biso   1.000  C
  C171     1.0000 0.12360  0.82063  0.99620  Biso   1.000  C
  C172     1.0000 0.37640  0.17937  0.99620  Biso   1.000  C
  C173     1.0000 0.62360  0.67937  0.49620  Biso   1.000  C
  C174     1.0000 0.87640  0.32063  0.49620  Biso   1.000  C
  C175     1.0000 0.87640  0.17937  0.00380  Biso   1.000  C
  C176     1.0000 0.62360  0.82063  0.00380  Biso   1.000  C
  H89      1.0000 0.34690  0.32160  0.58360  Biso   1.000  H
  H90      1.0000 0.15310  0.67840  0.58360  Biso   1.000  H
  H91      1.0000 0.15310  0.82160  0.91640  Biso   1.000  H
  H92      1.0000 0.34690  0.17840  0.91640  Biso   1.000  H
  H93      1.0000 0.65310  0.67840  0.41640  Biso   1.000  H
  H94      1.0000 0.84690  0.32160  0.41640  Biso   1.000  H
  H95      1.0000 0.84690  0.17840  0.08360  Biso   1.000  H
  H96      1.0000 0.65310  0.82160  0.08360  Biso   1.000  H
  H97      1.0000 0.42060  0.33290  0.50460  Biso   1.000  H
  H98      1.0000 0.07940  0.66710  0.50460  Biso   1.000  H
  H99      1.0000 0.07940  0.83290  0.99540  Biso   1.000  H
  H100     1.0000 0.42060  0.16710  0.99540  Biso   1.000  H
  H101     1.0000 0.57940  0.66710  0.49540  Biso   1.000  H
  H102     1.0000 0.92060  0.33290  0.49540  Biso   1.000  H
  H103     1.0000 0.92060  0.16710  0.00460  Biso   1.000  H
  H104     1.0000 0.57940  0.83290  0.00460  Biso   1.000  H
  C177     1.0000 0.21050  0.34531  0.77450  Biso   1.000  C
  C178     1.0000 0.28950  0.65469  0.77450  Biso   1.000  C
  C179     1.0000 0.28950  0.84531  0.72550  Biso   1.000  C
  C180     1.0000 0.21050  0.15469  0.72550  Biso   1.000  C
  C181     1.0000 0.78950  0.65469  0.22550  Biso   1.000  C
  C182     1.0000 0.71050  0.34531  0.22550  Biso   1.000  C
  C183     1.0000 0.71050  0.15469  0.27450  Biso   1.000  C
  C184     1.0000 0.78950  0.84531  0.27450  Biso   1.000  C
  H105     1.0000 0.24760  0.35500  0.72840  Biso   1.000  H
  H106     1.0000 0.25240  0.64500  0.72840  Biso   1.000  H
  H107     1.0000 0.25240  0.85500  0.77160  Biso   1.000  H
  H108     1.0000 0.24760  0.14500  0.77160  Biso   1.000  H
  H109     1.0000 0.75240  0.64500  0.27160  Biso   1.000  H
  H110     1.0000 0.74760  0.35500  0.27160  Biso   1.000  H
  H111     1.0000 0.74760  0.14500  0.22840  Biso   1.000  H
  H112     1.0000 0.75240  0.85500  0.22840  Biso   1.000  H
  C185     1.0000 0.00350  0.38518  0.45650  Biso   1.000  C
  C186     1.0000 0.49650  0.61482  0.45650  Biso   1.000  C
  C187     1.0000 0.49650  0.88518  0.04350  Biso   1.000  C
  C188     1.0000 0.00350  0.11482  0.04350  Biso   1.000  C
  C189     1.0000 0.99650  0.61482  0.54350  Biso   1.000  C
  C190     1.0000 0.50350  0.38518  0.54350  Biso   1.000  C
  C191     1.0000 0.50350  0.11482  0.95650  Biso   1.000  C
  C192     1.0000 0.99650  0.88518  0.95650  Biso   1.000  C
  C193     1.0000 0.38190  0.36634  0.26690  Biso   1.000  C
  C194     1.0000 0.11810  0.63366  0.26690  Biso   1.000  C
  C195     1.0000 0.11810  0.86634  0.23310  Biso   1.000  C
  C196     1.0000 0.38190  0.13366  0.23310  Biso   1.000  C
  C197     1.0000 0.61810  0.63366  0.73310  Biso   1.000  C
  C198     1.0000 0.88190  0.36634  0.73310  Biso   1.000  C
  C199     1.0000 0.88190  0.13366  0.76690  Biso   1.000  C
  C200     1.0000 0.61810  0.86634  0.76690  Biso   1.000  C
  H113     1.0000 0.40960  0.35130  0.25980  Biso   1.000  H
  H114     1.0000 0.09040  0.64870  0.25980  Biso   1.000  H
  H115     1.0000 0.09040  0.85130  0.24020  Biso   1.000  H
  H116     1.0000 0.40960  0.14870  0.24020  Biso   1.000  H
  H117     1.0000 0.59040  0.64870  0.74020  Biso   1.000  H
  H118     1.0000 0.90960  0.35130  0.74020  Biso   1.000  H
  H119     1.0000 0.90960  0.14870  0.75980  Biso   1.000  H
  H120     1.0000 0.59040  0.85130  0.75980  Biso   1.000  H
  C201     1.0000 0.38910  0.30861  0.90360  Biso   1.000  C
  C202     1.0000 0.11090  0.69139  0.90360  Biso   1.000  C
  C203     1.0000 0.11090  0.80861  0.59640  Biso   1.000  C
  C204     1.0000 0.38910  0.19139  0.59640  Biso   1.000  C
  C205     1.0000 0.61090  0.69139  0.09640  Biso   1.000  C
  C206     1.0000 0.88910  0.30861  0.09640  Biso   1.000  C
  C207     1.0000 0.88910  0.19139  0.40360  Biso   1.000  C
  C208     1.0000 0.61090  0.80861  0.40360  Biso   1.000  C
  H121     1.0000 0.38820  0.31990  0.83760  Biso   1.000  H
  H122     1.0000 0.11180  0.68010  0.83760  Biso   1.000  H
  H123     1.0000 0.11180  0.81990  0.66240  Biso   1.000  H
  H124     1.0000 0.38820  0.18010  0.66240  Biso   1.000  H
  H125     1.0000 0.61180  0.68010  0.16240  Biso   1.000  H
  H126     1.0000 0.88820  0.31990  0.16240  Biso   1.000  H
  H127     1.0000 0.88820  0.18010  0.33760  Biso   1.000  H
  H128     1.0000 0.61180  0.81990  0.33760  Biso   1.000  H
  C209     1.0000 0.36980  0.40905  0.21160  Biso   1.000  C
  C210     1.0000 0.13020  0.59095  0.21160  Biso   1.000  C
  C211     1.0000 0.13020  0.90905  0.28840  Biso   1.000  C
  C212     1.0000 0.36980  0.09095  0.28840  Biso   1.000  C
  C213     1.0000 0.63020  0.59095  0.78840  Biso   1.000  C
  C214     1.0000 0.86980  0.40905  0.78840  Biso   1.000  C
  C215     1.0000 0.86980  0.09095  0.71160  Biso   1.000  C
  C216     1.0000 0.63020  0.90905  0.71160  Biso   1.000  C
  H129     1.0000 0.38960  0.42240  0.16540  Biso   1.000  H
  H130     1.0000 0.11040  0.57760  0.16540  Biso   1.000  H
  H131     1.0000 0.11040  0.92240  0.33460  Biso   1.000  H
  H132     1.0000 0.38960  0.07760  0.33460  Biso   1.000  H
  H133     1.0000 0.61040  0.57760  0.83460  Biso   1.000  H
  H134     1.0000 0.88960  0.42240  0.83460  Biso   1.000  H
  H135     1.0000 0.88960  0.07760  0.66540  Biso   1.000  H
  H136     1.0000 0.61040  0.92240  0.66540  Biso   1.000  H
  C217     1.0000 0.30310  0.41208  0.28910  Biso   1.000  C
  C218     1.0000 0.19690  0.58792  0.28910  Biso   1.000  C
  C219     1.0000 0.19690  0.91208  0.21090  Biso   1.000  C
  C220     1.0000 0.30310  0.08792  0.21090  Biso   1.000  C
  C221     1.0000 0.69690  0.58792  0.71090  Biso   1.000  C
  C222     1.0000 0.80310  0.41208  0.71090  Biso   1.000  C
  C223     1.0000 0.80310  0.08792  0.78910  Biso   1.000  C
  C224     1.0000 0.69690  0.91208  0.78910  Biso   1.000  C
  H137     1.0000 0.27800  0.42740  0.29670  Biso   1.000  H
  H138     1.0000 0.22200  0.57260  0.29670  Biso   1.000  H
  H139     1.0000 0.22200  0.92740  0.20330  Biso   1.000  H
  H140     1.0000 0.27800  0.07260  0.20330  Biso   1.000  H
  H141     1.0000 0.72200  0.57260  0.70330  Biso   1.000  H
  H142     1.0000 0.77800  0.42740  0.70330  Biso   1.000  H
  H143     1.0000 0.77800  0.07260  0.79670  Biso   1.000  H
  H144     1.0000 0.72200  0.92740  0.79670  Biso   1.000  H
  C225     1.0000 0.09600  0.25000  0.25000  Biso   1.000  C
  C226     1.0000 0.40400  0.75000  0.25000  Biso   1.000  C
  C227     1.0000 0.90400  0.75000  0.75000  Biso   1.000  C
  C228     1.0000 0.59600  0.25000  0.75000  Biso   1.000  C
  H145     1.0000 0.03760  0.25000  0.25000  Biso   1.000  H
  H146     1.0000 0.46240  0.75000  0.25000  Biso   1.000  H
  H147     1.0000 0.96240  0.75000  0.75000  Biso   1.000  H
  H148     1.0000 0.53760  0.25000  0.75000  Biso   1.000  H
  C229     1.0000 0.10250  0.31480  0.78350  Biso   1.000  C
  C230     1.0000 0.39750  0.68520  0.78350  Biso   1.000  C
  C231     1.0000 0.39750  0.81480  0.71650  Biso   1.000  C
  C232     1.0000 0.10250  0.18520  0.71650  Biso   1.000  C
  C233     1.0000 0.89750  0.68520  0.21650  Biso   1.000  C
  C234     1.0000 0.60250  0.31480  0.21650  Biso   1.000  C
  C235     1.0000 0.60250  0.18520  0.28350  Biso   1.000  C
  C236     1.0000 0.89750  0.81480  0.28350  Biso   1.000  C
  H149     1.0000 0.06550  0.30420  0.74320  Biso   1.000  H
  H150     1.0000 0.43450  0.69580  0.74320  Biso   1.000  H
  H151     1.0000 0.43450  0.80420  0.75680  Biso   1.000  H
  H152     1.0000 0.06550  0.19580  0.75680  Biso   1.000  H
  H153     1.0000 0.93450  0.69580  0.25680  Biso   1.000  H
  H154     1.0000 0.56550  0.30420  0.25680  Biso   1.000  H
  H155     1.0000 0.56550  0.19580  0.24320  Biso   1.000  H
  H156     1.0000 0.93450  0.80420  0.24320  Biso   1.000  H
  C237     1.0000 0.40940  0.38622  0.19980  Biso   1.000  C
  C238     1.0000 0.09060  0.61378  0.19980  Biso   1.000  C
  C239     1.0000 0.09060  0.88622  0.30020  Biso   1.000  C
  C240     1.0000 0.40940  0.11378  0.30020  Biso   1.000  C
  C241     1.0000 0.59060  0.61378  0.80020  Biso   1.000  C
  C242     1.0000 0.90940  0.38622  0.80020  Biso   1.000  C
  C243     1.0000 0.90940  0.11378  0.69980  Biso   1.000  C
  C244     1.0000 0.59060  0.88622  0.69980  Biso   1.000  C
  H157     1.0000 0.45490  0.38450  0.14560  Biso   1.000  H
  H158     1.0000 0.04510  0.61550  0.14560  Biso   1.000  H
  H159     1.0000 0.04510  0.88450  0.35440  Biso   1.000  H
  H160     1.0000 0.45490  0.11550  0.35440  Biso   1.000  H
  H161     1.0000 0.54510  0.61550  0.85440  Biso   1.000  H
  H162     1.0000 0.95490  0.38450  0.85440  Biso   1.000  H
  H163     1.0000 0.95490  0.11550  0.64560  Biso   1.000  H
  H164     1.0000 0.54510  0.88450  0.64560  Biso   1.000  H
  C245     1.0000 0.00070  0.52622  0.58980  Biso   1.000  C
  C246     1.0000 0.49930  0.47378  0.58980  Biso   1.000  C
  C247     1.0000 0.49930  0.02622  0.91020  Biso   1.000  C
  C248     1.0000 0.00070  0.97378  0.91020  Biso   1.000  C
  C249     1.0000 0.99930  0.47378  0.41020  Biso   1.000  C
  C250     1.0000 0.50070  0.52622  0.41020  Biso   1.000  C
  C251     1.0000 0.50070  0.97378  0.08980  Biso   1.000  C
  C252     1.0000 0.99930  0.02622  0.08980  Biso   1.000  C
  H165     1.0000 0.97690  0.53840  0.54000  Biso   1.000  H
  H166     1.0000 0.52310  0.46160  0.54000  Biso   1.000  H
  H167     1.0000 0.52310  0.03840  0.96000  Biso   1.000  H
  H168     1.0000 0.97690  0.96160  0.96000  Biso   1.000  H
  H169     1.0000 0.02310  0.46160  0.46000  Biso   1.000  H
  H170     1.0000 0.47690  0.53840  0.46000  Biso   1.000  H
  H171     1.0000 0.47690  0.96160  0.04000  Biso   1.000  H
  H172     1.0000 0.02310  0.03840  0.04000  Biso   1.000  H
  C253     1.0000 0.07350  0.49125  0.73140  Biso   1.000  C
  C254     1.0000 0.42650  0.50875  0.73140  Biso   1.000  C
  C255     1.0000 0.42650  0.99125  0.76860  Biso   1.000  C
  C256     1.0000 0.07350  0.00875  0.76860  Biso   1.000  C
  C257     1.0000 0.92650  0.50875  0.26860  Biso   1.000  C
  C258     1.0000 0.57350  0.49125  0.26860  Biso   1.000  C
  C259     1.0000 0.57350  0.00875  0.23140  Biso   1.000  C
  C260     1.0000 0.92650  0.99125  0.23140  Biso   1.000  C
  H173     1.0000 0.09830  0.47910  0.78050  Biso   1.000  H
  H174     1.0000 0.40170  0.52090  0.78050  Biso   1.000  H
  H175     1.0000 0.40170  0.97910  0.71950  Biso   1.000  H
  H176     1.0000 0.09830  0.02090  0.71950  Biso   1.000  H
  H177     1.0000 0.90170  0.52090  0.21950  Biso   1.000  H
  H178     1.0000 0.59830  0.47910  0.21950  Biso   1.000  H
  H179     1.0000 0.59830  0.02090  0.28050  Biso   1.000  H
  H180     1.0000 0.90170  0.97910  0.28050  Biso   1.000  H
  C261     1.0000 0.37670  0.31603  0.02570  Biso   1.000  C
  C262     1.0000 0.12330  0.68397  0.02570  Biso   1.000  C
  C263     1.0000 0.12330  0.81603  0.47430  Biso   1.000  C
  C264     1.0000 0.37670  0.18397  0.47430  Biso   1.000  C
  C265     1.0000 0.62330  0.68397  0.97430  Biso   1.000  C
  C266     1.0000 0.87670  0.31603  0.97430  Biso   1.000  C
  C267     1.0000 0.87670  0.18397  0.52570  Biso   1.000  C
  C268     1.0000 0.62330  0.81603  0.52570  Biso   1.000  C
  H181     1.0000 0.36500  0.33240  0.04360  Biso   1.000  H
  H182     1.0000 0.13500  0.66760  0.04360  Biso   1.000  H
  H183     1.0000 0.13500  0.83240  0.45640  Biso   1.000  H
  H184     1.0000 0.36500  0.16760  0.45640  Biso   1.000  H
  H185     1.0000 0.63500  0.66760  0.95640  Biso   1.000  H
  H186     1.0000 0.86500  0.33240  0.95640  Biso   1.000  H
  H187     1.0000 0.86500  0.16760  0.54360  Biso   1.000  H
  H188     1.0000 0.63500  0.83240  0.54360  Biso   1.000  H
  C269     1.0000 0.08630  0.52219  0.58680  Biso   1.000  C
  C270     1.0000 0.41370  0.47781  0.58680  Biso   1.000  C
  C271     1.0000 0.41370  0.02219  0.91320  Biso   1.000  C
  C272     1.0000 0.08630  0.97781  0.91320  Biso   1.000  C
  C273     1.0000 0.91370  0.47781  0.41320  Biso   1.000  C
  C274     1.0000 0.58630  0.52219  0.41320  Biso   1.000  C
  C275     1.0000 0.58630  0.97781  0.08680  Biso   1.000  C
  C276     1.0000 0.91370  0.02219  0.08680  Biso   1.000  C
  H189     1.0000 0.11940  0.53170  0.53370  Biso   1.000  H
  H190     1.0000 0.38060  0.46830  0.53370  Biso   1.000  H
  H191     1.0000 0.38060  0.03170  0.96630  Biso   1.000  H
  H192     1.0000 0.11940  0.96830  0.96630  Biso   1.000  H
  H193     1.0000 0.88060  0.46830  0.46630  Biso   1.000  H
  H194     1.0000 0.61940  0.53170  0.46630  Biso   1.000  H
  H195     1.0000 0.61940  0.96830  0.03370  Biso   1.000  H
  H196     1.0000 0.88060  0.03170  0.03370  Biso   1.000  H
  C277     1.0000 0.95290  0.40582  0.46500  Biso   1.000  C
  C278     1.0000 0.54710  0.59418  0.46500  Biso   1.000  C
  C279     1.0000 0.54710  0.90582  0.03500  Biso   1.000  C
  C280     1.0000 0.95290  0.09418  0.03500  Biso   1.000  C
  C281     1.0000 0.04710  0.59418  0.53500  Biso   1.000  C
  C282     1.0000 0.45290  0.40582  0.53500  Biso   1.000  C
  C283     1.0000 0.45290  0.09418  0.96500  Biso   1.000  C
  C284     1.0000 0.04710  0.90582  0.96500  Biso   1.000  C
  H197     1.0000 0.95520  0.41560  0.53690  Biso   1.000  H
  H198     1.0000 0.54480  0.58440  0.53690  Biso   1.000  H
  H199     1.0000 0.54480  0.91560  0.96310  Biso   1.000  H
  H200     1.0000 0.95520  0.08440  0.96310  Biso   1.000  H
  H201     1.0000 0.04480  0.58440  0.46310  Biso   1.000  H
  H202     1.0000 0.45520  0.41560  0.46310  Biso   1.000  H
  H203     1.0000 0.45520  0.08440  0.03690  Biso   1.000  H
  H204     1.0000 0.04480  0.91560  0.03690  Biso   1.000  H
  C285     1.0000 0.20750  0.34753  0.90360  Biso   1.000  C
  C286     1.0000 0.29250  0.65247  0.90360  Biso   1.000  C
  C287     1.0000 0.29250  0.84753  0.59640  Biso   1.000  C
  C288     1.0000 0.20750  0.15247  0.59640  Biso   1.000  C
  C289     1.0000 0.79250  0.65247  0.09640  Biso   1.000  C
  C290     1.0000 0.70750  0.34753  0.09640  Biso   1.000  C
  C291     1.0000 0.70750  0.15247  0.40360  Biso   1.000  C
  C292     1.0000 0.79250  0.84753  0.40360  Biso   1.000  C
  H205     1.0000 0.24160  0.35890  0.94440  Biso   1.000  H
  H206     1.0000 0.25840  0.64110  0.94440  Biso   1.000  H
  H207     1.0000 0.25840  0.85890  0.55560  Biso   1.000  H
  H208     1.0000 0.24160  0.14110  0.55560  Biso   1.000  H
  H209     1.0000 0.75840  0.64110  0.05560  Biso   1.000  H
  H210     1.0000 0.74160  0.35890  0.05560  Biso   1.000  H
  H211     1.0000 0.74160  0.14110  0.44440  Biso   1.000  H
  H212     1.0000 0.75840  0.85890  0.44440  Biso   1.000  H
  C293     1.0000 0.14060  0.23035  0.20250  Biso   1.000  C
  C294     1.0000 0.35940  0.76965  0.20250  Biso   1.000  C
  C295     1.0000 0.35940  0.73035  0.29750  Biso   1.000  C
  C296     1.0000 0.14060  0.26965  0.29750  Biso   1.000  C
  C297     1.0000 0.85940  0.76965  0.79750  Biso   1.000  C
  C298     1.0000 0.64060  0.23035  0.79750  Biso   1.000  C
  C299     1.0000 0.64060  0.26965  0.70250  Biso   1.000  C
  C300     1.0000 0.85940  0.73035  0.70250  Biso   1.000  C
  H213     1.0000 0.11260  0.21680  0.16950  Biso   1.000  H
  H214     1.0000 0.38740  0.78320  0.16950  Biso   1.000  H
  H215     1.0000 0.38740  0.71680  0.33050  Biso   1.000  H
  H216     1.0000 0.11260  0.28320  0.33050  Biso   1.000  H
  H217     1.0000 0.88740  0.78320  0.83050  Biso   1.000  H
  H218     1.0000 0.61260  0.21680  0.83050  Biso   1.000  H
  H219     1.0000 0.61260  0.28320  0.66950  Biso   1.000  H
  H220     1.0000 0.88740  0.71680  0.66950  Biso   1.000  H
  C301     1.0000 0.98820  0.49415  0.73820  Biso   1.000  C
  C302     1.0000 0.51180  0.50585  0.73820  Biso   1.000  C
  C303     1.0000 0.51180  0.99415  0.76180  Biso   1.000  C
  C304     1.0000 0.98820  0.00585  0.76180  Biso   1.000  C
  C305     1.0000 0.01180  0.50585  0.26180  Biso   1.000  C
  C306     1.0000 0.48820  0.49415  0.26180  Biso   1.000  C
  C307     1.0000 0.48820  0.00585  0.23820  Biso   1.000  C
  C308     1.0000 0.01180  0.99415  0.23820  Biso   1.000  C
  H221     1.0000 0.95600  0.48420  0.79050  Biso   1.000  H
  H222     1.0000 0.54400  0.51580  0.79050  Biso   1.000  H
  H223     1.0000 0.54400  0.98420  0.70950  Biso   1.000  H
  H224     1.0000 0.95600  0.01580  0.70950  Biso   1.000  H
  H225     1.0000 0.04400  0.51580  0.20950  Biso   1.000  H
  H226     1.0000 0.45600  0.48420  0.20950  Biso   1.000  H
  H227     1.0000 0.45600  0.01580  0.29050  Biso   1.000  H
  H228     1.0000 0.04400  0.98420  0.29050  Biso   1.000  H
  C309     1.0000 0.10170  0.31659  0.91260  Biso   1.000  C
  C310     1.0000 0.39830  0.68341  0.91260  Biso   1.000  C
  C311     1.0000 0.39830  0.81659  0.58740  Biso   1.000  C
  C312     1.0000 0.10170  0.18341  0.58740  Biso   1.000  C
  C313     1.0000 0.89830  0.68341  0.08740  Biso   1.000  C
  C314     1.0000 0.60170  0.31659  0.08740  Biso   1.000  C
  C315     1.0000 0.60170  0.18341  0.41260  Biso   1.000  C
  C316     1.0000 0.89830  0.81659  0.41260  Biso   1.000  C
  H229     1.0000 0.06550  0.30680  0.95970  Biso   1.000  H
  H230     1.0000 0.43450  0.69320  0.95970  Biso   1.000  H
  H231     1.0000 0.43450  0.80680  0.54030  Biso   1.000  H
  H232     1.0000 0.06550  0.19320  0.54030  Biso   1.000  H
  H233     1.0000 0.93450  0.69320  0.04030  Biso   1.000  H
  H234     1.0000 0.56550  0.30680  0.04030  Biso   1.000  H
  H235     1.0000 0.56550  0.19320  0.45970  Biso   1.000  H
  H236     1.0000 0.93450  0.80680  0.45970  Biso   1.000  H
  C317     1.0000 0.95120  0.51221  0.66590  Biso   1.000  C
  C318     1.0000 0.54880  0.48779  0.66590  Biso   1.000  C
  C319     1.0000 0.54880  0.01221  0.83410  Biso   1.000  C
  C320     1.0000 0.95120  0.98779  0.83410  Biso   1.000  C
  C321     1.0000 0.04880  0.48779  0.33410  Biso   1.000  C
  C322     1.0000 0.45120  0.51221  0.33410  Biso   1.000  C
  C323     1.0000 0.45120  0.98779  0.16590  Biso   1.000  C
  C324     1.0000 0.04880  0.01221  0.16590  Biso   1.000  C
  H237     1.0000 0.89350  0.51480  0.66900  Biso   1.000  H
  H238     1.0000 0.60650  0.48520  0.66900  Biso   1.000  H
  H239     1.0000 0.60650  0.01480  0.83100  Biso   1.000  H
  H240     1.0000 0.89350  0.98520  0.83100  Biso   1.000  H
  H241     1.0000 0.10650  0.48520  0.33100  Biso   1.000  H
  H242     1.0000 0.39350  0.51480  0.33100  Biso   1.000  H
  H243     1.0000 0.39350  0.98520  0.16900  Biso   1.000  H
  H244     1.0000 0.10650  0.01480  0.16900  Biso   1.000  H
  C325     1.0000 0.70220  0.25000  0.25000  Biso   1.000  C
  C326     1.0000 0.79780  0.75000  0.25000  Biso   1.000  C
  C327     1.0000 0.29780  0.75000  0.75000  Biso   1.000  C
  C328     1.0000 0.20220  0.25000  0.75000  Biso   1.000  C
  H245     1.0000 0.76060  0.25000  0.25000  Biso   1.000  H
  H246     1.0000 0.73940  0.75000  0.25000  Biso   1.000  H
  H247     1.0000 0.23940  0.75000  0.75000  Biso   1.000  H
  H248     1.0000 0.26060  0.25000  0.75000  Biso   1.000  H
  C329     1.0000 0.26040  0.47981  0.95020  Biso   1.000  C
  C330     1.0000 0.23960  0.52019  0.95020  Biso   1.000  C
  C331     1.0000 0.23960  0.97981  0.54980  Biso   1.000  C
  C332     1.0000 0.26040  0.02019  0.54980  Biso   1.000  C
  C333     1.0000 0.73960  0.52019  0.04980  Biso   1.000  C
  C334     1.0000 0.76040  0.47981  0.04980  Biso   1.000  C
  C335     1.0000 0.76040  0.02019  0.45020  Biso   1.000  C
  C336     1.0000 0.73960  0.97981  0.45020  Biso   1.000  C
  H249     1.0000 0.26800  0.46510  0.90740  Biso   1.000  H
  H250     1.0000 0.23200  0.53490  0.90740  Biso   1.000  H
  H251     1.0000 0.23200  0.96510  0.59260  Biso   1.000  H
  H252     1.0000 0.26800  0.03490  0.59260  Biso   1.000  H
  H253     1.0000 0.73200  0.53490  0.09260  Biso   1.000  H
  H254     1.0000 0.76800  0.46510  0.09260  Biso   1.000  H
  H255     1.0000 0.76800  0.03490  0.40740  Biso   1.000  H
  H256     1.0000 0.73200  0.96510  0.40740  Biso   1.000  H
  N1       1.0000 0.27030  0.25000  0.25000  Biso   1.000  N
  N2       1.0000 0.22970  0.75000  0.25000  Biso   1.000  N
  N3       1.0000 0.72970  0.75000  0.75000  Biso   1.000  N
  N4       1.0000 0.77030  0.25000  0.75000  Biso   1.000  N
  N5       1.0000 0.39537  0.27520  0.10120  Biso   1.000  N
  N6       1.0000 0.10463  0.72480  0.10120  Biso   1.000  N
  N7       1.0000 0.10463  0.77520  0.39880  Biso   1.000  N
  N8       1.0000 0.39537  0.22480  0.39880  Biso   1.000  N
  N9       1.0000 0.60463  0.72480  0.89880  Biso   1.000  N
  N10      1.0000 0.89537  0.27520  0.89880  Biso   1.000  N
  N11      1.0000 0.89537  0.22480  0.60120  Biso   1.000  N
  N12      1.0000 0.60463  0.77520  0.60120  Biso   1.000  N
  N13      1.0000 0.52850  0.25000  0.25000  Biso   1.000  N
  N14      1.0000 0.97150  0.75000  0.25000  Biso   1.000  N
  N15      1.0000 0.47150  0.75000  0.75000  Biso   1.000  N
  N16      1.0000 0.02850  0.25000  0.75000  Biso   1.000  N
  N17      1.0000 0.12310  0.50501  0.65780  Biso   1.000  N
  N18      1.0000 0.37690  0.49499  0.65780  Biso   1.000  N
  N19      1.0000 0.37690  0.00501  0.84220  Biso   1.000  N
  N20      1.0000 0.12310  0.99499  0.84220  Biso   1.000  N
  N21      1.0000 0.87690  0.49499  0.34220  Biso   1.000  N
  N22      1.0000 0.62310  0.50501  0.34220  Biso   1.000  N
  N23      1.0000 0.62310  0.99499  0.15780  Biso   1.000  N
  N24      1.0000 0.87690  0.00501  0.15780  Biso   1.000  N
  N25      1.0000 0.25000  0.50000  0.88340  Biso   1.000  N
  N26      1.0000 0.25000  0.00000  0.61660  Biso   1.000  N
  N27      1.0000 0.75000  0.50000  0.11660  Biso   1.000  N
  N28      1.0000 0.75000  0.00000  0.38340  Biso   1.000  N
  O1       1.0000 0.31854  0.32600  0.40220  Biso   1.000  O
  O2       1.0000 0.18146  0.67400  0.40220  Biso   1.000  O
  O3       1.0000 0.18146  0.82600  0.09780  Biso   1.000  O
  O4       1.0000 0.31854  0.17400  0.09780  Biso   1.000  O
  O5       1.0000 0.68146  0.67400  0.59780  Biso   1.000  O
  O6       1.0000 0.81854  0.32600  0.59780  Biso   1.000  O
  O7       1.0000 0.81854  0.17400  0.90220  Biso   1.000  O
  O8       1.0000 0.68146  0.82600  0.90220  Biso   1.000  O
  O9       1.0000 0.22974  0.46459  0.65390  Biso   1.000  O
  O10      1.0000 0.27026  0.53541  0.65390  Biso   1.000  O
  O11      1.0000 0.27026  0.96459  0.84610  Biso   1.000  O
  O12      1.0000 0.22974  0.03541  0.84610  Biso   1.000  O
  O13      1.0000 0.77026  0.53541  0.34610  Biso   1.000  O
  O14      1.0000 0.72974  0.46459  0.34610  Biso   1.000  O
  O15      1.0000 0.72974  0.03541  0.15390  Biso   1.000  O
  O16      1.0000 0.77026  0.96459  0.15390  Biso   1.000  O
  O17      1.0000 0.40297  0.28392  0.38920  Biso   1.000  O
  O18      1.0000 0.09703  0.71608  0.38920  Biso   1.000  O
  O19      1.0000 0.09703  0.78392  0.11080  Biso   1.000  O
  O20      1.0000 0.40297  0.21608  0.11080  Biso   1.000  O
  O21      1.0000 0.59703  0.71608  0.61080  Biso   1.000  O
  O22      1.0000 0.90297  0.28392  0.61080  Biso   1.000  O
  O23      1.0000 0.90297  0.21608  0.88920  Biso   1.000  O
  O24      1.0000 0.59703  0.78392  0.88920  Biso   1.000  O
  O25      1.0000 0.16390  0.41693  0.44530  Biso   1.000  O
  O26      1.0000 0.33610  0.58307  0.44530  Biso   1.000  O
  O27      1.0000 0.33610  0.91693  0.05470  Biso   1.000  O
  O28      1.0000 0.16390  0.08307  0.05470  Biso   1.000  O
  O29      1.0000 0.83610  0.58307  0.55470  Biso   1.000  O
  O30      1.0000 0.66390  0.41693  0.55470  Biso   1.000  O
  O31      1.0000 0.66390  0.08307  0.94530  Biso   1.000  O
  O32      1.0000 0.83610  0.91693  0.94530  Biso   1.000  O
  O33      1.0000 0.45758  0.28872  0.58100  Biso   1.000  O
  O34      1.0000 0.04242  0.71128  0.58100  Biso   1.000  O
  O35      1.0000 0.04242  0.78872  0.91900  Biso   1.000  O
  O36      1.0000 0.45758  0.21128  0.91900  Biso   1.000  O
  O37      1.0000 0.54242  0.71128  0.41900  Biso   1.000  O
  O38      1.0000 0.95758  0.28872  0.41900  Biso   1.000  O
  O39      1.0000 0.95758  0.21128  0.08100  Biso   1.000  O
  O40      1.0000 0.54242  0.78872  0.08100  Biso   1.000  O
  O41      1.0000 0.22620  0.46380  0.44360  Biso   1.000  O
  O42      1.0000 0.27380  0.53620  0.44360  Biso   1.000  O
  O43      1.0000 0.27380  0.96380  0.05640  Biso   1.000  O
  O44      1.0000 0.22620  0.03620  0.05640  Biso   1.000  O
  O45      1.0000 0.77380  0.53620  0.55640  Biso   1.000  O
  O46      1.0000 0.72620  0.46380  0.55640  Biso   1.000  O
  O47      1.0000 0.72620  0.03620  0.94360  Biso   1.000  O
  O48      1.0000 0.77380  0.96380  0.94360  Biso   1.000  O
  C337     1.0000 0.25000  0.50000  0.14690  Biso   1.000  C
  C338     1.0000 0.25000  0.00000  0.35310  Biso   1.000  C
  C339     1.0000 0.75000  0.50000  0.85310  Biso   1.000  C
  C340     1.0000 0.75000  0.00000  0.64690  Biso   1.000  C
  H257     1.0000 0.25000  0.50000  0.23460  Biso   1.000  H
  H258     1.0000 0.25000  0.00000  0.26540  Biso   1.000  H
  H259     1.0000 0.75000  0.50000  0.76540  Biso   1.000  H
  H260     1.0000 0.75000  0.00000  0.73460  Biso   1.000  H
  C341     1.0000 0.26080  0.47936  0.07980  Biso   1.000  C
  C342     1.0000 0.23920  0.52064  0.07980  Biso   1.000  C
  C343     1.0000 0.23920  0.97936  0.42020  Biso   1.000  C
  C344     1.0000 0.26080  0.02064  0.42020  Biso   1.000  C
  C345     1.0000 0.73920  0.52064  0.92020  Biso   1.000  C
  C346     1.0000 0.76080  0.47936  0.92020  Biso   1.000  C
  C347     1.0000 0.76080  0.02064  0.57980  Biso   1.000  C
  C348     1.0000 0.73920  0.97936  0.57980  Biso   1.000  C
  H261     1.0000 0.26870  0.46450  0.12160  Biso   1.000  H
  H262     1.0000 0.23130  0.53550  0.12160  Biso   1.000  H
  H263     1.0000 0.23130  0.96450  0.37840  Biso   1.000  H
  H264     1.0000 0.26870  0.03550  0.37840  Biso   1.000  H
  H265     1.0000 0.73130  0.53550  0.87840  Biso   1.000  H
  H266     1.0000 0.76870  0.46450  0.87840  Biso   1.000  H
  H267     1.0000 0.76870  0.03550  0.62160  Biso   1.000  H
  H268     1.0000 0.73130  0.96450  0.62160  Biso   1.000  H
  N29      1.0000 0.03410  0.05434  0.55060  Biso   1.000  N
  N30      1.0000 0.46590  0.94566  0.55060  Biso   1.000  N
  N31      1.0000 0.46590  0.55434  0.94940  Biso   1.000  N
  N32      1.0000 0.03410  0.44566  0.94940  Biso   1.000  N
  N33      1.0000 0.96590  0.94566  0.44940  Biso   1.000  N
  N34      1.0000 0.53410  0.05434  0.44940  Biso   1.000  N
  N35      1.0000 0.53410  0.44566  0.05060  Biso   1.000  N
  N36      1.0000 0.96590  0.55434  0.05060  Biso   1.000  N
  C349     1.0000 0.07000  0.07260  0.60220  Biso   1.000  C
  C350     1.0000 0.43000  0.92740  0.60220  Biso   1.000  C
  C351     1.0000 0.43000  0.57260  0.89780  Biso   1.000  C
  C352     1.0000 0.07000  0.42740  0.89780  Biso   1.000  C
  C353     1.0000 0.93000  0.92740  0.39780  Biso   1.000  C
  C354     1.0000 0.57000  0.07260  0.39780  Biso   1.000  C
  C355     1.0000 0.57000  0.42740  0.10220  Biso   1.000  C
  C356     1.0000 0.93000  0.57260  0.10220  Biso   1.000  C
  H269     1.0000 0.06810  0.07390  0.68960  Biso   1.000  H
  H270     1.0000 0.43190  0.92610  0.68960  Biso   1.000  H
  H271     1.0000 0.43190  0.57390  0.81040  Biso   1.000  H
  H272     1.0000 0.06810  0.42610  0.81040  Biso   1.000  H
  H273     1.0000 0.93190  0.92610  0.31040  Biso   1.000  H
  H274     1.0000 0.56810  0.07390  0.31040  Biso   1.000  H
  H275     1.0000 0.56810  0.42610  0.18960  Biso   1.000  H
  H276     1.0000 0.93190  0.57390  0.18960  Biso   1.000  H
  C357     1.0000 0.08050  0.07040  0.35810  Biso   1.000  C
  C358     1.0000 0.41950  0.92960  0.35810  Biso   1.000  C
  C359     1.0000 0.41950  0.57040  0.14190  Biso   1.000  C
  C360     1.0000 0.08050  0.42960  0.14190  Biso   1.000  C
  C361     1.0000 0.91950  0.92960  0.64190  Biso   1.000  C
  C362     1.0000 0.58050  0.07040  0.64190  Biso   1.000  C
  C363     1.0000 0.58050  0.42960  0.85810  Biso   1.000  C
  C364     1.0000 0.91950  0.57040  0.85810  Biso   1.000  C
  H277     1.0000 0.08470  0.06900  0.27100  Biso   1.000  H
  H278     1.0000 0.41530  0.93100  0.27100  Biso   1.000  H
  H279     1.0000 0.41530  0.56900  0.22900  Biso   1.000  H
  H280     1.0000 0.08470  0.43100  0.22900  Biso   1.000  H
  H281     1.0000 0.91530  0.93100  0.72900  Biso   1.000  H
  H282     1.0000 0.58470  0.06900  0.72900  Biso   1.000  H
  H283     1.0000 0.58470  0.43100  0.77100  Biso   1.000  H
  H284     1.0000 0.91530  0.56900  0.77100  Biso   1.000  H
  C365     1.0000 0.11570  0.08869  0.41710  Biso   1.000  C
  C366     1.0000 0.38430  0.91131  0.41710  Biso   1.000  C
  C367     1.0000 0.38430  0.58869  0.08290  Biso   1.000  C
  C368     1.0000 0.11570  0.41131  0.08290  Biso   1.000  C
  C369     1.0000 0.88430  0.91131  0.58290  Biso   1.000  C
  C370     1.0000 0.61570  0.08869  0.58290  Biso   1.000  C
  C371     1.0000 0.61570  0.41131  0.91710  Biso   1.000  C
  C372     1.0000 0.88430  0.58869  0.91710  Biso   1.000  C
  H285     1.0000 0.14470  0.10070  0.37280  Biso   1.000  H
  H286     1.0000 0.35530  0.89930  0.37280  Biso   1.000  H
  H287     1.0000 0.35530  0.60070  0.12720  Biso   1.000  H
  H288     1.0000 0.14470  0.39930  0.12720  Biso   1.000  H
  H289     1.0000 0.85530  0.89930  0.62720  Biso   1.000  H
  H290     1.0000 0.64470  0.10070  0.62720  Biso   1.000  H
  H291     1.0000 0.64470  0.39930  0.87280  Biso   1.000  H
  H292     1.0000 0.85530  0.60070  0.87280  Biso   1.000  H
  C373     1.0000 0.03760  0.05346  0.42680  Biso   1.000  C
  C374     1.0000 0.46240  0.94654  0.42680  Biso   1.000  C
  C375     1.0000 0.46240  0.55346  0.07320  Biso   1.000  C
  C376     1.0000 0.03760  0.44654  0.07320  Biso   1.000  C
  C377     1.0000 0.96240  0.94654  0.57320  Biso   1.000  C
  C378     1.0000 0.53760  0.05346  0.57320  Biso   1.000  C
  C379     1.0000 0.53760  0.44654  0.92680  Biso   1.000  C
  C380     1.0000 0.96240  0.55346  0.92680  Biso   1.000  C
  H293     1.0000 0.00990  0.04080  0.38490  Biso   1.000  H
  H294     1.0000 0.49010  0.95920  0.38490  Biso   1.000  H
  H295     1.0000 0.49010  0.54080  0.11510  Biso   1.000  H
  H296     1.0000 0.00990  0.45920  0.11510  Biso   1.000  H
  H297     1.0000 0.99010  0.95920  0.61510  Biso   1.000  H
  H298     1.0000 0.50990  0.04080  0.61510  Biso   1.000  H
  H299     1.0000 0.50990  0.45920  0.88490  Biso   1.000  H
  H300     1.0000 0.99010  0.54080  0.88490  Biso   1.000  H
  C381     1.0000 0.10950  0.08980  0.53980  Biso   1.000  C
  C382     1.0000 0.39050  0.91020  0.53980  Biso   1.000  C
  C383     1.0000 0.39050  0.58980  0.96020  Biso   1.000  C
  C384     1.0000 0.10950  0.41020  0.96020  Biso   1.000  C
  C385     1.0000 0.89050  0.91020  0.46020  Biso   1.000  C
  C386     1.0000 0.60950  0.08980  0.46020  Biso   1.000  C
  C387     1.0000 0.60950  0.41020  0.03980  Biso   1.000  C
  C388     1.0000 0.89050  0.58980  0.03980  Biso   1.000  C
  H301     1.0000 0.13340  0.10290  0.58300  Biso   1.000  H
  H302     1.0000 0.36660  0.89710  0.58300  Biso   1.000  H
  H303     1.0000 0.36660  0.60290  0.91700  Biso   1.000  H
  H304     1.0000 0.13340  0.39710  0.91700  Biso   1.000  H
  H305     1.0000 0.86660  0.89710  0.41700  Biso   1.000  H
  H306     1.0000 0.63340  0.10290  0.41700  Biso   1.000  H
  H307     1.0000 0.63340  0.39710  0.08300  Biso   1.000  H
  H308     1.0000 0.86660  0.60290  0.08300  Biso   1.000  H
