data_image0
_cell_length_a       15.9691
_cell_length_b       54.4728
_cell_length_c       10.4636
_cell_angle_alpha    90
_cell_angle_beta     90
_cell_angle_gamma    90

_symmetry_space_group_name_H-M    "P 1"
_symmetry_int_tables_number       1

loop_
  _symmetry_equiv_pos_as_xyz
  'x, y, z'

loop_
  _atom_site_label
  _atom_site_occupancy
  _atom_site_fract_x
  _atom_site_fract_y
  _atom_site_fract_z
  _atom_site_thermal_displace_type
  _atom_site_B_iso_or_equiv
  _atom_site_type_symbol
  Cu1      1.0000 0.40044  0.25000  0.75000  Biso   1.000  Cu
  Cu2      1.0000 0.09956  0.75000  0.75000  Biso   1.000  Cu
  Cu3      1.0000 0.59956  0.75000  0.25000  Biso   1.000  Cu
  Cu4      1.0000 0.90044  0.25000  0.25000  Biso   1.000  Cu
  Cu5      1.0000 0.25000  0.00000  0.16193  Biso   1.000  Cu
  Cu6      1.0000 0.25000  0.50000  0.33807  Biso   1.000  Cu
  Cu7      1.0000 0.75000  0.00000  0.83807  Biso   1.000  Cu
  Cu8      1.0000 0.75000  0.50000  0.66193  Biso   1.000  Cu
  S1       1.0000 0.16669  0.17612  0.04844  Biso   1.000  S
  S2       1.0000 0.33331  0.82388  0.04844  Biso   1.000  S
  S3       1.0000 0.16669  0.32388  0.45156  Biso   1.000  S
  S4       1.0000 0.33331  0.67612  0.45156  Biso   1.000  S
  S5       1.0000 0.83331  0.82388  0.95156  Biso   1.000  S
  S6       1.0000 0.66669  0.17612  0.95156  Biso   1.000  S
  S7       1.0000 0.83331  0.67612  0.54844  Biso   1.000  S
  S8       1.0000 0.66669  0.32388  0.54844  Biso   1.000  S
  S9       1.0000 0.07360  0.12331  0.07658  Biso   1.000  S
  S10      1.0000 0.42640  0.87669  0.07658  Biso   1.000  S
  S11      1.0000 0.07360  0.37669  0.42342  Biso   1.000  S
  S12      1.0000 0.42640  0.62331  0.42342  Biso   1.000  S
  S13      1.0000 0.92640  0.87669  0.92342  Biso   1.000  S
  S14      1.0000 0.57360  0.12331  0.92342  Biso   1.000  S
  S15      1.0000 0.92640  0.62331  0.57658  Biso   1.000  S
  S16      1.0000 0.57360  0.37669  0.57658  Biso   1.000  S
  O1       1.0000 0.40260  0.21613  0.88930  Biso   1.000  O
  O2       1.0000 0.09740  0.78387  0.88930  Biso   1.000  O
  O3       1.0000 0.40260  0.28387  0.61070  Biso   1.000  O
  O4       1.0000 0.09740  0.71613  0.61070  Biso   1.000  O
  O5       1.0000 0.59740  0.78387  0.11070  Biso   1.000  O
  O6       1.0000 0.90260  0.21613  0.11070  Biso   1.000  O
  O7       1.0000 0.59740  0.71613  0.38930  Biso   1.000  O
  O8       1.0000 0.90260  0.28387  0.38930  Biso   1.000  O
  O9       1.0000 0.46150  0.21055  0.08130  Biso   1.000  O
  O10      1.0000 0.03850  0.78945  0.08130  Biso   1.000  O
  O11      1.0000 0.46150  0.28945  0.41870  Biso   1.000  O
  O12      1.0000 0.03850  0.71055  0.41870  Biso   1.000  O
  O13      1.0000 0.53850  0.78945  0.91870  Biso   1.000  O
  O14      1.0000 0.96150  0.21055  0.91870  Biso   1.000  O
  O15      1.0000 0.53850  0.71055  0.58130  Biso   1.000  O
  O16      1.0000 0.96150  0.28945  0.58130  Biso   1.000  O
  O17      1.0000 0.32290  0.17359  0.89790  Biso   1.000  O
  O18      1.0000 0.17710  0.82641  0.89790  Biso   1.000  O
  O19      1.0000 0.32290  0.32641  0.60210  Biso   1.000  O
  O20      1.0000 0.17710  0.67359  0.60210  Biso   1.000  O
  O21      1.0000 0.67710  0.82641  0.10210  Biso   1.000  O
  O22      1.0000 0.82290  0.17359  0.10210  Biso   1.000  O
  O23      1.0000 0.67710  0.67359  0.39790  Biso   1.000  O
  O24      1.0000 0.82290  0.32641  0.39790  Biso   1.000  O
  O25      1.0000 0.16620  0.08289  0.93850  Biso   1.000  O
  O26      1.0000 0.33380  0.91711  0.93850  Biso   1.000  O
  O27      1.0000 0.16620  0.41711  0.56150  Biso   1.000  O
  O28      1.0000 0.33380  0.58289  0.56150  Biso   1.000  O
  O29      1.0000 0.83380  0.91711  0.06150  Biso   1.000  O
  O30      1.0000 0.66620  0.08289  0.06150  Biso   1.000  O
  O31      1.0000 0.83380  0.58289  0.43850  Biso   1.000  O
  O32      1.0000 0.66620  0.41711  0.43850  Biso   1.000  O
  O33      1.0000 0.22670  0.03588  0.94000  Biso   1.000  O
  O34      1.0000 0.27330  0.96412  0.94000  Biso   1.000  O
  O35      1.0000 0.22670  0.46412  0.56000  Biso   1.000  O
  O36      1.0000 0.27330  0.53588  0.56000  Biso   1.000  O
  O37      1.0000 0.77330  0.96412  0.06000  Biso   1.000  O
  O38      1.0000 0.72670  0.03588  0.06000  Biso   1.000  O
  O39      1.0000 0.77330  0.53588  0.44000  Biso   1.000  O
  O40      1.0000 0.72670  0.46412  0.44000  Biso   1.000  O
  O41      1.0000 0.22850  0.03551  0.15380  Biso   1.000  O
  O42      1.0000 0.27150  0.96449  0.15380  Biso   1.000  O
  O43      1.0000 0.22850  0.46449  0.34620  Biso   1.000  O
  O44      1.0000 0.27150  0.53551  0.34620  Biso   1.000  O
  O45      1.0000 0.77150  0.96449  0.84620  Biso   1.000  O
  O46      1.0000 0.72850  0.03551  0.84620  Biso   1.000  O
  O47      1.0000 0.77150  0.53551  0.65380  Biso   1.000  O
  O48      1.0000 0.72850  0.46449  0.65380  Biso   1.000  O
  N1       1.0000 0.39750  0.22522  0.59830  Biso   1.000  N
  N2       1.0000 0.10250  0.77478  0.59830  Biso   1.000  N
  N3       1.0000 0.39750  0.27478  0.90170  Biso   1.000  N
  N4       1.0000 0.10250  0.72522  0.90170  Biso   1.000  N
  N5       1.0000 0.60250  0.77478  0.40170  Biso   1.000  N
  N6       1.0000 0.89750  0.22522  0.40170  Biso   1.000  N
  N7       1.0000 0.60250  0.72522  0.09830  Biso   1.000  N
  N8       1.0000 0.89750  0.27478  0.09830  Biso   1.000  N
  N9       1.0000 0.53040  0.25000  0.75000  Biso   1.000  N
  N10      1.0000 0.96960  0.75000  0.75000  Biso   1.000  N
  N11      1.0000 0.46960  0.75000  0.25000  Biso   1.000  N
  N12      1.0000 0.03040  0.25000  0.25000  Biso   1.000  N
  N13      1.0000 0.27220  0.25000  0.75000  Biso   1.000  N
  N14      1.0000 0.22780  0.75000  0.75000  Biso   1.000  N
  N15      1.0000 0.72780  0.75000  0.25000  Biso   1.000  N
  N16      1.0000 0.77220  0.25000  0.25000  Biso   1.000  N
  N17      1.0000 0.25000  0.00000  0.38830  Biso   1.000  N
  N18      1.0000 0.25000  0.50000  0.11170  Biso   1.000  N
  N19      1.0000 0.75000  0.00000  0.61170  Biso   1.000  N
  N20      1.0000 0.75000  0.50000  0.88830  Biso   1.000  N
  N21      1.0000 0.12490  0.99454  0.15740  Biso   1.000  N
  N22      1.0000 0.37510  0.00546  0.15740  Biso   1.000  N
  N23      1.0000 0.12490  0.50546  0.34260  Biso   1.000  N
  N24      1.0000 0.37510  0.49454  0.34260  Biso   1.000  N
  N25      1.0000 0.87510  0.00546  0.84260  Biso   1.000  N
  N26      1.0000 0.62490  0.99454  0.84260  Biso   1.000  N
  N27      1.0000 0.87510  0.49454  0.65740  Biso   1.000  N
  N28      1.0000 0.62490  0.50546  0.65740  Biso   1.000  N
  C1       1.0000 0.41840  0.20408  0.98870  Biso   1.000  C
  C2       1.0000 0.08160  0.79592  0.98870  Biso   1.000  C
  C3       1.0000 0.41840  0.29592  0.51130  Biso   1.000  C
  C4       1.0000 0.08160  0.70408  0.51130  Biso   1.000  C
  C5       1.0000 0.58160  0.79592  0.01130  Biso   1.000  C
  C6       1.0000 0.91840  0.20408  0.01130  Biso   1.000  C
  C7       1.0000 0.58160  0.70408  0.48870  Biso   1.000  C
  C8       1.0000 0.91840  0.29592  0.48870  Biso   1.000  C
  C9       1.0000 0.40380  0.23251  0.47640  Biso   1.000  C
  C10      1.0000 0.09620  0.76749  0.47640  Biso   1.000  C
  C11      1.0000 0.40380  0.26749  0.02360  Biso   1.000  C
  C12      1.0000 0.09620  0.73251  0.02360  Biso   1.000  C
  C13      1.0000 0.59620  0.76749  0.52360  Biso   1.000  C
  C14      1.0000 0.90380  0.23251  0.52360  Biso   1.000  C
  C15      1.0000 0.59620  0.73251  0.97640  Biso   1.000  C
  C16      1.0000 0.90380  0.26749  0.97640  Biso   1.000  C
  H1       1.0000 0.41010  0.24920  0.45980  Biso   1.000  H
  H2       1.0000 0.08990  0.75080  0.45980  Biso   1.000  H
  H3       1.0000 0.41010  0.25080  0.04020  Biso   1.000  H
  H4       1.0000 0.08990  0.74920  0.04020  Biso   1.000  H
  H5       1.0000 0.58990  0.75080  0.54020  Biso   1.000  H
  H6       1.0000 0.91010  0.24920  0.54020  Biso   1.000  H
  H7       1.0000 0.58990  0.74920  0.95980  Biso   1.000  H
  H8       1.0000 0.91010  0.25080  0.95980  Biso   1.000  H
  C17      1.0000 0.40130  0.21668  0.37560  Biso   1.000  C
  C18      1.0000 0.09870  0.78332  0.37560  Biso   1.000  C
  C19      1.0000 0.40130  0.28332  0.12440  Biso   1.000  C
  C20      1.0000 0.09870  0.71668  0.12440  Biso   1.000  C
  C21      1.0000 0.59870  0.78332  0.62440  Biso   1.000  C
  C22      1.0000 0.90130  0.21668  0.62440  Biso   1.000  C
  C23      1.0000 0.59870  0.71668  0.87560  Biso   1.000  C
  C24      1.0000 0.90130  0.28332  0.87560  Biso   1.000  C
  H9       1.0000 0.40460  0.22270  0.29250  Biso   1.000  H
  H10      1.0000 0.09540  0.77730  0.29250  Biso   1.000  H
  H11      1.0000 0.40460  0.27730  0.20750  Biso   1.000  H
  H12      1.0000 0.09540  0.72270  0.20750  Biso   1.000  H
  H13      1.0000 0.59540  0.77730  0.70750  Biso   1.000  H
  H14      1.0000 0.90460  0.22270  0.70750  Biso   1.000  H
  H15      1.0000 0.59540  0.72270  0.79250  Biso   1.000  H
  H16      1.0000 0.90460  0.27730  0.79250  Biso   1.000  H
  C25      1.0000 0.39410  0.19265  0.39540  Biso   1.000  C
  C26      1.0000 0.10590  0.80735  0.39540  Biso   1.000  C
  C27      1.0000 0.39410  0.30735  0.10460  Biso   1.000  C
  C28      1.0000 0.10590  0.69265  0.10460  Biso   1.000  C
  C29      1.0000 0.60590  0.80735  0.60460  Biso   1.000  C
  C30      1.0000 0.89410  0.19265  0.60460  Biso   1.000  C
  C31      1.0000 0.60590  0.69265  0.89540  Biso   1.000  C
  C32      1.0000 0.89410  0.30735  0.89540  Biso   1.000  C
  H17      1.0000 0.39570  0.18160  0.32770  Biso   1.000  H
  H18      1.0000 0.10430  0.81840  0.32770  Biso   1.000  H
  H19      1.0000 0.39570  0.31840  0.17230  Biso   1.000  H
  H20      1.0000 0.10430  0.68160  0.17230  Biso   1.000  H
  H21      1.0000 0.60430  0.81840  0.67230  Biso   1.000  H
  H22      1.0000 0.89570  0.18160  0.67230  Biso   1.000  H
  H23      1.0000 0.60430  0.68160  0.82770  Biso   1.000  H
  H24      1.0000 0.89570  0.31840  0.82770  Biso   1.000  H
  C33      1.0000 0.38420  0.18462  0.51970  Biso   1.000  C
  C34      1.0000 0.11580  0.81538  0.51970  Biso   1.000  C
  C35      1.0000 0.38420  0.31538  0.98030  Biso   1.000  C
  C36      1.0000 0.11580  0.68462  0.98030  Biso   1.000  C
  C37      1.0000 0.61580  0.81538  0.48030  Biso   1.000  C
  C38      1.0000 0.88420  0.18462  0.48030  Biso   1.000  C
  C39      1.0000 0.61580  0.68462  0.01970  Biso   1.000  C
  C40      1.0000 0.88420  0.31538  0.01970  Biso   1.000  C
  H25      1.0000 0.37510  0.16810  0.53710  Biso   1.000  H
  H26      1.0000 0.12490  0.83190  0.53710  Biso   1.000  H
  H27      1.0000 0.37510  0.33190  0.96290  Biso   1.000  H
  H28      1.0000 0.12490  0.66810  0.96290  Biso   1.000  H
  H29      1.0000 0.62490  0.83190  0.46290  Biso   1.000  H
  H30      1.0000 0.87510  0.16810  0.46290  Biso   1.000  H
  H31      1.0000 0.62490  0.66810  0.03710  Biso   1.000  H
  H32      1.0000 0.87510  0.33190  0.03710  Biso   1.000  H
  C41      1.0000 0.38790  0.20143  0.61710  Biso   1.000  C
  C42      1.0000 0.11210  0.79857  0.61710  Biso   1.000  C
  C43      1.0000 0.38790  0.29857  0.88290  Biso   1.000  C
  C44      1.0000 0.11210  0.70143  0.88290  Biso   1.000  C
  C45      1.0000 0.61210  0.79857  0.38290  Biso   1.000  C
  C46      1.0000 0.88790  0.20143  0.38290  Biso   1.000  C
  C47      1.0000 0.61210  0.70143  0.11710  Biso   1.000  C
  C48      1.0000 0.88790  0.29857  0.11710  Biso   1.000  C
  H33      1.0000 0.38350  0.19580  0.70070  Biso   1.000  H
  H34      1.0000 0.11650  0.80420  0.70070  Biso   1.000  H
  H35      1.0000 0.38350  0.30420  0.79930  Biso   1.000  H
  H36      1.0000 0.11650  0.69580  0.79930  Biso   1.000  H
  H37      1.0000 0.61650  0.80420  0.29930  Biso   1.000  H
  H38      1.0000 0.88350  0.19580  0.29930  Biso   1.000  H
  H39      1.0000 0.61650  0.69580  0.20070  Biso   1.000  H
  H40      1.0000 0.88350  0.30420  0.20070  Biso   1.000  H
  C49      1.0000 0.57370  0.25537  0.64450  Biso   1.000  C
  C50      1.0000 0.92630  0.74463  0.64450  Biso   1.000  C
  C51      1.0000 0.57370  0.24463  0.85550  Biso   1.000  C
  C52      1.0000 0.92630  0.75537  0.85550  Biso   1.000  C
  C53      1.0000 0.42630  0.74463  0.35550  Biso   1.000  C
  C54      1.0000 0.07370  0.25537  0.35550  Biso   1.000  C
  C55      1.0000 0.42630  0.75537  0.14450  Biso   1.000  C
  C56      1.0000 0.07370  0.24463  0.14450  Biso   1.000  C
  H41      1.0000 0.54450  0.25900  0.57000  Biso   1.000  H
  H42      1.0000 0.95550  0.74100  0.57000  Biso   1.000  H
  H43      1.0000 0.54450  0.24100  0.93000  Biso   1.000  H
  H44      1.0000 0.95550  0.75900  0.93000  Biso   1.000  H
  H45      1.0000 0.45550  0.74100  0.43000  Biso   1.000  H
  H46      1.0000 0.04450  0.25900  0.43000  Biso   1.000  H
  H47      1.0000 0.45550  0.75900  0.07000  Biso   1.000  H
  H48      1.0000 0.04450  0.24100  0.07000  Biso   1.000  H
  C57      1.0000 0.65910  0.25569  0.64170  Biso   1.000  C
  C58      1.0000 0.84090  0.74431  0.64170  Biso   1.000  C
  C59      1.0000 0.65910  0.24431  0.85830  Biso   1.000  C
  C60      1.0000 0.84090  0.75569  0.85830  Biso   1.000  C
  C61      1.0000 0.34090  0.74431  0.35830  Biso   1.000  C
  C62      1.0000 0.15910  0.25569  0.35830  Biso   1.000  C
  C63      1.0000 0.34090  0.75569  0.14170  Biso   1.000  C
  C64      1.0000 0.15910  0.24431  0.14170  Biso   1.000  C
  H49      1.0000 0.68730  0.25970  0.56690  Biso   1.000  H
  H50      1.0000 0.81270  0.74030  0.56690  Biso   1.000  H
  H51      1.0000 0.68730  0.24030  0.93310  Biso   1.000  H
  H52      1.0000 0.81270  0.75970  0.93310  Biso   1.000  H
  H53      1.0000 0.31270  0.74030  0.43310  Biso   1.000  H
  H54      1.0000 0.18730  0.25970  0.43310  Biso   1.000  H
  H55      1.0000 0.31270  0.75970  0.06690  Biso   1.000  H
  H56      1.0000 0.18730  0.24030  0.06690  Biso   1.000  H
  C65      1.0000 0.70260  0.25000  0.75000  Biso   1.000  C
  C66      1.0000 0.79740  0.75000  0.75000  Biso   1.000  C
  C67      1.0000 0.29740  0.75000  0.25000  Biso   1.000  C
  C68      1.0000 0.20260  0.25000  0.25000  Biso   1.000  C
  H57      1.0000 0.76090  0.25000  0.75000  Biso   1.000  H
  H58      1.0000 0.73910  0.75000  0.75000  Biso   1.000  H
  H59      1.0000 0.23910  0.75000  0.25000  Biso   1.000  H
  H60      1.0000 0.26090  0.25000  0.25000  Biso   1.000  H
  C69      1.0000 0.22840  0.26912  0.70570  Biso   1.000  C
  C70      1.0000 0.27160  0.73088  0.70570  Biso   1.000  C
  C71      1.0000 0.22840  0.23088  0.79430  Biso   1.000  C
  C72      1.0000 0.27160  0.76912  0.79430  Biso   1.000  C
  C73      1.0000 0.77160  0.73088  0.29430  Biso   1.000  C
  C74      1.0000 0.72840  0.26912  0.29430  Biso   1.000  C
  C75      1.0000 0.77160  0.76912  0.20570  Biso   1.000  C
  C76      1.0000 0.72840  0.23088  0.20570  Biso   1.000  C
  H61      1.0000 0.25720  0.28270  0.67480  Biso   1.000  H
  H62      1.0000 0.24280  0.71730  0.67480  Biso   1.000  H
  H63      1.0000 0.25720  0.21730  0.82520  Biso   1.000  H
  H64      1.0000 0.24280  0.78270  0.82520  Biso   1.000  H
  H65      1.0000 0.74280  0.71730  0.32520  Biso   1.000  H
  H66      1.0000 0.75720  0.28270  0.32520  Biso   1.000  H
  H67      1.0000 0.74280  0.78270  0.17480  Biso   1.000  H
  H68      1.0000 0.75720  0.21730  0.17480  Biso   1.000  H
  C77      1.0000 0.14210  0.26939  0.70430  Biso   1.000  C
  C78      1.0000 0.35790  0.73061  0.70430  Biso   1.000  C
  C79      1.0000 0.14210  0.23061  0.79570  Biso   1.000  C
  C80      1.0000 0.35790  0.76939  0.79570  Biso   1.000  C
  C81      1.0000 0.85790  0.73061  0.29570  Biso   1.000  C
  C82      1.0000 0.64210  0.26939  0.29570  Biso   1.000  C
  C83      1.0000 0.85790  0.76939  0.20430  Biso   1.000  C
  C84      1.0000 0.64210  0.23061  0.20430  Biso   1.000  C
  H69      1.0000 0.11390  0.28300  0.67190  Biso   1.000  H
  H70      1.0000 0.38610  0.71700  0.67190  Biso   1.000  H
  H71      1.0000 0.11390  0.21700  0.82810  Biso   1.000  H
  H72      1.0000 0.38610  0.78300  0.82810  Biso   1.000  H
  H73      1.0000 0.88610  0.71700  0.32810  Biso   1.000  H
  H74      1.0000 0.61390  0.28300  0.32810  Biso   1.000  H
  H75      1.0000 0.88610  0.78300  0.17190  Biso   1.000  H
  H76      1.0000 0.61390  0.21700  0.17190  Biso   1.000  H
  C85      1.0000 0.09820  0.25000  0.75000  Biso   1.000  C
  C86      1.0000 0.40180  0.75000  0.75000  Biso   1.000  C
  C87      1.0000 0.90180  0.75000  0.25000  Biso   1.000  C
  C88      1.0000 0.59820  0.25000  0.25000  Biso   1.000  C
  H77      1.0000 0.04000  0.25000  0.75000  Biso   1.000  H
  H78      1.0000 0.46000  0.75000  0.75000  Biso   1.000  H
  H79      1.0000 0.96000  0.75000  0.25000  Biso   1.000  H
  H80      1.0000 0.54000  0.25000  0.25000  Biso   1.000  H
  C89      1.0000 0.30580  0.08767  0.78380  Biso   1.000  C
  C90      1.0000 0.19420  0.91233  0.78380  Biso   1.000  C
  C91      1.0000 0.30580  0.41233  0.71620  Biso   1.000  C
  C92      1.0000 0.19420  0.58767  0.71620  Biso   1.000  C
  C93      1.0000 0.69420  0.91233  0.21620  Biso   1.000  C
  C94      1.0000 0.80580  0.08767  0.21620  Biso   1.000  C
  C95      1.0000 0.69420  0.58767  0.28380  Biso   1.000  C
  C96      1.0000 0.80580  0.41233  0.28380  Biso   1.000  C
  H81      1.0000 0.28050  0.07240  0.79170  Biso   1.000  H
  H82      1.0000 0.21950  0.92760  0.79170  Biso   1.000  H
  H83      1.0000 0.28050  0.42760  0.70830  Biso   1.000  H
  H84      1.0000 0.21950  0.57240  0.70830  Biso   1.000  H
  H85      1.0000 0.71950  0.92760  0.20830  Biso   1.000  H
  H86      1.0000 0.78050  0.07240  0.20830  Biso   1.000  H
  H87      1.0000 0.71950  0.57240  0.29170  Biso   1.000  H
  H88      1.0000 0.78050  0.42760  0.29170  Biso   1.000  H
  C97      1.0000 0.37380  0.09060  0.70530  Biso   1.000  C
  C98      1.0000 0.12620  0.90940  0.70530  Biso   1.000  C
  C99      1.0000 0.37380  0.40940  0.79470  Biso   1.000  C
  C100     1.0000 0.12620  0.59060  0.79470  Biso   1.000  C
  C101     1.0000 0.62620  0.90940  0.29470  Biso   1.000  C
  C102     1.0000 0.87380  0.09060  0.29470  Biso   1.000  C
  C103     1.0000 0.62620  0.59060  0.20530  Biso   1.000  C
  C104     1.0000 0.87380  0.40940  0.20530  Biso   1.000  C
  H89      1.0000 0.39400  0.07720  0.65970  Biso   1.000  H
  H90      1.0000 0.10600  0.92280  0.65970  Biso   1.000  H
  H91      1.0000 0.39400  0.42280  0.84030  Biso   1.000  H
  H92      1.0000 0.10600  0.57720  0.84030  Biso   1.000  H
  H93      1.0000 0.60600  0.92280  0.34030  Biso   1.000  H
  H94      1.0000 0.89400  0.07720  0.34030  Biso   1.000  H
  H95      1.0000 0.60600  0.57720  0.15970  Biso   1.000  H
  H96      1.0000 0.89400  0.42280  0.15970  Biso   1.000  H
  C105     1.0000 0.41360  0.11353  0.69260  Biso   1.000  C
  C106     1.0000 0.08640  0.88647  0.69260  Biso   1.000  C
  C107     1.0000 0.41360  0.38647  0.80740  Biso   1.000  C
  C108     1.0000 0.08640  0.61353  0.80740  Biso   1.000  C
  C109     1.0000 0.58640  0.88647  0.30740  Biso   1.000  C
  C110     1.0000 0.91360  0.11353  0.30740  Biso   1.000  C
  C111     1.0000 0.58640  0.61353  0.19260  Biso   1.000  C
  C112     1.0000 0.91360  0.38647  0.19260  Biso   1.000  C
  H97      1.0000 0.45930  0.11520  0.63810  Biso   1.000  H
  H98      1.0000 0.04070  0.88480  0.63810  Biso   1.000  H
  H99      1.0000 0.45930  0.38480  0.86190  Biso   1.000  H
  H100     1.0000 0.04070  0.61520  0.86190  Biso   1.000  H
  H101     1.0000 0.54070  0.88480  0.36190  Biso   1.000  H
  H102     1.0000 0.95930  0.11520  0.36190  Biso   1.000  H
  H103     1.0000 0.54070  0.61520  0.13810  Biso   1.000  H
  H104     1.0000 0.95930  0.38480  0.13810  Biso   1.000  H
  C113     1.0000 0.38520  0.13338  0.76020  Biso   1.000  C
  C114     1.0000 0.11480  0.86662  0.76020  Biso   1.000  C
  C115     1.0000 0.38520  0.36662  0.73980  Biso   1.000  C
  C116     1.0000 0.11480  0.63338  0.73980  Biso   1.000  C
  C117     1.0000 0.61480  0.86662  0.23980  Biso   1.000  C
  C118     1.0000 0.88520  0.13338  0.23980  Biso   1.000  C
  C119     1.0000 0.61480  0.63338  0.26020  Biso   1.000  C
  C120     1.0000 0.88520  0.36662  0.26020  Biso   1.000  C
  H105     1.0000 0.41240  0.14840  0.75290  Biso   1.000  H
  H106     1.0000 0.08760  0.85160  0.75290  Biso   1.000  H
  H107     1.0000 0.41240  0.35160  0.74710  Biso   1.000  H
  H108     1.0000 0.08760  0.64840  0.74710  Biso   1.000  H
  H109     1.0000 0.58760  0.85160  0.24710  Biso   1.000  H
  H110     1.0000 0.91240  0.14840  0.24710  Biso   1.000  H
  H111     1.0000 0.58760  0.64840  0.25290  Biso   1.000  H
  H112     1.0000 0.91240  0.35160  0.25290  Biso   1.000  H
  C121     1.0000 0.31520  0.13115  0.84020  Biso   1.000  C
  C122     1.0000 0.18480  0.86885  0.84020  Biso   1.000  C
  C123     1.0000 0.31520  0.36885  0.65980  Biso   1.000  C
  C124     1.0000 0.18480  0.63115  0.65980  Biso   1.000  C
  C125     1.0000 0.68480  0.86885  0.15980  Biso   1.000  C
  C126     1.0000 0.81520  0.13115  0.15980  Biso   1.000  C
  C127     1.0000 0.68480  0.63115  0.34020  Biso   1.000  C
  C128     1.0000 0.81520  0.36885  0.34020  Biso   1.000  C
  C129     1.0000 0.28240  0.15142  0.91110  Biso   1.000  C
  C130     1.0000 0.21760  0.84858  0.91110  Biso   1.000  C
  C131     1.0000 0.28240  0.34858  0.58890  Biso   1.000  C
  C132     1.0000 0.21760  0.65142  0.58890  Biso   1.000  C
  C133     1.0000 0.71760  0.84858  0.08890  Biso   1.000  C
  C134     1.0000 0.78240  0.15142  0.08890  Biso   1.000  C
  C135     1.0000 0.71760  0.65142  0.41110  Biso   1.000  C
  C136     1.0000 0.78240  0.34858  0.41110  Biso   1.000  C
  C137     1.0000 0.21130  0.14920  0.98240  Biso   1.000  C
  C138     1.0000 0.28870  0.85080  0.98240  Biso   1.000  C
  C139     1.0000 0.21130  0.35080  0.51760  Biso   1.000  C
  C140     1.0000 0.28870  0.64920  0.51760  Biso   1.000  C
  C141     1.0000 0.78870  0.85080  0.01760  Biso   1.000  C
  C142     1.0000 0.71130  0.14920  0.01760  Biso   1.000  C
  C143     1.0000 0.78870  0.64920  0.48240  Biso   1.000  C
  C144     1.0000 0.71130  0.35080  0.48240  Biso   1.000  C
  C145     1.0000 0.16840  0.12579  0.99180  Biso   1.000  C
  C146     1.0000 0.33160  0.87421  0.99180  Biso   1.000  C
  C147     1.0000 0.16840  0.37421  0.50820  Biso   1.000  C
  C148     1.0000 0.33160  0.62579  0.50820  Biso   1.000  C
  C149     1.0000 0.83160  0.87421  0.00820  Biso   1.000  C
  C150     1.0000 0.66840  0.12579  0.00820  Biso   1.000  C
  C151     1.0000 0.83160  0.62579  0.49180  Biso   1.000  C
  C152     1.0000 0.66840  0.37421  0.49180  Biso   1.000  C
  C153     1.0000 0.20320  0.10572  0.93200  Biso   1.000  C
  C154     1.0000 0.29680  0.89428  0.93200  Biso   1.000  C
  C155     1.0000 0.20320  0.39428  0.56800  Biso   1.000  C
  C156     1.0000 0.29680  0.60572  0.56800  Biso   1.000  C
  C157     1.0000 0.79680  0.89428  0.06800  Biso   1.000  C
  C158     1.0000 0.70320  0.10572  0.06800  Biso   1.000  C
  C159     1.0000 0.79680  0.60572  0.43200  Biso   1.000  C
  C160     1.0000 0.70320  0.39428  0.43200  Biso   1.000  C
  C161     1.0000 0.27460  0.10796  0.85240  Biso   1.000  C
  C162     1.0000 0.22540  0.89204  0.85240  Biso   1.000  C
  C163     1.0000 0.27460  0.39204  0.64760  Biso   1.000  C
  C164     1.0000 0.22540  0.60796  0.64760  Biso   1.000  C
  C165     1.0000 0.72540  0.89204  0.14760  Biso   1.000  C
  C166     1.0000 0.77460  0.10796  0.14760  Biso   1.000  C
  C167     1.0000 0.72540  0.60796  0.35240  Biso   1.000  C
  C168     1.0000 0.77460  0.39204  0.35240  Biso   1.000  C
  C169     1.0000 0.00530  0.11482  0.95000  Biso   1.000  C
  C170     1.0000 0.49470  0.88518  0.95000  Biso   1.000  C
  C171     1.0000 0.00530  0.38518  0.55000  Biso   1.000  C
  C172     1.0000 0.49470  0.61482  0.55000  Biso   1.000  C
  C173     1.0000 0.99470  0.88518  0.05000  Biso   1.000  C
  C174     1.0000 0.50530  0.11482  0.05000  Biso   1.000  C
  C175     1.0000 0.99470  0.61482  0.45000  Biso   1.000  C
  C176     1.0000 0.50530  0.38518  0.45000  Biso   1.000  C
  C177     1.0000 0.00150  0.12870  0.83870  Biso   1.000  C
  C178     1.0000 0.49850  0.87130  0.83870  Biso   1.000  C
  C179     1.0000 0.00150  0.37130  0.66130  Biso   1.000  C
  C180     1.0000 0.49850  0.62870  0.66130  Biso   1.000  C
  C181     1.0000 0.99850  0.87130  0.16130  Biso   1.000  C
  C182     1.0000 0.50150  0.12870  0.16130  Biso   1.000  C
  C183     1.0000 0.99850  0.62870  0.33870  Biso   1.000  C
  C184     1.0000 0.50150  0.37130  0.33870  Biso   1.000  C
  H113     1.0000 0.03490  0.14260  0.82980  Biso   1.000  H
  H114     1.0000 0.46510  0.85740  0.82980  Biso   1.000  H
  H115     1.0000 0.03490  0.35740  0.67020  Biso   1.000  H
  H116     1.0000 0.46510  0.64260  0.67020  Biso   1.000  H
  H117     1.0000 0.96510  0.85740  0.17020  Biso   1.000  H
  H118     1.0000 0.53490  0.14260  0.17020  Biso   1.000  H
  H119     1.0000 0.96510  0.64260  0.32980  Biso   1.000  H
  H120     1.0000 0.53490  0.35740  0.32980  Biso   1.000  H
  C185     1.0000 0.94830  0.12188  0.74180  Biso   1.000  C
  C186     1.0000 0.55170  0.87812  0.74180  Biso   1.000  C
  C187     1.0000 0.94830  0.37812  0.75820  Biso   1.000  C
  C188     1.0000 0.55170  0.62188  0.75820  Biso   1.000  C
  C189     1.0000 0.05170  0.87812  0.25820  Biso   1.000  C
  C190     1.0000 0.44830  0.12188  0.25820  Biso   1.000  C
  C191     1.0000 0.05170  0.62188  0.24180  Biso   1.000  C
  C192     1.0000 0.44830  0.37812  0.24180  Biso   1.000  C
  H121     1.0000 0.94660  0.13100  0.66680  Biso   1.000  H
  H122     1.0000 0.55340  0.86900  0.66680  Biso   1.000  H
  H123     1.0000 0.94660  0.36900  0.83320  Biso   1.000  H
  H124     1.0000 0.55340  0.63100  0.83320  Biso   1.000  H
  H125     1.0000 0.05340  0.86900  0.33320  Biso   1.000  H
  H126     1.0000 0.44660  0.13100  0.33320  Biso   1.000  H
  H127     1.0000 0.05340  0.63100  0.16680  Biso   1.000  H
  H128     1.0000 0.44660  0.36900  0.16680  Biso   1.000  H
  C193     1.0000 0.89630  0.10112  0.75520  Biso   1.000  C
  C194     1.0000 0.60370  0.89888  0.75520  Biso   1.000  C
  C195     1.0000 0.89630  0.39888  0.74480  Biso   1.000  C
  C196     1.0000 0.60370  0.60112  0.74480  Biso   1.000  C
  C197     1.0000 0.10370  0.89888  0.24480  Biso   1.000  C
  C198     1.0000 0.39630  0.10112  0.24480  Biso   1.000  C
  C199     1.0000 0.10370  0.60112  0.25520  Biso   1.000  C
  C200     1.0000 0.39630  0.39888  0.25520  Biso   1.000  C
  C201     1.0000 0.90060  0.08840  0.86840  Biso   1.000  C
  C202     1.0000 0.59940  0.91160  0.86840  Biso   1.000  C
  C203     1.0000 0.90060  0.41160  0.63160  Biso   1.000  C
  C204     1.0000 0.59940  0.58840  0.63160  Biso   1.000  C
  C205     1.0000 0.09940  0.91160  0.13160  Biso   1.000  C
  C206     1.0000 0.40060  0.08840  0.13160  Biso   1.000  C
  C207     1.0000 0.09940  0.58840  0.36840  Biso   1.000  C
  C208     1.0000 0.40060  0.41160  0.36840  Biso   1.000  C
  H129     1.0000 0.86510  0.07510  0.88080  Biso   1.000  H
  H130     1.0000 0.63490  0.92490  0.88080  Biso   1.000  H
  H131     1.0000 0.86510  0.42490  0.61920  Biso   1.000  H
  H132     1.0000 0.63490  0.57510  0.61920  Biso   1.000  H
  H133     1.0000 0.13490  0.92490  0.11920  Biso   1.000  H
  H134     1.0000 0.36510  0.07510  0.11920  Biso   1.000  H
  H135     1.0000 0.13490  0.57510  0.38080  Biso   1.000  H
  H136     1.0000 0.36510  0.42490  0.38080  Biso   1.000  H
  C209     1.0000 0.95540  0.09474  0.96340  Biso   1.000  C
  C210     1.0000 0.54460  0.90526  0.96340  Biso   1.000  C
  C211     1.0000 0.95540  0.40526  0.53660  Biso   1.000  C
  C212     1.0000 0.54460  0.59474  0.53660  Biso   1.000  C
  C213     1.0000 0.04460  0.90526  0.03660  Biso   1.000  C
  C214     1.0000 0.45540  0.09474  0.03660  Biso   1.000  C
  C215     1.0000 0.04460  0.59474  0.46340  Biso   1.000  C
  C216     1.0000 0.45540  0.40526  0.46340  Biso   1.000  C
  H137     1.0000 0.95850  0.08530  0.03730  Biso   1.000  H
  H138     1.0000 0.54150  0.91470  0.03730  Biso   1.000  H
  H139     1.0000 0.95850  0.41470  0.46270  Biso   1.000  H
  H140     1.0000 0.54150  0.58530  0.46270  Biso   1.000  H
  H141     1.0000 0.04150  0.91470  0.96270  Biso   1.000  H
  H142     1.0000 0.45850  0.08530  0.96270  Biso   1.000  H
  H143     1.0000 0.04150  0.58530  0.53730  Biso   1.000  H
  H144     1.0000 0.45850  0.41470  0.53730  Biso   1.000  H
  C217     1.0000 0.16440  0.17028  0.21440  Biso   1.000  C
  C218     1.0000 0.33560  0.82972  0.21440  Biso   1.000  C
  C219     1.0000 0.16440  0.32972  0.28560  Biso   1.000  C
  C220     1.0000 0.33560  0.67028  0.28560  Biso   1.000  C
  C221     1.0000 0.83560  0.82972  0.78560  Biso   1.000  C
  C222     1.0000 0.66440  0.17028  0.78560  Biso   1.000  C
  C223     1.0000 0.83560  0.67028  0.71440  Biso   1.000  C
  C224     1.0000 0.66440  0.32972  0.71440  Biso   1.000  C
  C225     1.0000 0.21620  0.15407  0.27530  Biso   1.000  C
  C226     1.0000 0.28380  0.84593  0.27530  Biso   1.000  C
  C227     1.0000 0.21620  0.34593  0.22470  Biso   1.000  C
  C228     1.0000 0.28380  0.65407  0.22470  Biso   1.000  C
  C229     1.0000 0.78380  0.84593  0.72470  Biso   1.000  C
  C230     1.0000 0.71620  0.15407  0.72470  Biso   1.000  C
  C231     1.0000 0.78380  0.65407  0.77530  Biso   1.000  C
  C232     1.0000 0.71620  0.34593  0.77530  Biso   1.000  C
  H145     1.0000 0.25340  0.14460  0.22800  Biso   1.000  H
  H146     1.0000 0.24660  0.85540  0.22800  Biso   1.000  H
  H147     1.0000 0.25340  0.35540  0.27200  Biso   1.000  H
  H148     1.0000 0.24660  0.64460  0.27200  Biso   1.000  H
  H149     1.0000 0.74660  0.85540  0.77200  Biso   1.000  H
  H150     1.0000 0.75340  0.14460  0.77200  Biso   1.000  H
  H151     1.0000 0.74660  0.64460  0.72800  Biso   1.000  H
  H152     1.0000 0.75340  0.35540  0.72800  Biso   1.000  H
  C233     1.0000 0.21350  0.15173  0.40790  Biso   1.000  C
  C234     1.0000 0.28650  0.84827  0.40790  Biso   1.000  C
  C235     1.0000 0.21350  0.34827  0.09210  Biso   1.000  C
  C236     1.0000 0.28650  0.65173  0.09210  Biso   1.000  C
  C237     1.0000 0.78650  0.84827  0.59210  Biso   1.000  C
  C238     1.0000 0.71350  0.15173  0.59210  Biso   1.000  C
  C239     1.0000 0.78650  0.65173  0.90790  Biso   1.000  C
  C240     1.0000 0.71350  0.34827  0.90790  Biso   1.000  C
  H153     1.0000 0.24760  0.14030  0.44830  Biso   1.000  H
  H154     1.0000 0.25240  0.85970  0.44830  Biso   1.000  H
  H155     1.0000 0.24760  0.35970  0.05170  Biso   1.000  H
  H156     1.0000 0.25240  0.64030  0.05170  Biso   1.000  H
  H157     1.0000 0.75240  0.85970  0.55170  Biso   1.000  H
  H158     1.0000 0.74760  0.14030  0.55170  Biso   1.000  H
  H159     1.0000 0.75240  0.64030  0.94830  Biso   1.000  H
  H160     1.0000 0.74760  0.35970  0.94830  Biso   1.000  H
  C241     1.0000 0.16000  0.16644  0.48050  Biso   1.000  C
  C242     1.0000 0.34000  0.83356  0.48050  Biso   1.000  C
  C243     1.0000 0.16000  0.33356  0.01950  Biso   1.000  C
  C244     1.0000 0.34000  0.66644  0.01950  Biso   1.000  C
  C245     1.0000 0.84000  0.83356  0.51950  Biso   1.000  C
  C246     1.0000 0.66000  0.16644  0.51950  Biso   1.000  C
  C247     1.0000 0.84000  0.66644  0.98050  Biso   1.000  C
  C248     1.0000 0.66000  0.33356  0.98050  Biso   1.000  C
  C249     1.0000 0.11050  0.18227  0.41760  Biso   1.000  C
  C250     1.0000 0.38950  0.81773  0.41760  Biso   1.000  C
  C251     1.0000 0.11050  0.31773  0.08240  Biso   1.000  C
  C252     1.0000 0.38950  0.68227  0.08240  Biso   1.000  C
  C253     1.0000 0.88950  0.81773  0.58240  Biso   1.000  C
  C254     1.0000 0.61050  0.18227  0.58240  Biso   1.000  C
  C255     1.0000 0.88950  0.68227  0.91760  Biso   1.000  C
  C256     1.0000 0.61050  0.31773  0.91760  Biso   1.000  C
  H161     1.0000 0.07540  0.19230  0.46520  Biso   1.000  H
  H162     1.0000 0.42460  0.80770  0.46520  Biso   1.000  H
  H163     1.0000 0.07540  0.30770  0.03480  Biso   1.000  H
  H164     1.0000 0.42460  0.69230  0.03480  Biso   1.000  H
  H165     1.0000 0.92460  0.80770  0.53480  Biso   1.000  H
  H166     1.0000 0.57540  0.19230  0.53480  Biso   1.000  H
  H167     1.0000 0.92460  0.69230  0.96520  Biso   1.000  H
  H168     1.0000 0.57540  0.30770  0.96520  Biso   1.000  H
  C257     1.0000 0.10890  0.18446  0.28570  Biso   1.000  C
  C258     1.0000 0.39110  0.81554  0.28570  Biso   1.000  C
  C259     1.0000 0.10890  0.31554  0.21430  Biso   1.000  C
  C260     1.0000 0.39110  0.68446  0.21430  Biso   1.000  C
  C261     1.0000 0.89110  0.81554  0.71430  Biso   1.000  C
  C262     1.0000 0.60890  0.18446  0.71430  Biso   1.000  C
  C263     1.0000 0.89110  0.68446  0.78570  Biso   1.000  C
  C264     1.0000 0.60890  0.31554  0.78570  Biso   1.000  C
  H169     1.0000 0.07160  0.19510  0.24580  Biso   1.000  H
  H170     1.0000 0.42840  0.80490  0.24580  Biso   1.000  H
  H171     1.0000 0.07160  0.30490  0.25420  Biso   1.000  H
  H172     1.0000 0.42840  0.69510  0.25420  Biso   1.000  H
  H173     1.0000 0.92840  0.80490  0.75420  Biso   1.000  H
  H174     1.0000 0.57160  0.19510  0.75420  Biso   1.000  H
  H175     1.0000 0.92840  0.69510  0.74580  Biso   1.000  H
  H176     1.0000 0.57160  0.30490  0.74580  Biso   1.000  H
  C265     1.0000 0.38120  0.17856  0.99890  Biso   1.000  C
  C266     1.0000 0.11880  0.82144  0.99890  Biso   1.000  C
  C267     1.0000 0.38120  0.32144  0.50110  Biso   1.000  C
  C268     1.0000 0.11880  0.67856  0.50110  Biso   1.000  C
  C269     1.0000 0.61880  0.82144  0.00110  Biso   1.000  C
  C270     1.0000 0.88120  0.17856  0.00110  Biso   1.000  C
  C271     1.0000 0.61880  0.67856  0.49890  Biso   1.000  C
  C272     1.0000 0.88120  0.32144  0.49890  Biso   1.000  C
  H177     1.0000 0.42600  0.16650  0.99620  Biso   1.000  H
  H178     1.0000 0.07400  0.83350  0.99620  Biso   1.000  H
  H179     1.0000 0.42600  0.33350  0.50380  Biso   1.000  H
  H180     1.0000 0.07400  0.66650  0.50380  Biso   1.000  H
  H181     1.0000 0.57400  0.83350  0.00380  Biso   1.000  H
  H182     1.0000 0.92600  0.16650  0.00380  Biso   1.000  H
  H183     1.0000 0.57400  0.66650  0.49620  Biso   1.000  H
  H184     1.0000 0.92600  0.33350  0.49620  Biso   1.000  H
  H185     1.0000 0.35290  0.17690  0.08050  Biso   1.000  H
  H186     1.0000 0.14710  0.82310  0.08050  Biso   1.000  H
  H187     1.0000 0.35290  0.32310  0.41950  Biso   1.000  H
  H188     1.0000 0.14710  0.67690  0.41950  Biso   1.000  H
  H189     1.0000 0.64710  0.82310  0.91950  Biso   1.000  H
  H190     1.0000 0.85290  0.17690  0.91950  Biso   1.000  H
  H191     1.0000 0.64710  0.67690  0.58050  Biso   1.000  H
  H192     1.0000 0.85290  0.32310  0.58050  Biso   1.000  H
  C273     1.0000 0.17440  0.07052  0.05820  Biso   1.000  C
  C274     1.0000 0.32560  0.92948  0.05820  Biso   1.000  C
  C275     1.0000 0.17440  0.42948  0.44180  Biso   1.000  C
  C276     1.0000 0.32560  0.57052  0.44180  Biso   1.000  C
  C277     1.0000 0.82560  0.92948  0.94180  Biso   1.000  C
  C278     1.0000 0.67440  0.07052  0.94180  Biso   1.000  C
  C279     1.0000 0.82560  0.57052  0.55820  Biso   1.000  C
  C280     1.0000 0.67440  0.42948  0.55820  Biso   1.000  C
  H193     1.0000 0.11950  0.06880  0.09690  Biso   1.000  H
  H194     1.0000 0.38050  0.93120  0.09690  Biso   1.000  H
  H195     1.0000 0.11950  0.43120  0.40310  Biso   1.000  H
  H196     1.0000 0.38050  0.56880  0.40310  Biso   1.000  H
  H197     1.0000 0.88050  0.93120  0.90310  Biso   1.000  H
  H198     1.0000 0.61950  0.06880  0.90310  Biso   1.000  H
  H199     1.0000 0.88050  0.56880  0.59690  Biso   1.000  H
  H200     1.0000 0.61950  0.43120  0.59690  Biso   1.000  H
  H201     1.0000 0.20870  0.08040  0.11500  Biso   1.000  H
  H202     1.0000 0.29130  0.91960  0.11500  Biso   1.000  H
  H203     1.0000 0.20870  0.41960  0.38500  Biso   1.000  H
  H204     1.0000 0.29130  0.58040  0.38500  Biso   1.000  H
  H205     1.0000 0.79130  0.91960  0.88500  Biso   1.000  H
  H206     1.0000 0.70870  0.08040  0.88500  Biso   1.000  H
  H207     1.0000 0.79130  0.58040  0.61500  Biso   1.000  H
  H208     1.0000 0.70870  0.41960  0.61500  Biso   1.000  H
  C281     1.0000 0.24070  0.97965  0.45450  Biso   1.000  C
  C282     1.0000 0.25930  0.02035  0.45450  Biso   1.000  C
  C283     1.0000 0.24070  0.52035  0.04550  Biso   1.000  C
  C284     1.0000 0.25930  0.47965  0.04550  Biso   1.000  C
  C285     1.0000 0.75930  0.02035  0.54550  Biso   1.000  C
  C286     1.0000 0.74070  0.97965  0.54550  Biso   1.000  C
  C287     1.0000 0.75930  0.47965  0.95450  Biso   1.000  C
  C288     1.0000 0.74070  0.52035  0.95450  Biso   1.000  C
  H209     1.0000 0.23400  0.96500  0.41010  Biso   1.000  H
  H210     1.0000 0.26600  0.03500  0.41010  Biso   1.000  H
  H211     1.0000 0.23400  0.53500  0.08990  Biso   1.000  H
  H212     1.0000 0.26600  0.46500  0.08990  Biso   1.000  H
  H213     1.0000 0.76600  0.03500  0.58990  Biso   1.000  H
  H214     1.0000 0.73400  0.96500  0.58990  Biso   1.000  H
  H215     1.0000 0.76600  0.46500  0.91010  Biso   1.000  H
  H216     1.0000 0.73400  0.53500  0.91010  Biso   1.000  H
  C289     1.0000 0.24040  0.97892  0.58670  Biso   1.000  C
  C290     1.0000 0.25960  0.02108  0.58670  Biso   1.000  C
  C291     1.0000 0.24040  0.52108  0.91330  Biso   1.000  C
  C292     1.0000 0.25960  0.47892  0.91330  Biso   1.000  C
  C293     1.0000 0.75960  0.02108  0.41330  Biso   1.000  C
  C294     1.0000 0.74040  0.97892  0.41330  Biso   1.000  C
  C295     1.0000 0.75960  0.47892  0.08670  Biso   1.000  C
  C296     1.0000 0.74040  0.52108  0.08670  Biso   1.000  C
  H217     1.0000 0.23360  0.96410  0.62960  Biso   1.000  H
  H218     1.0000 0.26640  0.03590  0.62960  Biso   1.000  H
  H219     1.0000 0.23360  0.53590  0.87040  Biso   1.000  H
  H220     1.0000 0.26640  0.46410  0.87040  Biso   1.000  H
  H221     1.0000 0.76640  0.03590  0.37040  Biso   1.000  H
  H222     1.0000 0.73360  0.96410  0.37040  Biso   1.000  H
  H223     1.0000 0.76640  0.46410  0.12960  Biso   1.000  H
  H224     1.0000 0.73360  0.53590  0.12960  Biso   1.000  H
  C297     1.0000 0.25000  0.00000  0.65210  Biso   1.000  C
  C298     1.0000 0.25000  0.50000  0.84790  Biso   1.000  C
  C299     1.0000 0.75000  0.00000  0.34790  Biso   1.000  C
  C300     1.0000 0.75000  0.50000  0.15210  Biso   1.000  C
  H225     1.0000 0.25000  0.00000  0.74100  Biso   1.000  H
  H226     1.0000 0.25000  0.50000  0.75900  Biso   1.000  H
  H227     1.0000 0.75000  0.00000  0.25900  Biso   1.000  H
  H228     1.0000 0.75000  0.50000  0.24100  Biso   1.000  H
  C301     1.0000 0.07430  0.00815  0.23270  Biso   1.000  C
  C302     1.0000 0.42570  0.99185  0.23270  Biso   1.000  C
  C303     1.0000 0.07430  0.49185  0.26730  Biso   1.000  C
  C304     1.0000 0.42570  0.50815  0.26730  Biso   1.000  C
  C305     1.0000 0.92570  0.99185  0.76730  Biso   1.000  C
  C306     1.0000 0.57430  0.00815  0.76730  Biso   1.000  C
  C307     1.0000 0.92570  0.50815  0.73270  Biso   1.000  C
  C308     1.0000 0.57430  0.49185  0.73270  Biso   1.000  C
  H229     1.0000 0.09840  0.02040  0.28270  Biso   1.000  H
  H230     1.0000 0.40160  0.97960  0.28270  Biso   1.000  H
  H231     1.0000 0.09840  0.47960  0.21730  Biso   1.000  H
  H232     1.0000 0.40160  0.52040  0.21730  Biso   1.000  H
  H233     1.0000 0.90160  0.97960  0.71730  Biso   1.000  H
  H234     1.0000 0.59840  0.02040  0.71730  Biso   1.000  H
  H235     1.0000 0.90160  0.52040  0.78270  Biso   1.000  H
  H236     1.0000 0.59840  0.47960  0.78270  Biso   1.000  H
  C309     1.0000 0.98910  0.00490  0.23920  Biso   1.000  C
  C310     1.0000 0.51090  0.99510  0.23920  Biso   1.000  C
  C311     1.0000 0.98910  0.49510  0.26080  Biso   1.000  C
  C312     1.0000 0.51090  0.50490  0.26080  Biso   1.000  C
  C313     1.0000 0.01090  0.99510  0.76080  Biso   1.000  C
  C314     1.0000 0.48910  0.00490  0.76080  Biso   1.000  C
  C315     1.0000 0.01090  0.50490  0.73920  Biso   1.000  C
  C316     1.0000 0.48910  0.49510  0.73920  Biso   1.000  C
  H237     1.0000 0.95660  0.01470  0.29210  Biso   1.000  H
  H238     1.0000 0.54340  0.98530  0.29210  Biso   1.000  H
  H239     1.0000 0.95660  0.48530  0.20790  Biso   1.000  H
  H240     1.0000 0.54340  0.51470  0.20790  Biso   1.000  H
  H241     1.0000 0.04340  0.98530  0.70790  Biso   1.000  H
  H242     1.0000 0.45660  0.01470  0.70790  Biso   1.000  H
  H243     1.0000 0.04340  0.51470  0.79210  Biso   1.000  H
  H244     1.0000 0.45660  0.48530  0.79210  Biso   1.000  H
  C317     1.0000 0.95280  0.98681  0.16600  Biso   1.000  C
  C318     1.0000 0.54720  0.01319  0.16600  Biso   1.000  C
  C319     1.0000 0.95280  0.51319  0.33400  Biso   1.000  C
  C320     1.0000 0.54720  0.48681  0.33400  Biso   1.000  C
  C321     1.0000 0.04720  0.01319  0.83400  Biso   1.000  C
  C322     1.0000 0.45280  0.98681  0.83400  Biso   1.000  C
  C323     1.0000 0.04720  0.48681  0.66600  Biso   1.000  C
  C324     1.0000 0.45280  0.51319  0.66600  Biso   1.000  C
  H245     1.0000 0.89530  0.98410  0.16930  Biso   1.000  H
  H246     1.0000 0.60470  0.01590  0.16930  Biso   1.000  H
  H247     1.0000 0.89530  0.51590  0.33070  Biso   1.000  H
  H248     1.0000 0.60470  0.48410  0.33070  Biso   1.000  H
  H249     1.0000 0.10470  0.01590  0.83070  Biso   1.000  H
  H250     1.0000 0.39530  0.98410  0.83070  Biso   1.000  H
  H251     1.0000 0.10470  0.48410  0.66930  Biso   1.000  H
  H252     1.0000 0.39530  0.51590  0.66930  Biso   1.000  H
  C325     1.0000 0.00190  0.97311  0.08940  Biso   1.000  C
  C326     1.0000 0.49810  0.02689  0.08940  Biso   1.000  C
  C327     1.0000 0.00190  0.52689  0.41060  Biso   1.000  C
  C328     1.0000 0.49810  0.47311  0.41060  Biso   1.000  C
  C329     1.0000 0.99810  0.02689  0.91060  Biso   1.000  C
  C330     1.0000 0.50190  0.97311  0.91060  Biso   1.000  C
  C331     1.0000 0.99810  0.47311  0.58940  Biso   1.000  C
  C332     1.0000 0.50190  0.52689  0.58940  Biso   1.000  C
  H253     1.0000 0.97850  0.96080  0.03940  Biso   1.000  H
  H254     1.0000 0.52150  0.03920  0.03940  Biso   1.000  H
  H255     1.0000 0.97850  0.53920  0.46060  Biso   1.000  H
  H256     1.0000 0.52150  0.46080  0.46060  Biso   1.000  H
  H257     1.0000 0.02150  0.03920  0.96060  Biso   1.000  H
  H258     1.0000 0.47850  0.96080  0.96060  Biso   1.000  H
  H259     1.0000 0.02150  0.46080  0.53940  Biso   1.000  H
  H260     1.0000 0.47850  0.53920  0.53940  Biso   1.000  H
  C333     1.0000 0.08710  0.97741  0.08520  Biso   1.000  C
  C334     1.0000 0.41290  0.02259  0.08520  Biso   1.000  C
  C335     1.0000 0.08710  0.52259  0.41480  Biso   1.000  C
  C336     1.0000 0.41290  0.47741  0.41480  Biso   1.000  C
  C337     1.0000 0.91290  0.02259  0.91480  Biso   1.000  C
  C338     1.0000 0.58710  0.97741  0.91480  Biso   1.000  C
  C339     1.0000 0.91290  0.47741  0.58520  Biso   1.000  C
  C340     1.0000 0.58710  0.52259  0.58520  Biso   1.000  C
  H261     1.0000 0.11970  0.96800  0.03000  Biso   1.000  H
  H262     1.0000 0.38030  0.03200  0.03000  Biso   1.000  H
  H263     1.0000 0.11970  0.53200  0.47000  Biso   1.000  H
  H264     1.0000 0.38030  0.46800  0.47000  Biso   1.000  H
  H265     1.0000 0.88030  0.03200  0.97000  Biso   1.000  H
  H266     1.0000 0.61970  0.96800  0.97000  Biso   1.000  H
  H267     1.0000 0.88030  0.46800  0.53000  Biso   1.000  H
  H268     1.0000 0.61970  0.53200  0.53000  Biso   1.000  H
  C341     1.0000 0.21400  0.04511  0.04440  Biso   1.000  C
  C342     1.0000 0.28600  0.95489  0.04440  Biso   1.000  C
  C343     1.0000 0.21400  0.45489  0.45560  Biso   1.000  C
  C344     1.0000 0.28600  0.54511  0.45560  Biso   1.000  C
  C345     1.0000 0.78600  0.95489  0.95560  Biso   1.000  C
  C346     1.0000 0.71400  0.04511  0.95560  Biso   1.000  C
  C347     1.0000 0.78600  0.54511  0.54440  Biso   1.000  C
  C348     1.0000 0.71400  0.45489  0.54440  Biso   1.000  C
  C349     1.0000 0.15910  0.16483  0.62450  Biso   1.000  C
  C350     1.0000 0.34090  0.83517  0.62450  Biso   1.000  C
  C351     1.0000 0.15910  0.33517  0.87550  Biso   1.000  C
  C352     1.0000 0.34090  0.66483  0.87550  Biso   1.000  C
  C353     1.0000 0.84090  0.83517  0.37550  Biso   1.000  C
  C354     1.0000 0.65910  0.16483  0.37550  Biso   1.000  C
  C355     1.0000 0.84090  0.66483  0.12450  Biso   1.000  C
  C356     1.0000 0.65910  0.33517  0.12450  Biso   1.000  C
  H269     1.0000 0.20850  0.17250  0.65820  Biso   1.000  H
  H270     1.0000 0.29150  0.82750  0.65820  Biso   1.000  H
  H271     1.0000 0.20850  0.32750  0.84180  Biso   1.000  H
  H272     1.0000 0.29150  0.67250  0.84180  Biso   1.000  H
  H273     1.0000 0.79150  0.82750  0.34180  Biso   1.000  H
  H274     1.0000 0.70850  0.17250  0.34180  Biso   1.000  H
  H275     1.0000 0.79150  0.67250  0.15820  Biso   1.000  H
  H276     1.0000 0.70850  0.32750  0.15820  Biso   1.000  H
  H277     1.0000 0.15780  0.14790  0.65000  Biso   1.000  H
  H278     1.0000 0.34220  0.85210  0.65000  Biso   1.000  H
  H279     1.0000 0.15780  0.35210  0.85000  Biso   1.000  H
  H280     1.0000 0.34220  0.64790  0.85000  Biso   1.000  H
  H281     1.0000 0.84220  0.85210  0.35000  Biso   1.000  H
  H282     1.0000 0.65780  0.14790  0.35000  Biso   1.000  H
  H283     1.0000 0.84220  0.64790  0.15000  Biso   1.000  H
  H284     1.0000 0.65780  0.35210  0.15000  Biso   1.000  H
  H285     1.0000 0.11030  0.17310  0.65690  Biso   1.000  H
  H286     1.0000 0.38970  0.82690  0.65690  Biso   1.000  H
  H287     1.0000 0.11030  0.32690  0.84310  Biso   1.000  H
  H288     1.0000 0.38970  0.67310  0.84310  Biso   1.000  H
  H289     1.0000 0.88970  0.82690  0.34310  Biso   1.000  H
  H290     1.0000 0.61030  0.17310  0.34310  Biso   1.000  H
  H291     1.0000 0.88970  0.67310  0.15690  Biso   1.000  H
  H292     1.0000 0.61030  0.32690  0.15690  Biso   1.000  H
  C357     1.0000 0.84250  0.09258  0.65030  Biso   1.000  C
  C358     1.0000 0.65750  0.90742  0.65030  Biso   1.000  C
  C359     1.0000 0.84250  0.40742  0.84970  Biso   1.000  C
  C360     1.0000 0.65750  0.59258  0.84970  Biso   1.000  C
  C361     1.0000 0.15750  0.90742  0.34970  Biso   1.000  C
  C362     1.0000 0.34250  0.09258  0.34970  Biso   1.000  C
  C363     1.0000 0.15750  0.59258  0.15030  Biso   1.000  C
  C364     1.0000 0.34250  0.40742  0.15030  Biso   1.000  C
  H293     1.0000 0.87590  0.08410  0.58800  Biso   1.000  H
  H294     1.0000 0.62410  0.91590  0.58800  Biso   1.000  H
  H295     1.0000 0.87590  0.41590  0.91200  Biso   1.000  H
  H296     1.0000 0.62410  0.58410  0.91200  Biso   1.000  H
  H297     1.0000 0.12410  0.91590  0.41200  Biso   1.000  H
  H298     1.0000 0.37590  0.08410  0.41200  Biso   1.000  H
  H299     1.0000 0.12410  0.58410  0.08800  Biso   1.000  H
  H300     1.0000 0.37590  0.41590  0.08800  Biso   1.000  H
  H301     1.0000 0.81560  0.10640  0.61090  Biso   1.000  H
  H302     1.0000 0.68440  0.89360  0.61090  Biso   1.000  H
  H303     1.0000 0.81560  0.39360  0.88910  Biso   1.000  H
  H304     1.0000 0.68440  0.60640  0.88910  Biso   1.000  H
  H305     1.0000 0.18440  0.89360  0.38910  Biso   1.000  H
  H306     1.0000 0.31560  0.10640  0.38910  Biso   1.000  H
  H307     1.0000 0.18440  0.60640  0.11090  Biso   1.000  H
  H308     1.0000 0.31560  0.39360  0.11090  Biso   1.000  H
  H309     1.0000 0.80070  0.08160  0.68350  Biso   1.000  H
  H310     1.0000 0.69930  0.91840  0.68350  Biso   1.000  H
  H311     1.0000 0.80070  0.41840  0.81650  Biso   1.000  H
  H312     1.0000 0.69930  0.58160  0.81650  Biso   1.000  H
  H313     1.0000 0.19930  0.91840  0.31650  Biso   1.000  H
  H314     1.0000 0.30070  0.08160  0.31650  Biso   1.000  H
  H315     1.0000 0.19930  0.58160  0.18350  Biso   1.000  H
  H316     1.0000 0.30070  0.41840  0.18350  Biso   1.000  H
  C365     1.0000 0.03770  0.05448  0.57310  Biso   1.000  C
  C366     1.0000 0.46230  0.94552  0.57310  Biso   1.000  C
  C367     1.0000 0.03770  0.44552  0.92690  Biso   1.000  C
  C368     1.0000 0.46230  0.55448  0.92690  Biso   1.000  C
  C369     1.0000 0.96230  0.94552  0.42690  Biso   1.000  C
  C370     1.0000 0.53770  0.05448  0.42690  Biso   1.000  C
  C371     1.0000 0.96230  0.55448  0.07310  Biso   1.000  C
  C372     1.0000 0.53770  0.44552  0.07310  Biso   1.000  C
  H317     1.0000 0.00640  0.04300  0.61840  Biso   1.000  H
  H318     1.0000 0.49360  0.95700  0.61840  Biso   1.000  H
  H319     1.0000 0.00640  0.45700  0.88160  Biso   1.000  H
  H320     1.0000 0.49360  0.54300  0.88160  Biso   1.000  H
  H321     1.0000 0.99360  0.95700  0.38160  Biso   1.000  H
  H322     1.0000 0.50640  0.04300  0.38160  Biso   1.000  H
  H323     1.0000 0.99360  0.54300  0.11840  Biso   1.000  H
  H324     1.0000 0.50640  0.45700  0.11840  Biso   1.000  H
  C373     1.0000 0.07340  0.07140  0.39080  Biso   1.000  C
  C374     1.0000 0.42660  0.92860  0.39080  Biso   1.000  C
  C375     1.0000 0.07340  0.42860  0.10920  Biso   1.000  C
  C376     1.0000 0.42660  0.57140  0.10920  Biso   1.000  C
  C377     1.0000 0.92660  0.92860  0.60920  Biso   1.000  C
  C378     1.0000 0.57340  0.07140  0.60920  Biso   1.000  C
  C379     1.0000 0.92660  0.57140  0.89080  Biso   1.000  C
  C380     1.0000 0.57340  0.42860  0.89080  Biso   1.000  C
  H325     1.0000 0.07000  0.07190  0.30210  Biso   1.000  H
  H326     1.0000 0.43000  0.92810  0.30210  Biso   1.000  H
  H327     1.0000 0.07000  0.42810  0.19790  Biso   1.000  H
  H328     1.0000 0.43000  0.57190  0.19790  Biso   1.000  H
  H329     1.0000 0.93000  0.92810  0.69790  Biso   1.000  H
  H330     1.0000 0.57000  0.07190  0.69790  Biso   1.000  H
  H331     1.0000 0.93000  0.57190  0.80210  Biso   1.000  H
  H332     1.0000 0.57000  0.42810  0.80210  Biso   1.000  H
  C381     1.0000 0.12420  0.08770  0.57380  Biso   1.000  C
  C382     1.0000 0.37580  0.91230  0.57380  Biso   1.000  C
  C383     1.0000 0.12420  0.41230  0.92620  Biso   1.000  C
  C384     1.0000 0.37580  0.58770  0.92620  Biso   1.000  C
  C385     1.0000 0.87580  0.91230  0.42620  Biso   1.000  C
  C386     1.0000 0.62420  0.08770  0.42620  Biso   1.000  C
  C387     1.0000 0.87580  0.58770  0.07380  Biso   1.000  C
  C388     1.0000 0.62420  0.41230  0.07380  Biso   1.000  C
  H333     1.0000 0.15550  0.09950  0.61660  Biso   1.000  H
  H334     1.0000 0.34450  0.90050  0.61660  Biso   1.000  H
  H335     1.0000 0.15550  0.40050  0.88340  Biso   1.000  H
  H336     1.0000 0.34450  0.59950  0.88340  Biso   1.000  H
  H337     1.0000 0.84450  0.90050  0.38340  Biso   1.000  H
  H338     1.0000 0.65550  0.09950  0.38340  Biso   1.000  H
  H339     1.0000 0.84450  0.59950  0.11660  Biso   1.000  H
  H340     1.0000 0.65550  0.40050  0.11660  Biso   1.000  H
  N29      1.0000 0.03440  0.05464  0.44590  Biso   1.000  N
  N30      1.0000 0.46560  0.94536  0.44590  Biso   1.000  N
  N31      1.0000 0.03440  0.44536  0.05410  Biso   1.000  N
  N32      1.0000 0.46560  0.55464  0.05410  Biso   1.000  N
  N33      1.0000 0.96560  0.94536  0.55410  Biso   1.000  N
  N34      1.0000 0.53440  0.05464  0.55410  Biso   1.000  N
  N35      1.0000 0.96560  0.55464  0.94590  Biso   1.000  N
  N36      1.0000 0.53440  0.44536  0.94590  Biso   1.000  N
  C389     1.0000 0.11880  0.08830  0.44670  Biso   1.000  C
  C390     1.0000 0.38120  0.91170  0.44670  Biso   1.000  C
  C391     1.0000 0.11880  0.41170  0.05330  Biso   1.000  C
  C392     1.0000 0.38120  0.58830  0.05330  Biso   1.000  C
  C393     1.0000 0.88120  0.91170  0.55330  Biso   1.000  C
  C394     1.0000 0.61880  0.08830  0.55330  Biso   1.000  C
  C395     1.0000 0.88120  0.58830  0.94670  Biso   1.000  C
  C396     1.0000 0.61880  0.41170  0.94670  Biso   1.000  C
  H341     1.0000 0.14630  0.10030  0.39940  Biso   1.000  H
  H342     1.0000 0.35370  0.89970  0.39940  Biso   1.000  H
  H343     1.0000 0.14630  0.39970  0.10060  Biso   1.000  H
  H344     1.0000 0.35370  0.60030  0.10060  Biso   1.000  H
  H345     1.0000 0.85370  0.89970  0.60060  Biso   1.000  H
  H346     1.0000 0.64630  0.10030  0.60060  Biso   1.000  H
  H347     1.0000 0.85370  0.60030  0.89940  Biso   1.000  H
  H348     1.0000 0.64630  0.39970  0.89940  Biso   1.000  H
  C397     1.0000 0.08620  0.07080  0.63750  Biso   1.000  C
  C398     1.0000 0.41380  0.92920  0.63750  Biso   1.000  C
  C399     1.0000 0.08620  0.42920  0.86250  Biso   1.000  C
  C400     1.0000 0.41380  0.57080  0.86250  Biso   1.000  C
  C401     1.0000 0.91380  0.92920  0.36250  Biso   1.000  C
  C402     1.0000 0.58620  0.07080  0.36250  Biso   1.000  C
  C403     1.0000 0.91380  0.57080  0.13750  Biso   1.000  C
  C404     1.0000 0.58620  0.42920  0.13750  Biso   1.000  C
  H349     1.0000 0.09190  0.06990  0.72580  Biso   1.000  H
  H350     1.0000 0.40810  0.93010  0.72580  Biso   1.000  H
  H351     1.0000 0.09190  0.43010  0.77420  Biso   1.000  H
  H352     1.0000 0.40810  0.56990  0.77420  Biso   1.000  H
  H353     1.0000 0.90810  0.93010  0.27420  Biso   1.000  H
  H354     1.0000 0.59190  0.06990  0.27420  Biso   1.000  H
  H355     1.0000 0.90810  0.56990  0.22580  Biso   1.000  H
  H356     1.0000 0.59190  0.43010  0.22580  Biso   1.000  H
