data_image0
_cell_length_a       21.384
_cell_length_b       25.493
_cell_length_c       18.919
_cell_angle_alpha    90
_cell_angle_beta     107.54
_cell_angle_gamma    90

_symmetry_space_group_name_H-M    "P 1"
_symmetry_int_tables_number       1

loop_
  _symmetry_equiv_pos_as_xyz
  'x, y, z'

loop_
  _atom_site_label
  _atom_site_occupancy
  _atom_site_fract_x
  _atom_site_fract_y
  _atom_site_fract_z
  _atom_site_thermal_displace_type
  _atom_site_B_iso_or_equiv
  _atom_site_type_symbol
  Cu1      1.0000 0.75000  0.75000  0.00000  Biso   1.000  Cu
  Cu2      1.0000 0.25000  0.25000  0.00000  Biso   1.000  Cu
  Cu3      1.0000 0.25000  0.75000  0.50000  Biso   1.000  Cu
  Cu4      1.0000 0.75000  0.25000  0.50000  Biso   1.000  Cu
  Cl1      1.0000 0.77784  0.68692  0.09022  Biso   1.000  Cl
  Cl2      1.0000 0.27784  0.18692  0.09022  Biso   1.000  Cl
  Cl3      1.0000 0.22216  0.68692  0.40978  Biso   1.000  Cl
  Cl4      1.0000 0.72216  0.18692  0.40978  Biso   1.000  Cl
  Cl5      1.0000 0.22216  0.31308  0.90978  Biso   1.000  Cl
  Cl6      1.0000 0.72216  0.81308  0.90978  Biso   1.000  Cl
  Cl7      1.0000 0.77784  0.31308  0.59022  Biso   1.000  Cl
  Cl8      1.0000 0.27784  0.81308  0.59022  Biso   1.000  Cl
  Cl9      1.0000 0.68546  0.68844  0.91080  Biso   1.000  Cl
  Cl10     1.0000 0.18546  0.18844  0.91080  Biso   1.000  Cl
  Cl11     1.0000 0.31454  0.68844  0.58920  Biso   1.000  Cl
  Cl12     1.0000 0.81454  0.18844  0.58920  Biso   1.000  Cl
  Cl13     1.0000 0.31454  0.31156  0.08920  Biso   1.000  Cl
  Cl14     1.0000 0.81454  0.81156  0.08920  Biso   1.000  Cl
  Cl15     1.0000 0.68546  0.31156  0.41080  Biso   1.000  Cl
  Cl16     1.0000 0.18546  0.81156  0.41080  Biso   1.000  Cl
  C1       1.0000 0.67590  0.79870  0.67701  Biso   1.000  C
  C2       1.0000 0.17590  0.29870  0.67701  Biso   1.000  C
  C3       1.0000 0.32410  0.79870  0.82299  Biso   1.000  C
  C4       1.0000 0.82410  0.29870  0.82299  Biso   1.000  C
  C5       1.0000 0.32410  0.20130  0.32299  Biso   1.000  C
  C6       1.0000 0.82410  0.70130  0.32299  Biso   1.000  C
  C7       1.0000 0.67590  0.20130  0.17701  Biso   1.000  C
  C8       1.0000 0.17590  0.70130  0.17701  Biso   1.000  C
  C9       1.0000 0.74753  0.91336  0.56987  Biso   1.000  C
  C10      1.0000 0.24753  0.41336  0.56987  Biso   1.000  C
  C11      1.0000 0.25247  0.91336  0.93013  Biso   1.000  C
  C12      1.0000 0.75247  0.41336  0.93013  Biso   1.000  C
  C13      1.0000 0.25247  0.08664  0.43013  Biso   1.000  C
  C14      1.0000 0.75247  0.58664  0.43013  Biso   1.000  C
  C15      1.0000 0.74753  0.08664  0.06987  Biso   1.000  C
  C16      1.0000 0.24753  0.58664  0.06987  Biso   1.000  C
  C17      1.0000 0.73892  0.89593  0.36190  Biso   1.000  C
  C18      1.0000 0.23892  0.39593  0.36190  Biso   1.000  C
  C19      1.0000 0.26108  0.89593  0.13810  Biso   1.000  C
  C20      1.0000 0.76108  0.39593  0.13810  Biso   1.000  C
  C21      1.0000 0.26108  0.10407  0.63810  Biso   1.000  C
  C22      1.0000 0.76108  0.60407  0.63810  Biso   1.000  C
  C23      1.0000 0.73892  0.10407  0.86190  Biso   1.000  C
  C24      1.0000 0.23892  0.60407  0.86190  Biso   1.000  C
  C25      1.0000 0.84694  0.72998  0.74446  Biso   1.000  C
  C26      1.0000 0.34694  0.22998  0.74446  Biso   1.000  C
  C27      1.0000 0.15306  0.72998  0.75554  Biso   1.000  C
  C28      1.0000 0.65306  0.22998  0.75554  Biso   1.000  C
  C29      1.0000 0.15306  0.27002  0.25554  Biso   1.000  C
  C30      1.0000 0.65306  0.77002  0.25554  Biso   1.000  C
  C31      1.0000 0.84694  0.27002  0.24446  Biso   1.000  C
  C32      1.0000 0.34694  0.77002  0.24446  Biso   1.000  C
  C33      1.0000 0.91713  0.84385  0.62885  Biso   1.000  C
  C34      1.0000 0.41713  0.34385  0.62885  Biso   1.000  C
  C35      1.0000 0.08287  0.84385  0.87115  Biso   1.000  C
  C36      1.0000 0.58287  0.34385  0.87115  Biso   1.000  C
  C37      1.0000 0.08287  0.15615  0.37115  Biso   1.000  C
  C38      1.0000 0.58287  0.65615  0.37115  Biso   1.000  C
  C39      1.0000 0.91713  0.15615  0.12885  Biso   1.000  C
  C40      1.0000 0.41713  0.65615  0.12885  Biso   1.000  C
  C41      1.0000 0.90706  0.83038  0.41947  Biso   1.000  C
  C42      1.0000 0.40706  0.33038  0.41947  Biso   1.000  C
  C43      1.0000 0.09294  0.83038  0.08053  Biso   1.000  C
  C44      1.0000 0.59294  0.33038  0.08053  Biso   1.000  C
  C45      1.0000 0.09294  0.16962  0.58053  Biso   1.000  C
  C46      1.0000 0.59294  0.66962  0.58053  Biso   1.000  C
  C47      1.0000 0.90706  0.16962  0.91947  Biso   1.000  C
  C48      1.0000 0.40706  0.66962  0.91947  Biso   1.000  C
  C49      1.0000 0.74757  0.74803  0.76776  Biso   1.000  C
  C50      1.0000 0.24757  0.24803  0.76776  Biso   1.000  C
  C51      1.0000 0.25243  0.74803  0.73224  Biso   1.000  C
  C52      1.0000 0.75243  0.24803  0.73224  Biso   1.000  C
  C53      1.0000 0.25243  0.25197  0.23224  Biso   1.000  C
  C54      1.0000 0.75243  0.75197  0.23224  Biso   1.000  C
  C55      1.0000 0.74757  0.25197  0.26776  Biso   1.000  C
  C56      1.0000 0.24757  0.75197  0.26776  Biso   1.000  C
  H1       1.0000 0.74150  0.74350  0.81670  Biso   1.000  H
  H2       1.0000 0.24150  0.24350  0.81670  Biso   1.000  H
  H3       1.0000 0.25850  0.74350  0.68330  Biso   1.000  H
  H4       1.0000 0.75850  0.24350  0.68330  Biso   1.000  H
  H5       1.0000 0.25850  0.25650  0.18330  Biso   1.000  H
  H6       1.0000 0.75850  0.75650  0.18330  Biso   1.000  H
  H7       1.0000 0.74150  0.25650  0.31670  Biso   1.000  H
  H8       1.0000 0.24150  0.75650  0.31670  Biso   1.000  H
  C57      1.0000 0.78082  0.79875  0.76265  Biso   1.000  C
  C58      1.0000 0.28082  0.29875  0.76265  Biso   1.000  C
  C59      1.0000 0.21918  0.79875  0.73735  Biso   1.000  C
  C60      1.0000 0.71918  0.29875  0.73735  Biso   1.000  C
  C61      1.0000 0.21918  0.20125  0.23735  Biso   1.000  C
  C62      1.0000 0.71918  0.70125  0.23735  Biso   1.000  C
  C63      1.0000 0.78082  0.20125  0.26265  Biso   1.000  C
  C64      1.0000 0.28082  0.70125  0.26265  Biso   1.000  C
  H9       1.0000 0.79160  0.81760  0.80990  Biso   1.000  H
  H10      1.0000 0.29160  0.31760  0.80990  Biso   1.000  H
  H11      1.0000 0.20840  0.81760  0.69010  Biso   1.000  H
  H12      1.0000 0.70840  0.31760  0.69010  Biso   1.000  H
  H13      1.0000 0.20840  0.18240  0.19010  Biso   1.000  H
  H14      1.0000 0.70840  0.68240  0.19010  Biso   1.000  H
  H15      1.0000 0.79160  0.18240  0.30990  Biso   1.000  H
  H16      1.0000 0.29160  0.68240  0.30990  Biso   1.000  H
  C65      1.0000 0.84692  0.89906  0.66341  Biso   1.000  C
  C66      1.0000 0.34692  0.39906  0.66341  Biso   1.000  C
  C67      1.0000 0.15308  0.89906  0.83659  Biso   1.000  C
  C68      1.0000 0.65308  0.39906  0.83659  Biso   1.000  C
  C69      1.0000 0.15308  0.10094  0.33659  Biso   1.000  C
  C70      1.0000 0.65308  0.60094  0.33659  Biso   1.000  C
  C71      1.0000 0.84692  0.10094  0.16341  Biso   1.000  C
  C72      1.0000 0.34692  0.60094  0.16341  Biso   1.000  C
  H17      1.0000 0.86330  0.92210  0.70650  Biso   1.000  H
  H18      1.0000 0.36330  0.42210  0.70650  Biso   1.000  H
  H19      1.0000 0.13670  0.92210  0.79350  Biso   1.000  H
  H20      1.0000 0.63670  0.42210  0.79350  Biso   1.000  H
  H21      1.0000 0.13670  0.07790  0.29350  Biso   1.000  H
  H22      1.0000 0.63670  0.57790  0.29350  Biso   1.000  H
  H23      1.0000 0.86330  0.07790  0.20650  Biso   1.000  H
  H24      1.0000 0.36330  0.57790  0.20650  Biso   1.000  H
  C73      1.0000 0.85994  0.92247  0.59471  Biso   1.000  C
  C74      1.0000 0.35994  0.42247  0.59471  Biso   1.000  C
  C75      1.0000 0.14006  0.92247  0.90529  Biso   1.000  C
  C76      1.0000 0.64006  0.42247  0.90529  Biso   1.000  C
  C77      1.0000 0.14006  0.07753  0.40529  Biso   1.000  C
  C78      1.0000 0.64006  0.57753  0.40529  Biso   1.000  C
  C79      1.0000 0.85994  0.07753  0.09471  Biso   1.000  C
  C80      1.0000 0.35994  0.57753  0.09471  Biso   1.000  C
  H25      1.0000 0.88140  0.95680  0.60480  Biso   1.000  H
  H26      1.0000 0.38140  0.45680  0.60480  Biso   1.000  H
  H27      1.0000 0.11860  0.95680  0.89520  Biso   1.000  H
  H28      1.0000 0.61860  0.45680  0.89520  Biso   1.000  H
  H29      1.0000 0.11860  0.04320  0.39520  Biso   1.000  H
  H30      1.0000 0.61860  0.54320  0.39520  Biso   1.000  H
  H31      1.0000 0.88140  0.04320  0.10480  Biso   1.000  H
  H32      1.0000 0.38140  0.54320  0.10480  Biso   1.000  H
  C81      1.0000 0.85372  0.90771  0.39725  Biso   1.000  C
  C82      1.0000 0.35372  0.40771  0.39725  Biso   1.000  C
  C83      1.0000 0.14628  0.90771  0.10275  Biso   1.000  C
  C84      1.0000 0.64628  0.40771  0.10275  Biso   1.000  C
  C85      1.0000 0.14628  0.09229  0.60275  Biso   1.000  C
  C86      1.0000 0.64628  0.59229  0.60275  Biso   1.000  C
  C87      1.0000 0.85372  0.09229  0.89725  Biso   1.000  C
  C88      1.0000 0.35372  0.59229  0.89725  Biso   1.000  C
  H33      1.0000 0.87480  0.94040  0.38930  Biso   1.000  H
  H34      1.0000 0.37480  0.44040  0.38930  Biso   1.000  H
  H35      1.0000 0.12520  0.94040  0.11070  Biso   1.000  H
  H36      1.0000 0.62520  0.44040  0.11070  Biso   1.000  H
  H37      1.0000 0.12520  0.05960  0.61070  Biso   1.000  H
  H38      1.0000 0.62520  0.55960  0.61070  Biso   1.000  H
  H39      1.0000 0.87480  0.05960  0.88930  Biso   1.000  H
  H40      1.0000 0.37480  0.55960  0.88930  Biso   1.000  H
  C89      1.0000 0.83178  0.87446  0.32666  Biso   1.000  C
  C90      1.0000 0.33178  0.37446  0.32666  Biso   1.000  C
  C91      1.0000 0.16822  0.87446  0.17334  Biso   1.000  C
  C92      1.0000 0.66822  0.37446  0.17334  Biso   1.000  C
  C93      1.0000 0.16822  0.12554  0.67334  Biso   1.000  C
  C94      1.0000 0.66822  0.62554  0.67334  Biso   1.000  C
  C95      1.0000 0.83178  0.12554  0.82666  Biso   1.000  C
  C96      1.0000 0.33178  0.62554  0.82666  Biso   1.000  C
  H41      1.0000 0.84310  0.89140  0.28560  Biso   1.000  H
  H42      1.0000 0.34310  0.39140  0.28560  Biso   1.000  H
  H43      1.0000 0.15690  0.89140  0.21440  Biso   1.000  H
  H44      1.0000 0.65690  0.39140  0.21440  Biso   1.000  H
  H45      1.0000 0.15690  0.10860  0.71440  Biso   1.000  H
  H46      1.0000 0.65690  0.60860  0.71440  Biso   1.000  H
  H47      1.0000 0.84310  0.10860  0.78560  Biso   1.000  H
  H48      1.0000 0.34310  0.60860  0.78560  Biso   1.000  H
  C97      1.0000 0.63109  0.71730  0.70275  Biso   1.000  C
  C98      1.0000 0.13109  0.21730  0.70275  Biso   1.000  C
  C99      1.0000 0.36891  0.71730  0.79725  Biso   1.000  C
  C100     1.0000 0.86891  0.21730  0.79725  Biso   1.000  C
  C101     1.0000 0.36891  0.28270  0.29725  Biso   1.000  C
  C102     1.0000 0.86891  0.78270  0.29725  Biso   1.000  C
  C103     1.0000 0.63109  0.28270  0.20275  Biso   1.000  C
  C104     1.0000 0.13109  0.78270  0.20275  Biso   1.000  C
  H49      1.0000 0.59070  0.73690  0.68330  Biso   1.000  H
  H50      1.0000 0.09070  0.23690  0.68330  Biso   1.000  H
  H51      1.0000 0.40930  0.73690  0.81670  Biso   1.000  H
  H52      1.0000 0.90930  0.23690  0.81670  Biso   1.000  H
  H53      1.0000 0.40930  0.26310  0.31670  Biso   1.000  H
  H54      1.0000 0.90930  0.76310  0.31670  Biso   1.000  H
  H55      1.0000 0.59070  0.26310  0.18330  Biso   1.000  H
  H56      1.0000 0.09070  0.76310  0.18330  Biso   1.000  H
  H57      1.0000 0.63230  0.70370  0.75100  Biso   1.000  H
  H58      1.0000 0.13230  0.20370  0.75100  Biso   1.000  H
  H59      1.0000 0.36770  0.70370  0.74900  Biso   1.000  H
  H60      1.0000 0.86770  0.20370  0.74900  Biso   1.000  H
  H61      1.0000 0.36770  0.29630  0.24900  Biso   1.000  H
  H62      1.0000 0.86770  0.79630  0.24900  Biso   1.000  H
  H63      1.0000 0.63230  0.29630  0.25100  Biso   1.000  H
  H64      1.0000 0.13230  0.79630  0.25100  Biso   1.000  H
  C105     1.0000 0.73663  0.88208  0.69133  Biso   1.000  C
  C106     1.0000 0.23663  0.38208  0.69133  Biso   1.000  C
  C107     1.0000 0.26337  0.88208  0.80867  Biso   1.000  C
  C108     1.0000 0.76337  0.38208  0.80867  Biso   1.000  C
  C109     1.0000 0.26337  0.11792  0.30867  Biso   1.000  C
  C110     1.0000 0.76337  0.61792  0.30867  Biso   1.000  C
  C111     1.0000 0.73663  0.11792  0.19133  Biso   1.000  C
  C112     1.0000 0.23663  0.61792  0.19133  Biso   1.000  C
  H65      1.0000 0.75610  0.90000  0.73800  Biso   1.000  H
  H66      1.0000 0.25610  0.40000  0.73800  Biso   1.000  H
  H67      1.0000 0.24390  0.90000  0.76200  Biso   1.000  H
  H68      1.0000 0.74390  0.40000  0.76200  Biso   1.000  H
  H69      1.0000 0.24390  0.10000  0.26200  Biso   1.000  H
  H70      1.0000 0.74390  0.60000  0.26200  Biso   1.000  H
  H71      1.0000 0.75610  0.10000  0.23800  Biso   1.000  H
  H72      1.0000 0.25610  0.60000  0.23800  Biso   1.000  H
  H73      1.0000 0.69240  0.89550  0.67060  Biso   1.000  H
  H74      1.0000 0.19240  0.39550  0.67060  Biso   1.000  H
  H75      1.0000 0.30760  0.89550  0.82940  Biso   1.000  H
  H76      1.0000 0.80760  0.39550  0.82940  Biso   1.000  H
  H77      1.0000 0.30760  0.10450  0.32940  Biso   1.000  H
  H78      1.0000 0.80760  0.60450  0.32940  Biso   1.000  H
  H79      1.0000 0.69240  0.10450  0.17060  Biso   1.000  H
  H80      1.0000 0.19240  0.60450  0.17060  Biso   1.000  H
  C113     1.0000 0.78244  0.95207  0.47121  Biso   1.000  C
  C114     1.0000 0.28244  0.45207  0.47121  Biso   1.000  C
  C115     1.0000 0.21756  0.95207  0.02879  Biso   1.000  C
  C116     1.0000 0.71756  0.45207  0.02879  Biso   1.000  C
  C117     1.0000 0.21756  0.04793  0.52879  Biso   1.000  C
  C118     1.0000 0.71756  0.54793  0.52879  Biso   1.000  C
  C119     1.0000 0.78244  0.04793  0.97121  Biso   1.000  C
  C120     1.0000 0.28244  0.54793  0.97121  Biso   1.000  C
  H81      1.0000 0.73820  0.96590  0.45750  Biso   1.000  H
  H82      1.0000 0.23820  0.46590  0.45750  Biso   1.000  H
  H83      1.0000 0.26180  0.96590  0.04250  Biso   1.000  H
  H84      1.0000 0.76180  0.46590  0.04250  Biso   1.000  H
  H85      1.0000 0.26180  0.03410  0.54250  Biso   1.000  H
  H86      1.0000 0.76180  0.53410  0.54250  Biso   1.000  H
  H87      1.0000 0.73820  0.03410  0.95750  Biso   1.000  H
  H88      1.0000 0.23820  0.53410  0.95750  Biso   1.000  H
  H89      1.0000 0.81240  0.98140  0.47610  Biso   1.000  H
  H90      1.0000 0.31240  0.48140  0.47610  Biso   1.000  H
  H91      1.0000 0.18760  0.98140  0.02390  Biso   1.000  H
  H92      1.0000 0.68760  0.48140  0.02390  Biso   1.000  H
  H93      1.0000 0.18760  0.01860  0.52390  Biso   1.000  H
  H94      1.0000 0.68760  0.51860  0.52390  Biso   1.000  H
  H95      1.0000 0.81240  0.01860  0.97610  Biso   1.000  H
  H96      1.0000 0.31240  0.51860  0.97610  Biso   1.000  H
  C121     1.0000 0.71828  0.84865  0.24096  Biso   1.000  C
  C122     1.0000 0.21828  0.34865  0.24096  Biso   1.000  C
  C123     1.0000 0.28172  0.84865  0.25904  Biso   1.000  C
  C124     1.0000 0.78172  0.34865  0.25904  Biso   1.000  C
  C125     1.0000 0.28172  0.15135  0.75904  Biso   1.000  C
  C126     1.0000 0.78172  0.65135  0.75904  Biso   1.000  C
  C127     1.0000 0.71828  0.15135  0.74096  Biso   1.000  C
  C128     1.0000 0.21828  0.65135  0.74096  Biso   1.000  C
  H97      1.0000 0.67650  0.86680  0.22860  Biso   1.000  H
  H98      1.0000 0.17650  0.36680  0.22860  Biso   1.000  H
  H99      1.0000 0.32350  0.86680  0.27140  Biso   1.000  H
  H100     1.0000 0.82350  0.36680  0.27140  Biso   1.000  H
  H101     1.0000 0.32350  0.13320  0.77140  Biso   1.000  H
  H102     1.0000 0.82350  0.63320  0.77140  Biso   1.000  H
  H103     1.0000 0.67650  0.13320  0.72860  Biso   1.000  H
  H104     1.0000 0.17650  0.63320  0.72860  Biso   1.000  H
  H105     1.0000 0.73800  0.85550  0.20190  Biso   1.000  H
  H106     1.0000 0.23800  0.35550  0.20190  Biso   1.000  H
  H107     1.0000 0.26200  0.85550  0.29810  Biso   1.000  H
  H108     1.0000 0.76200  0.35550  0.29810  Biso   1.000  H
  H109     1.0000 0.26200  0.14450  0.79810  Biso   1.000  H
  H110     1.0000 0.76200  0.64450  0.79810  Biso   1.000  H
  H111     1.0000 0.73800  0.14450  0.70190  Biso   1.000  H
  H112     1.0000 0.23800  0.64450  0.70190  Biso   1.000  H
  C129     1.0000 0.89358  0.81667  0.74417  Biso   1.000  C
  C130     1.0000 0.39358  0.31667  0.74417  Biso   1.000  C
  C131     1.0000 0.10642  0.81667  0.75583  Biso   1.000  C
  C132     1.0000 0.60642  0.31667  0.75583  Biso   1.000  C
  C133     1.0000 0.10642  0.18333  0.25583  Biso   1.000  C
  C134     1.0000 0.60642  0.68333  0.25583  Biso   1.000  C
  C135     1.0000 0.89358  0.18333  0.24417  Biso   1.000  C
  C136     1.0000 0.39358  0.68333  0.24417  Biso   1.000  C
  H113     1.0000 0.93160  0.79470  0.74820  Biso   1.000  H
  H114     1.0000 0.43160  0.29470  0.74820  Biso   1.000  H
  H115     1.0000 0.06840  0.79470  0.75180  Biso   1.000  H
  H116     1.0000 0.56840  0.29470  0.75180  Biso   1.000  H
  H117     1.0000 0.06840  0.20530  0.25180  Biso   1.000  H
  H118     1.0000 0.56840  0.70530  0.25180  Biso   1.000  H
  H119     1.0000 0.93160  0.20530  0.24820  Biso   1.000  H
  H120     1.0000 0.43160  0.70530  0.24820  Biso   1.000  H
  H121     1.0000 0.90390  0.83950  0.78720  Biso   1.000  H
  H122     1.0000 0.40390  0.33950  0.78720  Biso   1.000  H
  H123     1.0000 0.09610  0.83950  0.71280  Biso   1.000  H
  H124     1.0000 0.59610  0.33950  0.71280  Biso   1.000  H
  H125     1.0000 0.09610  0.16050  0.21280  Biso   1.000  H
  H126     1.0000 0.59610  0.66050  0.21280  Biso   1.000  H
  H127     1.0000 0.90390  0.16050  0.28720  Biso   1.000  H
  H128     1.0000 0.40390  0.66050  0.28720  Biso   1.000  H
  C137     1.0000 0.93703  0.88992  0.52370  Biso   1.000  C
  C138     1.0000 0.43703  0.38992  0.52370  Biso   1.000  C
  C139     1.0000 0.06297  0.88992  0.97630  Biso   1.000  C
  C140     1.0000 0.56297  0.38992  0.97630  Biso   1.000  C
  C141     1.0000 0.06297  0.11008  0.47630  Biso   1.000  C
  C142     1.0000 0.56297  0.61008  0.47630  Biso   1.000  C
  C143     1.0000 0.93703  0.11008  0.02370  Biso   1.000  C
  C144     1.0000 0.43703  0.61008  0.02370  Biso   1.000  C
  H129     1.0000 0.97740  0.86980  0.53900  Biso   1.000  H
  H130     1.0000 0.47740  0.36980  0.53900  Biso   1.000  H
  H131     1.0000 0.02260  0.86980  0.96100  Biso   1.000  H
  H132     1.0000 0.52260  0.36980  0.96100  Biso   1.000  H
  H133     1.0000 0.02260  0.13020  0.46100  Biso   1.000  H
  H134     1.0000 0.52260  0.63020  0.46100  Biso   1.000  H
  H135     1.0000 0.97740  0.13020  0.03900  Biso   1.000  H
  H136     1.0000 0.47740  0.63020  0.03900  Biso   1.000  H
  H137     1.0000 0.94870  0.92660  0.52270  Biso   1.000  H
  H138     1.0000 0.44870  0.42660  0.52270  Biso   1.000  H
  H139     1.0000 0.05130  0.92660  0.97730  Biso   1.000  H
  H140     1.0000 0.55130  0.42660  0.97730  Biso   1.000  H
  H141     1.0000 0.05130  0.07340  0.47730  Biso   1.000  H
  H142     1.0000 0.55130  0.57340  0.47730  Biso   1.000  H
  H143     1.0000 0.94870  0.07340  0.02270  Biso   1.000  H
  H144     1.0000 0.44870  0.57340  0.02270  Biso   1.000  H
  C145     1.0000 0.65328  0.81905  0.03558  Biso   1.000  C
  C146     1.0000 0.15328  0.31905  0.03558  Biso   1.000  C
  C147     1.0000 0.34672  0.81905  0.46442  Biso   1.000  C
  C148     1.0000 0.84672  0.31905  0.46442  Biso   1.000  C
  C149     1.0000 0.34672  0.18095  0.96442  Biso   1.000  C
  C150     1.0000 0.84672  0.68095  0.96442  Biso   1.000  C
  C151     1.0000 0.65328  0.18095  0.53558  Biso   1.000  C
  C152     1.0000 0.15328  0.68095  0.53558  Biso   1.000  C
  H145     1.0000 0.67890  0.84520  0.02400  Biso   1.000  H
  H146     1.0000 0.17890  0.34520  0.02400  Biso   1.000  H
  H147     1.0000 0.32110  0.84520  0.47600  Biso   1.000  H
  H148     1.0000 0.82110  0.34520  0.47600  Biso   1.000  H
  H149     1.0000 0.32110  0.15480  0.97600  Biso   1.000  H
  H150     1.0000 0.82110  0.65480  0.97600  Biso   1.000  H
  H151     1.0000 0.67890  0.15480  0.52400  Biso   1.000  H
  H152     1.0000 0.17890  0.65480  0.52400  Biso   1.000  H
  C153     1.0000 0.59883  0.83416  0.05636  Biso   1.000  C
  C154     1.0000 0.09883  0.33416  0.05636  Biso   1.000  C
  C155     1.0000 0.40117  0.83416  0.44364  Biso   1.000  C
  C156     1.0000 0.90117  0.33416  0.44364  Biso   1.000  C
  C157     1.0000 0.40117  0.16584  0.94364  Biso   1.000  C
  C158     1.0000 0.90117  0.66584  0.94364  Biso   1.000  C
  C159     1.0000 0.59883  0.16584  0.55636  Biso   1.000  C
  C160     1.0000 0.09883  0.66584  0.55636  Biso   1.000  C
  H153     1.0000 0.58850  0.86920  0.06060  Biso   1.000  H
  H154     1.0000 0.08850  0.36920  0.06060  Biso   1.000  H
  H155     1.0000 0.41150  0.86920  0.43940  Biso   1.000  H
  H156     1.0000 0.91150  0.36920  0.43940  Biso   1.000  H
  H157     1.0000 0.41150  0.13080  0.93940  Biso   1.000  H
  H158     1.0000 0.91150  0.63080  0.93940  Biso   1.000  H
  H159     1.0000 0.58850  0.13080  0.56060  Biso   1.000  H
  H160     1.0000 0.08850  0.63080  0.56060  Biso   1.000  H
  C161     1.0000 0.55970  0.79254  0.07087  Biso   1.000  C
  C162     1.0000 0.05970  0.29254  0.07087  Biso   1.000  C
  C163     1.0000 0.44030  0.79254  0.42913  Biso   1.000  C
  C164     1.0000 0.94030  0.29254  0.42913  Biso   1.000  C
  C165     1.0000 0.44030  0.20746  0.92913  Biso   1.000  C
  C166     1.0000 0.94030  0.70746  0.92913  Biso   1.000  C
  C167     1.0000 0.55970  0.20746  0.57087  Biso   1.000  C
  C168     1.0000 0.05970  0.70746  0.57087  Biso   1.000  C
  C169     1.0000 0.57797  0.74260  0.06988  Biso   1.000  C
  C170     1.0000 0.07797  0.24260  0.06988  Biso   1.000  C
  C171     1.0000 0.42203  0.74260  0.43012  Biso   1.000  C
  C172     1.0000 0.92203  0.24260  0.43012  Biso   1.000  C
  C173     1.0000 0.42203  0.25740  0.93012  Biso   1.000  C
  C174     1.0000 0.92203  0.75740  0.93012  Biso   1.000  C
  C175     1.0000 0.57797  0.25740  0.56988  Biso   1.000  C
  C176     1.0000 0.07797  0.75740  0.56988  Biso   1.000  C
  H161     1.0000 0.55370  0.71570  0.08220  Biso   1.000  H
  H162     1.0000 0.05370  0.21570  0.08220  Biso   1.000  H
  H163     1.0000 0.44630  0.71570  0.41780  Biso   1.000  H
  H164     1.0000 0.94630  0.21570  0.41780  Biso   1.000  H
  H165     1.0000 0.44630  0.28430  0.91780  Biso   1.000  H
  H166     1.0000 0.94630  0.78430  0.91780  Biso   1.000  H
  H167     1.0000 0.55370  0.28430  0.58220  Biso   1.000  H
  H168     1.0000 0.05370  0.78430  0.58220  Biso   1.000  H
  C177     1.0000 0.63433  0.73165  0.04991  Biso   1.000  C
  C178     1.0000 0.13433  0.23165  0.04991  Biso   1.000  C
  C179     1.0000 0.36567  0.73165  0.45009  Biso   1.000  C
  C180     1.0000 0.86567  0.23165  0.45009  Biso   1.000  C
  C181     1.0000 0.36567  0.26835  0.95009  Biso   1.000  C
  C182     1.0000 0.86567  0.76835  0.95009  Biso   1.000  C
  C183     1.0000 0.63433  0.26835  0.54991  Biso   1.000  C
  C184     1.0000 0.13433  0.76835  0.54991  Biso   1.000  C
  H169     1.0000 0.64720  0.69680  0.04940  Biso   1.000  H
  H170     1.0000 0.14720  0.19680  0.04940  Biso   1.000  H
  H171     1.0000 0.35280  0.69680  0.45060  Biso   1.000  H
  H172     1.0000 0.85280  0.19680  0.45060  Biso   1.000  H
  H173     1.0000 0.35280  0.30320  0.95060  Biso   1.000  H
  H174     1.0000 0.85280  0.80320  0.95060  Biso   1.000  H
  H175     1.0000 0.64720  0.30320  0.54940  Biso   1.000  H
  H176     1.0000 0.14720  0.80320  0.54940  Biso   1.000  H
  C185     1.0000 0.49901  0.81122  0.09640  Biso   1.000  C
  C186     1.0000 0.99901  0.31122  0.09640  Biso   1.000  C
  C187     1.0000 0.50099  0.81122  0.40360  Biso   1.000  C
  C188     1.0000 0.00099  0.31122  0.40360  Biso   1.000  C
  C189     1.0000 0.50099  0.18878  0.90360  Biso   1.000  C
  C190     1.0000 0.00099  0.68878  0.90360  Biso   1.000  C
  C191     1.0000 0.49901  0.18878  0.59640  Biso   1.000  C
  C192     1.0000 0.99901  0.68878  0.59640  Biso   1.000  C
  H177     1.0000 0.50160  0.79650  0.14450  Biso   1.000  H
  H178     1.0000 0.00160  0.29650  0.14450  Biso   1.000  H
  H179     1.0000 0.49840  0.79650  0.35550  Biso   1.000  H
  H180     1.0000 0.99840  0.29650  0.35550  Biso   1.000  H
  H181     1.0000 0.49840  0.20350  0.85550  Biso   1.000  H
  H182     1.0000 0.99840  0.70350  0.85550  Biso   1.000  H
  H183     1.0000 0.50160  0.20350  0.64450  Biso   1.000  H
  H184     1.0000 0.00160  0.70350  0.64450  Biso   1.000  H
  H185     1.0000 0.49850  0.84920  0.10000  Biso   1.000  H
  H186     1.0000 0.99850  0.34920  0.10000  Biso   1.000  H
  H187     1.0000 0.50150  0.84920  0.40000  Biso   1.000  H
  H188     1.0000 0.00150  0.34920  0.40000  Biso   1.000  H
  H189     1.0000 0.50150  0.15080  0.90000  Biso   1.000  H
  H190     1.0000 0.00150  0.65080  0.90000  Biso   1.000  H
  H191     1.0000 0.49850  0.15080  0.60000  Biso   1.000  H
  H192     1.0000 0.99850  0.65080  0.60000  Biso   1.000  H
  C193     1.0000 0.38001  0.80877  0.06348  Biso   1.000  C
  C194     1.0000 0.88001  0.30877  0.06348  Biso   1.000  C
  C195     1.0000 0.61999  0.80877  0.43652  Biso   1.000  C
  C196     1.0000 0.11999  0.30877  0.43652  Biso   1.000  C
  C197     1.0000 0.61999  0.19123  0.93652  Biso   1.000  C
  C198     1.0000 0.11999  0.69123  0.93652  Biso   1.000  C
  C199     1.0000 0.38001  0.19123  0.56348  Biso   1.000  C
  C200     1.0000 0.88001  0.69123  0.56348  Biso   1.000  C
  H193     1.0000 0.37390  0.84640  0.05840  Biso   1.000  H
  H194     1.0000 0.87390  0.34640  0.05840  Biso   1.000  H
  H195     1.0000 0.62610  0.84640  0.44160  Biso   1.000  H
  H196     1.0000 0.12610  0.34640  0.44160  Biso   1.000  H
  H197     1.0000 0.62610  0.15360  0.94160  Biso   1.000  H
  H198     1.0000 0.12610  0.65360  0.94160  Biso   1.000  H
  H199     1.0000 0.37390  0.15360  0.55840  Biso   1.000  H
  H200     1.0000 0.87390  0.65360  0.55840  Biso   1.000  H
  H201     1.0000 0.38720  0.79950  0.11500  Biso   1.000  H
  H202     1.0000 0.88720  0.29950  0.11500  Biso   1.000  H
  H203     1.0000 0.61280  0.79950  0.38500  Biso   1.000  H
  H204     1.0000 0.11280  0.29950  0.38500  Biso   1.000  H
  H205     1.0000 0.61280  0.20050  0.88500  Biso   1.000  H
  H206     1.0000 0.11280  0.70050  0.88500  Biso   1.000  H
  H207     1.0000 0.38720  0.20050  0.61500  Biso   1.000  H
  H208     1.0000 0.88720  0.70050  0.61500  Biso   1.000  H
  C201     1.0000 0.31680  0.77916  0.01230  Biso   1.000  C
  C202     1.0000 0.81680  0.27916  0.01230  Biso   1.000  C
  C203     1.0000 0.68320  0.77916  0.48770  Biso   1.000  C
  C204     1.0000 0.18320  0.27916  0.48770  Biso   1.000  C
  C205     1.0000 0.68320  0.22084  0.98770  Biso   1.000  C
  C206     1.0000 0.18320  0.72084  0.98770  Biso   1.000  C
  C207     1.0000 0.31680  0.22084  0.51230  Biso   1.000  C
  C208     1.0000 0.81680  0.72084  0.51230  Biso   1.000  C
  H209     1.0000 0.32740  0.74280  0.00890  Biso   1.000  H
  H210     1.0000 0.82740  0.24280  0.00890  Biso   1.000  H
  H211     1.0000 0.67260  0.74280  0.49110  Biso   1.000  H
  H212     1.0000 0.17260  0.24280  0.49110  Biso   1.000  H
  H213     1.0000 0.67260  0.25720  0.99110  Biso   1.000  H
  H214     1.0000 0.17260  0.75720  0.99110  Biso   1.000  H
  H215     1.0000 0.32740  0.25720  0.50890  Biso   1.000  H
  H216     1.0000 0.82740  0.75720  0.50890  Biso   1.000  H
  H217     1.0000 0.30560  0.79370  0.96320  Biso   1.000  H
  H218     1.0000 0.80560  0.29370  0.96320  Biso   1.000  H
  H219     1.0000 0.69440  0.79370  0.53680  Biso   1.000  H
  H220     1.0000 0.19440  0.29370  0.53680  Biso   1.000  H
  H221     1.0000 0.69440  0.20630  0.03680  Biso   1.000  H
  H222     1.0000 0.19440  0.70630  0.03680  Biso   1.000  H
  H223     1.0000 0.30560  0.20630  0.46320  Biso   1.000  H
  H224     1.0000 0.80560  0.70630  0.46320  Biso   1.000  H
  H225     1.0000 0.31780  0.78430  0.96230  Biso   1.000  H
  H226     1.0000 0.81780  0.28430  0.96230  Biso   1.000  H
  H227     1.0000 0.68220  0.78430  0.53770  Biso   1.000  H
  H228     1.0000 0.18220  0.28430  0.53770  Biso   1.000  H
  H229     1.0000 0.68220  0.21570  0.03770  Biso   1.000  H
  H230     1.0000 0.18220  0.71570  0.03770  Biso   1.000  H
  H231     1.0000 0.31780  0.21570  0.46230  Biso   1.000  H
  H232     1.0000 0.81780  0.71570  0.46230  Biso   1.000  H
  H233     1.0000 0.27990  0.79880  0.01670  Biso   1.000  H
  H234     1.0000 0.77990  0.29880  0.01670  Biso   1.000  H
  H235     1.0000 0.72010  0.79880  0.48330  Biso   1.000  H
  H236     1.0000 0.22010  0.29880  0.48330  Biso   1.000  H
  H237     1.0000 0.72010  0.20120  0.98330  Biso   1.000  H
  H238     1.0000 0.22010  0.70120  0.98330  Biso   1.000  H
  H239     1.0000 0.27990  0.20120  0.51670  Biso   1.000  H
  H240     1.0000 0.77990  0.70120  0.51670  Biso   1.000  H
  C209     1.0000 0.29990  0.72600  0.01630  Biso   1.000  C
  C210     1.0000 0.79990  0.22600  0.01630  Biso   1.000  C
  C211     1.0000 0.70010  0.72600  0.48370  Biso   1.000  C
  C212     1.0000 0.20010  0.22600  0.48370  Biso   1.000  C
  C213     1.0000 0.70010  0.27400  0.98370  Biso   1.000  C
  C214     1.0000 0.20010  0.77400  0.98370  Biso   1.000  C
  C215     1.0000 0.29990  0.27400  0.51630  Biso   1.000  C
  C216     1.0000 0.79990  0.77400  0.51630  Biso   1.000  C
  H241     1.0000 0.29560  0.71830  0.06480  Biso   1.000  H
  H242     1.0000 0.79560  0.21830  0.06480  Biso   1.000  H
  H243     1.0000 0.70440  0.71830  0.43520  Biso   1.000  H
  H244     1.0000 0.20440  0.21830  0.43520  Biso   1.000  H
  H245     1.0000 0.70440  0.28170  0.93520  Biso   1.000  H
  H246     1.0000 0.20440  0.78170  0.93520  Biso   1.000  H
  H247     1.0000 0.29560  0.28170  0.56480  Biso   1.000  H
  H248     1.0000 0.79560  0.78170  0.56480  Biso   1.000  H
  H249     1.0000 0.33370  0.70350  0.00830  Biso   1.000  H
  H250     1.0000 0.83370  0.20350  0.00830  Biso   1.000  H
  H251     1.0000 0.66630  0.70350  0.49170  Biso   1.000  H
  H252     1.0000 0.16630  0.20350  0.49170  Biso   1.000  H
  H253     1.0000 0.66630  0.29650  0.99170  Biso   1.000  H
  H254     1.0000 0.16630  0.79650  0.99170  Biso   1.000  H
  H255     1.0000 0.33370  0.29650  0.50830  Biso   1.000  H
  H256     1.0000 0.83370  0.79650  0.50830  Biso   1.000  H
  C217     1.0000 0.26030  0.78280  0.03920  Biso   1.000  C
  C218     1.0000 0.76030  0.28280  0.03920  Biso   1.000  C
  C219     1.0000 0.73970  0.78280  0.46080  Biso   1.000  C
  C220     1.0000 0.23970  0.28280  0.46080  Biso   1.000  C
  C221     1.0000 0.73970  0.21720  0.96080  Biso   1.000  C
  C222     1.0000 0.23970  0.71720  0.96080  Biso   1.000  C
  C223     1.0000 0.26030  0.21720  0.53920  Biso   1.000  C
  C224     1.0000 0.76030  0.71720  0.53920  Biso   1.000  C
  H257     1.0000 0.27340  0.81880  0.03820  Biso   1.000  H
  H258     1.0000 0.77340  0.31880  0.03820  Biso   1.000  H
  H259     1.0000 0.72660  0.81880  0.46180  Biso   1.000  H
  H260     1.0000 0.22660  0.31880  0.46180  Biso   1.000  H
  H261     1.0000 0.72660  0.18120  0.96180  Biso   1.000  H
  H262     1.0000 0.22660  0.68120  0.96180  Biso   1.000  H
  H263     1.0000 0.27340  0.18120  0.53820  Biso   1.000  H
  H264     1.0000 0.77340  0.68120  0.53820  Biso   1.000  H
  H265     1.0000 0.25580  0.77480  0.08700  Biso   1.000  H
  H266     1.0000 0.75580  0.27480  0.08700  Biso   1.000  H
  H267     1.0000 0.74420  0.77480  0.41300  Biso   1.000  H
  H268     1.0000 0.24420  0.27480  0.41300  Biso   1.000  H
  H269     1.0000 0.74420  0.22520  0.91300  Biso   1.000  H
  H270     1.0000 0.24420  0.72520  0.91300  Biso   1.000  H
  H271     1.0000 0.25580  0.22520  0.58700  Biso   1.000  H
  H272     1.0000 0.75580  0.72520  0.58700  Biso   1.000  H
  N1       1.0000 0.68536  0.75117  0.71030  Biso   1.000  N
  N2       1.0000 0.18536  0.25117  0.71030  Biso   1.000  N
  N3       1.0000 0.31464  0.75117  0.78970  Biso   1.000  N
  N4       1.0000 0.81464  0.25117  0.78970  Biso   1.000  N
  N5       1.0000 0.31464  0.24883  0.28970  Biso   1.000  N
  N6       1.0000 0.81464  0.74883  0.28970  Biso   1.000  N
  N7       1.0000 0.68536  0.24883  0.21030  Biso   1.000  N
  N8       1.0000 0.18536  0.74883  0.21030  Biso   1.000  N
  N9       1.0000 0.73301  0.82736  0.70585  Biso   1.000  N
  N10      1.0000 0.23301  0.32736  0.70585  Biso   1.000  N
  N11      1.0000 0.26699  0.82736  0.79415  Biso   1.000  N
  N12      1.0000 0.76699  0.32736  0.79415  Biso   1.000  N
  N13      1.0000 0.26699  0.17264  0.29415  Biso   1.000  N
  N14      1.0000 0.76699  0.67264  0.29415  Biso   1.000  N
  N15      1.0000 0.73301  0.17264  0.20585  Biso   1.000  N
  N16      1.0000 0.23301  0.67264  0.20585  Biso   1.000  N
  N17      1.0000 0.77405  0.89477  0.64120  Biso   1.000  N
  N18      1.0000 0.27405  0.39477  0.64120  Biso   1.000  N
  N19      1.0000 0.22595  0.89477  0.85880  Biso   1.000  N
  N20      1.0000 0.72595  0.39477  0.85880  Biso   1.000  N
  N21      1.0000 0.22595  0.10523  0.35880  Biso   1.000  N
  N22      1.0000 0.72595  0.60523  0.35880  Biso   1.000  N
  N23      1.0000 0.77405  0.10523  0.14120  Biso   1.000  N
  N24      1.0000 0.27405  0.60523  0.14120  Biso   1.000  N
  N25      1.0000 0.79608  0.92560  0.54091  Biso   1.000  N
  N26      1.0000 0.29608  0.42560  0.54091  Biso   1.000  N
  N27      1.0000 0.20392  0.92560  0.95909  Biso   1.000  N
  N28      1.0000 0.70392  0.42560  0.95909  Biso   1.000  N
  N29      1.0000 0.20392  0.07440  0.45909  Biso   1.000  N
  N30      1.0000 0.70392  0.57440  0.45909  Biso   1.000  N
  N31      1.0000 0.79608  0.07440  0.04091  Biso   1.000  N
  N32      1.0000 0.29608  0.57440  0.04091  Biso   1.000  N
  N33      1.0000 0.78893  0.91795  0.41395  Biso   1.000  N
  N34      1.0000 0.28893  0.41795  0.41395  Biso   1.000  N
  N35      1.0000 0.21107  0.91795  0.08605  Biso   1.000  N
  N36      1.0000 0.71107  0.41795  0.08605  Biso   1.000  N
  N37      1.0000 0.21107  0.08205  0.58605  Biso   1.000  N
  N38      1.0000 0.71107  0.58205  0.58605  Biso   1.000  N
  N39      1.0000 0.78893  0.08205  0.91395  Biso   1.000  N
  N40      1.0000 0.28893  0.58205  0.91395  Biso   1.000  N
  N41      1.0000 0.76024  0.86821  0.30975  Biso   1.000  N
  N42      1.0000 0.26024  0.36821  0.30975  Biso   1.000  N
  N43      1.0000 0.23976  0.86821  0.19025  Biso   1.000  N
  N44      1.0000 0.73976  0.36821  0.19025  Biso   1.000  N
  N45      1.0000 0.23976  0.13179  0.69025  Biso   1.000  N
  N46      1.0000 0.73976  0.63179  0.69025  Biso   1.000  N
  N47      1.0000 0.76024  0.13179  0.80975  Biso   1.000  N
  N48      1.0000 0.26024  0.63179  0.80975  Biso   1.000  N
  N49      1.0000 0.79280  0.70906  0.75453  Biso   1.000  N
  N50      1.0000 0.29280  0.20906  0.75453  Biso   1.000  N
  N51      1.0000 0.20720  0.70906  0.74547  Biso   1.000  N
  N52      1.0000 0.70720  0.20906  0.74547  Biso   1.000  N
  N53      1.0000 0.20720  0.29094  0.24547  Biso   1.000  N
  N54      1.0000 0.70720  0.79094  0.24547  Biso   1.000  N
  N55      1.0000 0.79280  0.29094  0.25453  Biso   1.000  N
  N56      1.0000 0.29280  0.79094  0.25453  Biso   1.000  N
  N57      1.0000 0.84044  0.78474  0.74444  Biso   1.000  N
  N58      1.0000 0.34044  0.28474  0.74444  Biso   1.000  N
  N59      1.0000 0.15956  0.78474  0.75556  Biso   1.000  N
  N60      1.0000 0.65956  0.28474  0.75556  Biso   1.000  N
  N61      1.0000 0.15956  0.21526  0.25556  Biso   1.000  N
  N62      1.0000 0.65956  0.71526  0.25556  Biso   1.000  N
  N63      1.0000 0.84044  0.21526  0.24444  Biso   1.000  N
  N64      1.0000 0.34044  0.71526  0.24444  Biso   1.000  N
  N65      1.0000 0.88029  0.84968  0.67530  Biso   1.000  N
  N66      1.0000 0.38029  0.34968  0.67530  Biso   1.000  N
  N67      1.0000 0.11971  0.84968  0.82470  Biso   1.000  N
  N68      1.0000 0.61971  0.34968  0.82470  Biso   1.000  N
  N69      1.0000 0.11971  0.15032  0.32470  Biso   1.000  N
  N70      1.0000 0.61971  0.65032  0.32470  Biso   1.000  N
  N71      1.0000 0.88029  0.15032  0.17530  Biso   1.000  N
  N72      1.0000 0.38029  0.65032  0.17530  Biso   1.000  N
  N73      1.0000 0.90228  0.88295  0.57890  Biso   1.000  N
  N74      1.0000 0.40228  0.38295  0.57890  Biso   1.000  N
  N75      1.0000 0.09772  0.88295  0.92110  Biso   1.000  N
  N76      1.0000 0.59772  0.38295  0.92110  Biso   1.000  N
  N77      1.0000 0.09772  0.11705  0.42110  Biso   1.000  N
  N78      1.0000 0.59772  0.61705  0.42110  Biso   1.000  N
  N79      1.0000 0.90228  0.11705  0.07890  Biso   1.000  N
  N80      1.0000 0.40228  0.61705  0.07890  Biso   1.000  N
  N81      1.0000 0.89882  0.87358  0.44764  Biso   1.000  N
  N82      1.0000 0.39882  0.37358  0.44764  Biso   1.000  N
  N83      1.0000 0.10118  0.87358  0.05236  Biso   1.000  N
  N84      1.0000 0.60118  0.37358  0.05236  Biso   1.000  N
  N85      1.0000 0.10118  0.12642  0.55236  Biso   1.000  N
  N86      1.0000 0.60118  0.62642  0.55236  Biso   1.000  N
  N87      1.0000 0.89882  0.12642  0.94764  Biso   1.000  N
  N88      1.0000 0.39882  0.62642  0.94764  Biso   1.000  N
  N89      1.0000 0.63226  0.67227  0.65141  Biso   1.000  N
  N90      1.0000 0.13226  0.17227  0.65141  Biso   1.000  N
  N91      1.0000 0.36774  0.67227  0.84859  Biso   1.000  N
  N92      1.0000 0.86774  0.17227  0.84859  Biso   1.000  N
  N93      1.0000 0.36774  0.32773  0.34859  Biso   1.000  N
  N94      1.0000 0.86774  0.82773  0.34859  Biso   1.000  N
  N95      1.0000 0.63226  0.32773  0.15141  Biso   1.000  N
  N96      1.0000 0.13226  0.82773  0.15141  Biso   1.000  N
  N97      1.0000 0.67096  0.76905  0.03131  Biso   1.000  N
  N98      1.0000 0.17096  0.26905  0.03131  Biso   1.000  N
  N99      1.0000 0.32904  0.76905  0.46869  Biso   1.000  N
  N100     1.0000 0.82904  0.26905  0.46869  Biso   1.000  N
  N101     1.0000 0.32904  0.23095  0.96869  Biso   1.000  N
  N102     1.0000 0.82904  0.73095  0.96869  Biso   1.000  N
  N103     1.0000 0.67096  0.23095  0.53131  Biso   1.000  N
  N104     1.0000 0.17096  0.73095  0.53131  Biso   1.000  N
  N105     1.0000 0.43873  0.79221  0.03899  Biso   1.000  N
  N106     1.0000 0.93873  0.29221  0.03899  Biso   1.000  N
  N107     1.0000 0.56127  0.79221  0.46101  Biso   1.000  N
  N108     1.0000 0.06127  0.29221  0.46101  Biso   1.000  N
  N109     1.0000 0.56127  0.20779  0.96101  Biso   1.000  N
  N110     1.0000 0.06127  0.70779  0.96101  Biso   1.000  N
  N111     1.0000 0.43873  0.20779  0.53899  Biso   1.000  N
  N112     1.0000 0.93873  0.70779  0.53899  Biso   1.000  N
  H273     1.0000 0.43980  0.75710  0.03500  Biso   1.000  H
  H274     1.0000 0.93980  0.25710  0.03500  Biso   1.000  H
  H275     1.0000 0.56020  0.75710  0.46500  Biso   1.000  H
  H276     1.0000 0.06020  0.25710  0.46500  Biso   1.000  H
  H277     1.0000 0.56020  0.24290  0.96500  Biso   1.000  H
  H278     1.0000 0.06020  0.74290  0.96500  Biso   1.000  H
  H279     1.0000 0.43980  0.24290  0.53500  Biso   1.000  H
  H280     1.0000 0.93980  0.74290  0.53500  Biso   1.000  H
  H281     1.0000 0.43610  0.80640  0.99460  Biso   1.000  H
  H282     1.0000 0.93610  0.30640  0.99460  Biso   1.000  H
  H283     1.0000 0.56390  0.80640  0.50540  Biso   1.000  H
  H284     1.0000 0.06390  0.30640  0.50540  Biso   1.000  H
  H285     1.0000 0.56390  0.19360  0.00540  Biso   1.000  H
  H286     1.0000 0.06390  0.69360  0.00540  Biso   1.000  H
  H287     1.0000 0.43610  0.19360  0.49460  Biso   1.000  H
  H288     1.0000 0.93610  0.69360  0.49460  Biso   1.000  H
  O1       1.0000 0.62539  0.81427  0.62963  Biso   1.000  O
  O2       1.0000 0.12539  0.31427  0.62963  Biso   1.000  O
  O3       1.0000 0.37461  0.81427  0.87037  Biso   1.000  O
  O4       1.0000 0.87461  0.31427  0.87037  Biso   1.000  O
  O5       1.0000 0.37461  0.18573  0.37037  Biso   1.000  O
  O6       1.0000 0.87461  0.68573  0.37037  Biso   1.000  O
  O7       1.0000 0.62539  0.18573  0.12963  Biso   1.000  O
  O8       1.0000 0.12539  0.68573  0.12963  Biso   1.000  O
  O9       1.0000 0.68800  0.91694  0.54049  Biso   1.000  O
  O10      1.0000 0.18800  0.41694  0.54049  Biso   1.000  O
  O11      1.0000 0.31200  0.91694  0.95951  Biso   1.000  O
  O12      1.0000 0.81200  0.41694  0.95951  Biso   1.000  O
  O13      1.0000 0.31200  0.08306  0.45951  Biso   1.000  O
  O14      1.0000 0.81200  0.58306  0.45951  Biso   1.000  O
  O15      1.0000 0.68800  0.08306  0.04049  Biso   1.000  O
  O16      1.0000 0.18800  0.58306  0.04049  Biso   1.000  O
  O17      1.0000 0.67957  0.90079  0.35668  Biso   1.000  O
  O18      1.0000 0.17957  0.40079  0.35668  Biso   1.000  O
  O19      1.0000 0.32043  0.90079  0.14332  Biso   1.000  O
  O20      1.0000 0.82043  0.40079  0.14332  Biso   1.000  O
  O21      1.0000 0.32043  0.09921  0.64332  Biso   1.000  O
  O22      1.0000 0.82043  0.59921  0.64332  Biso   1.000  O
  O23      1.0000 0.67957  0.09921  0.85668  Biso   1.000  O
  O24      1.0000 0.17957  0.59921  0.85668  Biso   1.000  O
  O25      1.0000 0.89520  0.70698  0.73818  Biso   1.000  O
  O26      1.0000 0.39520  0.20698  0.73818  Biso   1.000  O
  O27      1.0000 0.10480  0.70698  0.76182  Biso   1.000  O
  O28      1.0000 0.60480  0.20698  0.76182  Biso   1.000  O
  O29      1.0000 0.10480  0.29302  0.26182  Biso   1.000  O
  O30      1.0000 0.60480  0.79302  0.26182  Biso   1.000  O
  O31      1.0000 0.89520  0.29302  0.23818  Biso   1.000  O
  O32      1.0000 0.39520  0.79302  0.23818  Biso   1.000  O
  O33      1.0000 0.95478  0.80638  0.62990  Biso   1.000  O
  O34      1.0000 0.45478  0.30638  0.62990  Biso   1.000  O
  O35      1.0000 0.04522  0.80638  0.87010  Biso   1.000  O
  O36      1.0000 0.54522  0.30638  0.87010  Biso   1.000  O
  O37      1.0000 0.04522  0.19362  0.37010  Biso   1.000  O
  O38      1.0000 0.54522  0.69362  0.37010  Biso   1.000  O
  O39      1.0000 0.95478  0.19362  0.12990  Biso   1.000  O
  O40      1.0000 0.45478  0.69362  0.12990  Biso   1.000  O
  O41      1.0000 0.94761  0.79597  0.45101  Biso   1.000  O
  O42      1.0000 0.44761  0.29597  0.45101  Biso   1.000  O
  O43      1.0000 0.05239  0.79597  0.04899  Biso   1.000  O
  O44      1.0000 0.55239  0.29597  0.04899  Biso   1.000  O
  O45      1.0000 0.05239  0.20403  0.54899  Biso   1.000  O
  O46      1.0000 0.55239  0.70403  0.54899  Biso   1.000  O
  O47      1.0000 0.94761  0.20403  0.95101  Biso   1.000  O
  O48      1.0000 0.44761  0.70403  0.95101  Biso   1.000  O
  O49      1.0000 0.99569  0.11291  0.67930  Biso   1.000  O
  O50      1.0000 0.49569  0.61291  0.67930  Biso   1.000  O
  O51      1.0000 0.00431  0.11291  0.82070  Biso   1.000  O
  O52      1.0000 0.50431  0.61291  0.82070  Biso   1.000  O
  O53      1.0000 0.00431  0.88709  0.32070  Biso   1.000  O
  O54      1.0000 0.50431  0.38709  0.32070  Biso   1.000  O
  O55      1.0000 0.99569  0.88709  0.17930  Biso   1.000  O
  O56      1.0000 0.49569  0.38709  0.17930  Biso   1.000  O
  H289     1.0000 0.95790  0.10100  0.65620  Biso   1.000  H
  H290     1.0000 0.45790  0.60100  0.65620  Biso   1.000  H
  H291     1.0000 0.04210  0.10100  0.84380  Biso   1.000  H
  H292     1.0000 0.54210  0.60100  0.84380  Biso   1.000  H
  H293     1.0000 0.04210  0.89900  0.34380  Biso   1.000  H
  H294     1.0000 0.54210  0.39900  0.34380  Biso   1.000  H
  H295     1.0000 0.95790  0.89900  0.15620  Biso   1.000  H
  H296     1.0000 0.45790  0.39900  0.15620  Biso   1.000  H
  H297     1.0000 0.01530  0.12210  0.64830  Biso   1.000  H
  H298     1.0000 0.51530  0.62210  0.64830  Biso   1.000  H
  H299     1.0000 0.98470  0.12210  0.85170  Biso   1.000  H
  H300     1.0000 0.48470  0.62210  0.85170  Biso   1.000  H
  H301     1.0000 0.98470  0.87790  0.35170  Biso   1.000  H
  H302     1.0000 0.48470  0.37790  0.35170  Biso   1.000  H
  H303     1.0000 0.01530  0.87790  0.14830  Biso   1.000  H
  H304     1.0000 0.51530  0.37790  0.14830  Biso   1.000  H
  O57      1.0000 0.94367  0.54204  0.83533  Biso   1.000  O
  O58      1.0000 0.44367  0.04204  0.83533  Biso   1.000  O
  O59      1.0000 0.05633  0.54204  0.66467  Biso   1.000  O
  O60      1.0000 0.55633  0.04204  0.66467  Biso   1.000  O
  O61      1.0000 0.05633  0.45796  0.16467  Biso   1.000  O
  O62      1.0000 0.55633  0.95796  0.16467  Biso   1.000  O
  O63      1.0000 0.94367  0.45796  0.33533  Biso   1.000  O
  O64      1.0000 0.44367  0.95796  0.33533  Biso   1.000  O
  H305     1.0000 0.95950  0.53360  0.88070  Biso   1.000  H
  H306     1.0000 0.45950  0.03360  0.88070  Biso   1.000  H
  H307     1.0000 0.04050  0.53360  0.61930  Biso   1.000  H
  H308     1.0000 0.54050  0.03360  0.61930  Biso   1.000  H
  H309     1.0000 0.04050  0.46640  0.11930  Biso   1.000  H
  H310     1.0000 0.54050  0.96640  0.11930  Biso   1.000  H
  H311     1.0000 0.95950  0.46640  0.38070  Biso   1.000  H
  H312     1.0000 0.45950  0.96640  0.38070  Biso   1.000  H
  H313     1.0000 0.93770  0.51460  0.80870  Biso   1.000  H
  H314     1.0000 0.43770  0.01460  0.80870  Biso   1.000  H
  H315     1.0000 0.06230  0.51460  0.69130  Biso   1.000  H
  H316     1.0000 0.56230  0.01460  0.69130  Biso   1.000  H
  H317     1.0000 0.06230  0.48540  0.19130  Biso   1.000  H
  H318     1.0000 0.56230  0.98540  0.19130  Biso   1.000  H
  H319     1.0000 0.93770  0.48540  0.30870  Biso   1.000  H
  H320     1.0000 0.43770  0.98540  0.30870  Biso   1.000  H
  O65      1.0000 0.61050  0.60360  0.07990  Biso   1.000  O
  O66      1.0000 0.11050  0.10360  0.07990  Biso   1.000  O
  O67      1.0000 0.38950  0.60360  0.42010  Biso   1.000  O
  O68      1.0000 0.88950  0.10360  0.42010  Biso   1.000  O
  O69      1.0000 0.38950  0.39640  0.92010  Biso   1.000  O
  O70      1.0000 0.88950  0.89640  0.92010  Biso   1.000  O
  O71      1.0000 0.61050  0.39640  0.57990  Biso   1.000  O
  O72      1.0000 0.11050  0.89640  0.57990  Biso   1.000  O
  H321     1.0000 0.61550  0.61710  0.12230  Biso   1.000  H
  H322     1.0000 0.11550  0.11710  0.12230  Biso   1.000  H
  H323     1.0000 0.38450  0.61710  0.37770  Biso   1.000  H
  H324     1.0000 0.88450  0.11710  0.37770  Biso   1.000  H
  H325     1.0000 0.38450  0.38290  0.87770  Biso   1.000  H
  H326     1.0000 0.88450  0.88290  0.87770  Biso   1.000  H
  H327     1.0000 0.61550  0.38290  0.62230  Biso   1.000  H
  H328     1.0000 0.11550  0.88290  0.62230  Biso   1.000  H
  H329     1.0000 0.57450  0.58680  0.06620  Biso   1.000  H
  H330     1.0000 0.07450  0.08680  0.06620  Biso   1.000  H
  H331     1.0000 0.42550  0.58680  0.43380  Biso   1.000  H
  H332     1.0000 0.92550  0.08680  0.43380  Biso   1.000  H
  H333     1.0000 0.42550  0.41320  0.93380  Biso   1.000  H
  H334     1.0000 0.92550  0.91320  0.93380  Biso   1.000  H
  H335     1.0000 0.57450  0.41320  0.56620  Biso   1.000  H
  H336     1.0000 0.07450  0.91320  0.56620  Biso   1.000  H
  O73      1.0000 0.72560  0.50940  0.20700  Biso   1.000  O
  O74      1.0000 0.22560  0.00940  0.20700  Biso   1.000  O
  O75      1.0000 0.27440  0.50940  0.29300  Biso   1.000  O
  O76      1.0000 0.77440  0.00940  0.29300  Biso   1.000  O
  O77      1.0000 0.27440  0.49060  0.79300  Biso   1.000  O
  O78      1.0000 0.77440  0.99060  0.79300  Biso   1.000  O
  O79      1.0000 0.72560  0.49060  0.70700  Biso   1.000  O
  O80      1.0000 0.22560  0.99060  0.70700  Biso   1.000  O
  H337     1.0000 0.69950  0.53090  0.17830  Biso   1.000  H
  H338     1.0000 0.19950  0.03090  0.17830  Biso   1.000  H
  H339     1.0000 0.30050  0.53090  0.32170  Biso   1.000  H
  H340     1.0000 0.80050  0.03090  0.32170  Biso   1.000  H
  H341     1.0000 0.30050  0.46910  0.82170  Biso   1.000  H
  H342     1.0000 0.80050  0.96910  0.82170  Biso   1.000  H
  H343     1.0000 0.69950  0.46910  0.67830  Biso   1.000  H
  H344     1.0000 0.19950  0.96910  0.67830  Biso   1.000  H
  H345     1.0000 0.73490  0.48480  0.18160  Biso   1.000  H
  H346     1.0000 0.23490  0.98480  0.18160  Biso   1.000  H
  H347     1.0000 0.26510  0.48480  0.31840  Biso   1.000  H
  H348     1.0000 0.76510  0.98480  0.31840  Biso   1.000  H
  H349     1.0000 0.26510  0.51520  0.81840  Biso   1.000  H
  H350     1.0000 0.76510  0.01520  0.81840  Biso   1.000  H
  H351     1.0000 0.73490  0.51520  0.68160  Biso   1.000  H
  H352     1.0000 0.23490  0.01520  0.68160  Biso   1.000  H
  O81      1.0000 0.01960  0.93910  0.67110  Biso   1.000  O
  O82      1.0000 0.51960  0.43910  0.67110  Biso   1.000  O
  O83      1.0000 0.98040  0.93910  0.82890  Biso   1.000  O
  O84      1.0000 0.48040  0.43910  0.82890  Biso   1.000  O
  O85      1.0000 0.98040  0.06090  0.32890  Biso   1.000  O
  O86      1.0000 0.48040  0.56090  0.32890  Biso   1.000  O
  O87      1.0000 0.01960  0.06090  0.17110  Biso   1.000  O
  O88      1.0000 0.51960  0.56090  0.17110  Biso   1.000  O
  H353     1.0000 0.03180  0.96790  0.65690  Biso   1.000  H
  H354     1.0000 0.53180  0.46790  0.65690  Biso   1.000  H
  H355     1.0000 0.96820  0.96790  0.84310  Biso   1.000  H
  H356     1.0000 0.46820  0.46790  0.84310  Biso   1.000  H
  H357     1.0000 0.96820  0.03210  0.34310  Biso   1.000  H
  H358     1.0000 0.46820  0.53210  0.34310  Biso   1.000  H
  H359     1.0000 0.03180  0.03210  0.15690  Biso   1.000  H
  H360     1.0000 0.53180  0.53210  0.15690  Biso   1.000  H
  H361     1.0000 0.00800  0.94410  0.70970  Biso   1.000  H
  H362     1.0000 0.50800  0.44410  0.70970  Biso   1.000  H
  H363     1.0000 0.99200  0.94410  0.79030  Biso   1.000  H
  H364     1.0000 0.49200  0.44410  0.79030  Biso   1.000  H
  H365     1.0000 0.99200  0.05590  0.29030  Biso   1.000  H
  H366     1.0000 0.49200  0.55590  0.29030  Biso   1.000  H
  H367     1.0000 0.00800  0.05590  0.20970  Biso   1.000  H
  H368     1.0000 0.50800  0.55590  0.20970  Biso   1.000  H
  O89      1.0000 0.43990  0.08300  0.29880  Biso   1.000  O
  O90      1.0000 0.93990  0.58300  0.29880  Biso   1.000  O
  O91      1.0000 0.56010  0.08300  0.20120  Biso   1.000  O
  O92      1.0000 0.06010  0.58300  0.20120  Biso   1.000  O
  O93      1.0000 0.56010  0.91700  0.70120  Biso   1.000  O
  O94      1.0000 0.06010  0.41700  0.70120  Biso   1.000  O
  O95      1.0000 0.43990  0.91700  0.79880  Biso   1.000  O
  O96      1.0000 0.93990  0.41700  0.79880  Biso   1.000  O
  H369     1.0000 0.43840  0.08610  0.25360  Biso   1.000  H
  H370     1.0000 0.93840  0.58610  0.25360  Biso   1.000  H
  H371     1.0000 0.56160  0.08610  0.24640  Biso   1.000  H
  H372     1.0000 0.06160  0.58610  0.24640  Biso   1.000  H
  H373     1.0000 0.56160  0.91390  0.74640  Biso   1.000  H
  H374     1.0000 0.06160  0.41390  0.74640  Biso   1.000  H
  H375     1.0000 0.43840  0.91390  0.75360  Biso   1.000  H
  H376     1.0000 0.93840  0.41390  0.75360  Biso   1.000  H
  H377     1.0000 0.47920  0.07600  0.32390  Biso   1.000  H
  H378     1.0000 0.97920  0.57600  0.32390  Biso   1.000  H
  H379     1.0000 0.52080  0.07600  0.17610  Biso   1.000  H
  H380     1.0000 0.02080  0.57600  0.17610  Biso   1.000  H
  H381     1.0000 0.52080  0.92400  0.67610  Biso   1.000  H
  H382     1.0000 0.02080  0.42400  0.67610  Biso   1.000  H
  H383     1.0000 0.47920  0.92400  0.82390  Biso   1.000  H
  H384     1.0000 0.97920  0.42400  0.82390  Biso   1.000  H
  O97      1.0000 0.88380  0.47940  0.87950  Biso   1.000  O
  O98      1.0000 0.38380  0.97940  0.87950  Biso   1.000  O
  O99      1.0000 0.11620  0.47940  0.62050  Biso   1.000  O
  O100     1.0000 0.61620  0.97940  0.62050  Biso   1.000  O
  O101     1.0000 0.11620  0.52060  0.12050  Biso   1.000  O
  O102     1.0000 0.61620  0.02060  0.12050  Biso   1.000  O
  O103     1.0000 0.88380  0.52060  0.37950  Biso   1.000  O
  O104     1.0000 0.38380  0.02060  0.37950  Biso   1.000  O
  H385     1.0000 0.90830  0.46080  0.91400  Biso   1.000  H
  H386     1.0000 0.40830  0.96080  0.91400  Biso   1.000  H
  H387     1.0000 0.09170  0.46080  0.58600  Biso   1.000  H
  H388     1.0000 0.59170  0.96080  0.58600  Biso   1.000  H
  H389     1.0000 0.09170  0.53920  0.08600  Biso   1.000  H
  H390     1.0000 0.59170  0.03920  0.08600  Biso   1.000  H
  H391     1.0000 0.90830  0.53920  0.41400  Biso   1.000  H
  H392     1.0000 0.40830  0.03920  0.41400  Biso   1.000  H
  H393     1.0000 0.85530  0.49530  0.89470  Biso   1.000  H
  H394     1.0000 0.35530  0.99530  0.89470  Biso   1.000  H
  H395     1.0000 0.14470  0.49530  0.60530  Biso   1.000  H
  H396     1.0000 0.64470  0.99530  0.60530  Biso   1.000  H
  H397     1.0000 0.14470  0.50470  0.10530  Biso   1.000  H
  H398     1.0000 0.64470  0.00470  0.10530  Biso   1.000  H
  H399     1.0000 0.85530  0.50470  0.39470  Biso   1.000  H
  H400     1.0000 0.35530  0.00470  0.39470  Biso   1.000  H
  O105     1.0000 0.94920  0.42100  0.98030  Biso   1.000  O
  O106     1.0000 0.44920  0.92100  0.98030  Biso   1.000  O
  O107     1.0000 0.05080  0.42100  0.51970  Biso   1.000  O
  O108     1.0000 0.55080  0.92100  0.51970  Biso   1.000  O
  O109     1.0000 0.05080  0.57900  0.01970  Biso   1.000  O
  O110     1.0000 0.55080  0.07900  0.01970  Biso   1.000  O
  O111     1.0000 0.94920  0.57900  0.48030  Biso   1.000  O
  O112     1.0000 0.44920  0.07900  0.48030  Biso   1.000  O
  H401     1.0000 0.92380  0.39960  0.99270  Biso   1.000  H
  H402     1.0000 0.42380  0.89960  0.99270  Biso   1.000  H
  H403     1.0000 0.07620  0.39960  0.50730  Biso   1.000  H
  H404     1.0000 0.57620  0.89960  0.50730  Biso   1.000  H
  H405     1.0000 0.07620  0.60040  0.00730  Biso   1.000  H
  H406     1.0000 0.57620  0.10040  0.00730  Biso   1.000  H
  H407     1.0000 0.92380  0.60040  0.49270  Biso   1.000  H
  H408     1.0000 0.42380  0.10040  0.49270  Biso   1.000  H
  H409     1.0000 0.97700  0.40400  0.96540  Biso   1.000  H
  H410     1.0000 0.47700  0.90400  0.96540  Biso   1.000  H
  H411     1.0000 0.02300  0.40400  0.53460  Biso   1.000  H
  H412     1.0000 0.52300  0.90400  0.53460  Biso   1.000  H
  H413     1.0000 0.02300  0.59600  0.03460  Biso   1.000  H
  H414     1.0000 0.52300  0.09600  0.03460  Biso   1.000  H
  H415     1.0000 0.97700  0.59600  0.46540  Biso   1.000  H
  H416     1.0000 0.47700  0.09600  0.46540  Biso   1.000  H
  O113     1.0000 0.90520  0.28120  0.65520  Biso   1.000  O
  O114     1.0000 0.40520  0.78120  0.65520  Biso   1.000  O
  O115     1.0000 0.09480  0.28120  0.84480  Biso   1.000  O
  O116     1.0000 0.59480  0.78120  0.84480  Biso   1.000  O
  O117     1.0000 0.09480  0.71880  0.34480  Biso   1.000  O
  O118     1.0000 0.59480  0.21880  0.34480  Biso   1.000  O
  O119     1.0000 0.90520  0.71880  0.15520  Biso   1.000  O
  O120     1.0000 0.40520  0.21880  0.15520  Biso   1.000  O
  H417     1.0000 0.92400  0.25150  0.66510  Biso   1.000  H
  H418     1.0000 0.42400  0.75150  0.66510  Biso   1.000  H
  H419     1.0000 0.07600  0.25150  0.83490  Biso   1.000  H
  H420     1.0000 0.57600  0.75150  0.83490  Biso   1.000  H
  H421     1.0000 0.07600  0.74850  0.33490  Biso   1.000  H
  H422     1.0000 0.57600  0.24850  0.33490  Biso   1.000  H
  H423     1.0000 0.92400  0.74850  0.16510  Biso   1.000  H
  H424     1.0000 0.42400  0.24850  0.16510  Biso   1.000  H
  H425     1.0000 0.86450  0.27670  0.63400  Biso   1.000  H
  H426     1.0000 0.36450  0.77670  0.63400  Biso   1.000  H
  H427     1.0000 0.13550  0.27670  0.86600  Biso   1.000  H
  H428     1.0000 0.63550  0.77670  0.86600  Biso   1.000  H
  H429     1.0000 0.13550  0.72330  0.36600  Biso   1.000  H
  H430     1.0000 0.63550  0.22330  0.36600  Biso   1.000  H
  H431     1.0000 0.86450  0.72330  0.13400  Biso   1.000  H
  H432     1.0000 0.36450  0.22330  0.13400  Biso   1.000  H
  O121     1.0000 0.93910  0.08190  0.55920  Biso   1.000  O
  O122     1.0000 0.43910  0.58190  0.55920  Biso   1.000  O
  O123     1.0000 0.06090  0.08190  0.94080  Biso   1.000  O
  O124     1.0000 0.56090  0.58190  0.94080  Biso   1.000  O
  O125     1.0000 0.06090  0.91810  0.44080  Biso   1.000  O
  O126     1.0000 0.56090  0.41810  0.44080  Biso   1.000  O
  O127     1.0000 0.93910  0.91810  0.05920  Biso   1.000  O
  O128     1.0000 0.43910  0.41810  0.05920  Biso   1.000  O
  H433     1.0000 0.95670  0.05350  0.55110  Biso   1.000  H
  H434     1.0000 0.45670  0.55350  0.55110  Biso   1.000  H
  H435     1.0000 0.04330  0.05350  0.94890  Biso   1.000  H
  H436     1.0000 0.54330  0.55350  0.94890  Biso   1.000  H
  H437     1.0000 0.04330  0.94650  0.44890  Biso   1.000  H
  H438     1.0000 0.54330  0.44650  0.44890  Biso   1.000  H
  H439     1.0000 0.95670  0.94650  0.05110  Biso   1.000  H
  H440     1.0000 0.45670  0.44650  0.05110  Biso   1.000  H
  H441     1.0000 0.94130  0.10470  0.52720  Biso   1.000  H
  H442     1.0000 0.44130  0.60470  0.52720  Biso   1.000  H
  H443     1.0000 0.05870  0.10470  0.97280  Biso   1.000  H
  H444     1.0000 0.55870  0.60470  0.97280  Biso   1.000  H
  H445     1.0000 0.05870  0.89530  0.47280  Biso   1.000  H
  H446     1.0000 0.55870  0.39530  0.47280  Biso   1.000  H
  H447     1.0000 0.94130  0.89530  0.02720  Biso   1.000  H
  H448     1.0000 0.44130  0.39530  0.02720  Biso   1.000  H
  O129     1.0000 0.62720  0.04880  0.42030  Biso   1.000  O
  O130     1.0000 0.12720  0.54880  0.42030  Biso   1.000  O
  O131     1.0000 0.37280  0.04880  0.07970  Biso   1.000  O
  O132     1.0000 0.87280  0.54880  0.07970  Biso   1.000  O
  O133     1.0000 0.37280  0.95120  0.57970  Biso   1.000  O
  O134     1.0000 0.87280  0.45120  0.57970  Biso   1.000  O
  O135     1.0000 0.62720  0.95120  0.92030  Biso   1.000  O
  O136     1.0000 0.12720  0.45120  0.92030  Biso   1.000  O
  H449     1.0000 0.66840  0.05310  0.43860  Biso   1.000  H
  H450     1.0000 0.16840  0.55310  0.43860  Biso   1.000  H
  H451     1.0000 0.33160  0.05310  0.06140  Biso   1.000  H
  H452     1.0000 0.83160  0.55310  0.06140  Biso   1.000  H
  H453     1.0000 0.33160  0.94690  0.56140  Biso   1.000  H
  H454     1.0000 0.83160  0.44690  0.56140  Biso   1.000  H
  H455     1.0000 0.66840  0.94690  0.93860  Biso   1.000  H
  H456     1.0000 0.16840  0.44690  0.93860  Biso   1.000  H
  H457     1.0000 0.61960  0.01850  0.40080  Biso   1.000  H
  H458     1.0000 0.11960  0.51850  0.40080  Biso   1.000  H
  H459     1.0000 0.38040  0.01850  0.09920  Biso   1.000  H
  H460     1.0000 0.88040  0.51850  0.09920  Biso   1.000  H
  H461     1.0000 0.38040  0.98150  0.59920  Biso   1.000  H
  H462     1.0000 0.88040  0.48150  0.59920  Biso   1.000  H
  H463     1.0000 0.61960  0.98150  0.90080  Biso   1.000  H
  H464     1.0000 0.11960  0.48150  0.90080  Biso   1.000  H
  O137     1.0000 0.67870  0.55160  0.88030  Biso   1.000  O
  O138     1.0000 0.17870  0.05160  0.88030  Biso   1.000  O
  O139     1.0000 0.32130  0.55160  0.61970  Biso   1.000  O
  O140     1.0000 0.82130  0.05160  0.61970  Biso   1.000  O
  O141     1.0000 0.32130  0.44840  0.11970  Biso   1.000  O
  O142     1.0000 0.82130  0.94840  0.11970  Biso   1.000  O
  O143     1.0000 0.67870  0.44840  0.38030  Biso   1.000  O
  O144     1.0000 0.17870  0.94840  0.38030  Biso   1.000  O
  H465     1.0000 0.67580  0.52380  0.85480  Biso   1.000  H
  H466     1.0000 0.17580  0.02380  0.85480  Biso   1.000  H
  H467     1.0000 0.32420  0.52380  0.64520  Biso   1.000  H
  H468     1.0000 0.82420  0.02380  0.64520  Biso   1.000  H
  H469     1.0000 0.32420  0.47620  0.14520  Biso   1.000  H
  H470     1.0000 0.82420  0.97620  0.14520  Biso   1.000  H
  H471     1.0000 0.67580  0.47620  0.35480  Biso   1.000  H
  H472     1.0000 0.17580  0.97620  0.35480  Biso   1.000  H
  H473     1.0000 0.64490  0.57050  0.86190  Biso   1.000  H
  H474     1.0000 0.14490  0.07050  0.86190  Biso   1.000  H
  H475     1.0000 0.35510  0.57050  0.63810  Biso   1.000  H
  H476     1.0000 0.85510  0.07050  0.63810  Biso   1.000  H
  H477     1.0000 0.35510  0.42950  0.13810  Biso   1.000  H
  H478     1.0000 0.85510  0.92950  0.13810  Biso   1.000  H
  H479     1.0000 0.64490  0.42950  0.36190  Biso   1.000  H
  H480     1.0000 0.14490  0.92950  0.36190  Biso   1.000  H
