data_image0
_cell_length_a       25.0497
_cell_length_b       25.0497
_cell_length_c       11.9345
_cell_angle_alpha    90
_cell_angle_beta     90
_cell_angle_gamma    120

_symmetry_space_group_name_H-M    "P 1"
_symmetry_int_tables_number       1

loop_
  _symmetry_equiv_pos_as_xyz
  'x, y, z'

loop_
  _atom_site_label
  _atom_site_occupancy
  _atom_site_fract_x
  _atom_site_fract_y
  _atom_site_fract_z
  _atom_site_thermal_displace_type
  _atom_site_B_iso_or_equiv
  _atom_site_type_symbol
  O1       1.0000 0.33330  0.66670  0.63440  Biso   1.000  O
  O2       1.0000 0.66670  0.33330  0.13440  Biso   1.000  O
  O3       1.0000 0.33330  0.66670  0.86470  Biso   1.000  O
  O4       1.0000 0.66670  0.33330  0.36470  Biso   1.000  O
  O5       1.0000 0.22720  0.61460  0.98980  Biso   1.000  O
  O6       1.0000 0.38540  0.61260  0.98980  Biso   1.000  O
  O7       1.0000 0.38740  0.77280  0.98980  Biso   1.000  O
  O8       1.0000 0.61460  0.22720  0.48980  Biso   1.000  O
  O9       1.0000 0.61260  0.38540  0.48980  Biso   1.000  O
  O10      1.0000 0.77280  0.38740  0.48980  Biso   1.000  O
  O11      1.0000 0.38600  0.61080  0.50640  Biso   1.000  O
  O12      1.0000 0.38920  0.77520  0.50640  Biso   1.000  O
  O13      1.0000 0.22480  0.61400  0.50640  Biso   1.000  O
  O14      1.0000 0.61080  0.38600  0.00640  Biso   1.000  O
  O15      1.0000 0.77520  0.38920  0.00640  Biso   1.000  O
  O16      1.0000 0.61400  0.22480  0.00640  Biso   1.000  O
  Si1      1.0000 0.44539  0.55354  0.75160  Biso   1.000  Si
  Si2      1.0000 0.44646  0.89185  0.75160  Biso   1.000  Si
  Si3      1.0000 0.10815  0.55461  0.75160  Biso   1.000  Si
  Si4      1.0000 0.55354  0.44539  0.25160  Biso   1.000  Si
  Si5      1.0000 0.89185  0.44646  0.25160  Biso   1.000  Si
  Si6      1.0000 0.55461  0.10815  0.25160  Biso   1.000  Si
  F1       1.0000 0.44606  0.55398  0.89220  Biso   1.000  F
  F2       1.0000 0.44602  0.89208  0.89220  Biso   1.000  F
  F3       1.0000 0.10792  0.55394  0.89220  Biso   1.000  F
  F4       1.0000 0.55398  0.44606  0.39220  Biso   1.000  F
  F5       1.0000 0.89208  0.44602  0.39220  Biso   1.000  F
  F6       1.0000 0.55394  0.10792  0.39220  Biso   1.000  F
  F7       1.0000 0.37778  0.48676  0.75100  Biso   1.000  F
  F8       1.0000 0.51324  0.89102  0.75100  Biso   1.000  F
  F9       1.0000 0.10898  0.62222  0.75100  Biso   1.000  F
  F10      1.0000 0.48676  0.37778  0.25100  Biso   1.000  F
  F11      1.0000 0.89102  0.51324  0.25100  Biso   1.000  F
  F12      1.0000 0.62222  0.10898  0.25100  Biso   1.000  F
  F13      1.0000 0.51269  0.62073  0.75090  Biso   1.000  F
  F14      1.0000 0.37927  0.89196  0.75090  Biso   1.000  F
  F15      1.0000 0.10804  0.48731  0.75090  Biso   1.000  F
  F16      1.0000 0.62073  0.51269  0.25090  Biso   1.000  F
  F17      1.0000 0.89196  0.37927  0.25090  Biso   1.000  F
  F18      1.0000 0.48731  0.10804  0.25090  Biso   1.000  F
  F19      1.0000 0.40867  0.59400  0.75120  Biso   1.000  F
  F20      1.0000 0.40600  0.81467  0.75120  Biso   1.000  F
  F21      1.0000 0.18533  0.59133  0.75120  Biso   1.000  F
  F22      1.0000 0.59400  0.40867  0.25120  Biso   1.000  F
  F23      1.0000 0.81467  0.40600  0.25120  Biso   1.000  F
  F24      1.0000 0.59133  0.18533  0.25120  Biso   1.000  F
  F25      1.0000 0.48649  0.51719  0.75170  Biso   1.000  F
  F26      1.0000 0.48281  0.96930  0.75170  Biso   1.000  F
  F27      1.0000 0.03070  0.51351  0.75170  Biso   1.000  F
  F28      1.0000 0.51719  0.48649  0.25170  Biso   1.000  F
  F29      1.0000 0.96930  0.48281  0.25170  Biso   1.000  F
  F30      1.0000 0.51351  0.03070  0.25170  Biso   1.000  F
  F31      1.0000 0.44541  0.55462  0.60850  Biso   1.000  F
  F32      1.0000 0.44538  0.89079  0.60850  Biso   1.000  F
  F33      1.0000 0.10921  0.55459  0.60850  Biso   1.000  F
  F34      1.0000 0.55462  0.44541  0.10850  Biso   1.000  F
  F35      1.0000 0.89079  0.44538  0.10850  Biso   1.000  F
  F36      1.0000 0.55459  0.10921  0.10850  Biso   1.000  F
  Cu1      1.0000 0.22575  0.45053  0.08741  Biso   1.000  Cu
  Cu2      1.0000 0.54947  0.77522  0.08741  Biso   1.000  Cu
  Cu3      1.0000 0.22478  0.77425  0.08741  Biso   1.000  Cu
  Cu4      1.0000 0.45053  0.22575  0.58741  Biso   1.000  Cu
  Cu5      1.0000 0.77522  0.54947  0.58741  Biso   1.000  Cu
  Cu6      1.0000 0.77425  0.22478  0.58741  Biso   1.000  Cu
  Cu7      1.0000 0.15019  0.43630  0.33335  Biso   1.000  Cu
  Cu8      1.0000 0.56370  0.71389  0.33335  Biso   1.000  Cu
  Cu9      1.0000 0.28611  0.84981  0.33335  Biso   1.000  Cu
  Cu10     1.0000 0.43630  0.15019  0.83335  Biso   1.000  Cu
  Cu11     1.0000 0.71389  0.56370  0.83335  Biso   1.000  Cu
  Cu12     1.0000 0.84981  0.28611  0.83335  Biso   1.000  Cu
  Cu13     1.0000 0.28296  0.43361  0.33403  Biso   1.000  Cu
  Cu14     1.0000 0.56639  0.84935  0.33403  Biso   1.000  Cu
  Cu15     1.0000 0.15065  0.71704  0.33403  Biso   1.000  Cu
  Cu16     1.0000 0.43361  0.28296  0.83403  Biso   1.000  Cu
  Cu17     1.0000 0.84935  0.56639  0.83403  Biso   1.000  Cu
  Cu18     1.0000 0.71704  0.15065  0.83403  Biso   1.000  Cu
  O17      1.0000 0.21230  0.43340  0.24990  Biso   1.000  O
  O18      1.0000 0.56660  0.77890  0.24990  Biso   1.000  O
  O19      1.0000 0.22110  0.78770  0.24990  Biso   1.000  O
  O20      1.0000 0.43340  0.21230  0.74990  Biso   1.000  O
  O21      1.0000 0.77890  0.56660  0.74990  Biso   1.000  O
  O22      1.0000 0.78770  0.22110  0.74990  Biso   1.000  O
  H1       1.0000 0.23540  0.47110  0.25660  Biso   1.000  H
  H2       1.0000 0.52890  0.76430  0.25660  Biso   1.000  H
  H3       1.0000 0.23570  0.76460  0.25660  Biso   1.000  H
  H4       1.0000 0.47110  0.23540  0.75660  Biso   1.000  H
  H5       1.0000 0.76430  0.52890  0.75660  Biso   1.000  H
  H6       1.0000 0.76460  0.23570  0.75660  Biso   1.000  H
  O23      1.0000 0.27640  0.55800  0.13480  Biso   1.000  O
  O24      1.0000 0.44200  0.71840  0.13480  Biso   1.000  O
  O25      1.0000 0.28160  0.72360  0.13480  Biso   1.000  O
  O26      1.0000 0.55800  0.27640  0.63480  Biso   1.000  O
  O27      1.0000 0.71840  0.44200  0.63480  Biso   1.000  O
  O28      1.0000 0.72360  0.28160  0.63480  Biso   1.000  O
  H7       1.0000 0.25800  0.56720  0.18230  Biso   1.000  H
  H8       1.0000 0.43280  0.69080  0.18230  Biso   1.000  H
  H9       1.0000 0.30920  0.74200  0.18230  Biso   1.000  H
  H10      1.0000 0.56720  0.25800  0.68230  Biso   1.000  H
  H11      1.0000 0.69080  0.43280  0.68230  Biso   1.000  H
  H12      1.0000 0.74200  0.30920  0.68230  Biso   1.000  H
  H13      1.0000 0.31190  0.57200  0.16100  Biso   1.000  H
  H14      1.0000 0.42800  0.73990  0.16100  Biso   1.000  H
  H15      1.0000 0.26010  0.68810  0.16100  Biso   1.000  H
  H16      1.0000 0.57200  0.31190  0.66100  Biso   1.000  H
  H17      1.0000 0.73990  0.42800  0.66100  Biso   1.000  H
  H18      1.0000 0.68810  0.26010  0.66100  Biso   1.000  H
  O29      1.0000 0.09560  0.32380  0.33820  Biso   1.000  O
  O30      1.0000 0.67620  0.77180  0.33820  Biso   1.000  O
  O31      1.0000 0.22820  0.90440  0.33820  Biso   1.000  O
  O32      1.0000 0.32380  0.09560  0.83820  Biso   1.000  O
  O33      1.0000 0.77180  0.67620  0.83820  Biso   1.000  O
  O34      1.0000 0.90440  0.22820  0.83820  Biso   1.000  O
  H19      1.0000 0.05950  0.30150  0.36020  Biso   1.000  H
  H20      1.0000 0.69850  0.75800  0.36020  Biso   1.000  H
  H21      1.0000 0.24200  0.94050  0.36020  Biso   1.000  H
  H22      1.0000 0.30150  0.05950  0.86020  Biso   1.000  H
  H23      1.0000 0.75800  0.69850  0.86020  Biso   1.000  H
  H24      1.0000 0.94050  0.24200  0.86020  Biso   1.000  H
  H25      1.0000 0.11740  0.32490  0.39230  Biso   1.000  H
  H26      1.0000 0.67510  0.79250  0.39230  Biso   1.000  H
  H27      1.0000 0.20750  0.88260  0.39230  Biso   1.000  H
  H28      1.0000 0.32490  0.11740  0.89230  Biso   1.000  H
  H29      1.0000 0.79250  0.67510  0.89230  Biso   1.000  H
  H30      1.0000 0.88260  0.20750  0.89230  Biso   1.000  H
  O35      1.0000 0.34190  0.54810  0.31170  Biso   1.000  O
  O36      1.0000 0.45190  0.79380  0.31170  Biso   1.000  O
  O37      1.0000 0.20620  0.65810  0.31170  Biso   1.000  O
  O38      1.0000 0.54810  0.34190  0.81170  Biso   1.000  O
  O39      1.0000 0.79380  0.45190  0.81170  Biso   1.000  O
  O40      1.0000 0.65810  0.20620  0.81170  Biso   1.000  O
  H31      1.0000 0.31640  0.56010  0.31970  Biso   1.000  H
  H32      1.0000 0.43990  0.75630  0.31970  Biso   1.000  H
  H33      1.0000 0.24370  0.68360  0.31970  Biso   1.000  H
  H34      1.0000 0.56010  0.31640  0.81970  Biso   1.000  H
  H35      1.0000 0.75630  0.43990  0.81970  Biso   1.000  H
  H36      1.0000 0.68360  0.24370  0.81970  Biso   1.000  H
  H37      1.0000 0.36810  0.56650  0.36190  Biso   1.000  H
  H38      1.0000 0.43350  0.80160  0.36190  Biso   1.000  H
  H39      1.0000 0.19840  0.63190  0.36190  Biso   1.000  H
  H40      1.0000 0.56650  0.36810  0.86190  Biso   1.000  H
  H41      1.0000 0.80160  0.43350  0.86190  Biso   1.000  H
  H42      1.0000 0.63190  0.19840  0.86190  Biso   1.000  H
  N1       1.0000 0.11530  0.42230  0.19200  Biso   1.000  N
  N2       1.0000 0.57770  0.69300  0.19200  Biso   1.000  N
  N3       1.0000 0.30700  0.88470  0.19200  Biso   1.000  N
  N4       1.0000 0.42230  0.11530  0.69200  Biso   1.000  N
  N5       1.0000 0.69300  0.57770  0.69200  Biso   1.000  N
  N6       1.0000 0.88470  0.30700  0.69200  Biso   1.000  N
  N7       1.0000 0.14060  0.44200  0.09120  Biso   1.000  N
  N8       1.0000 0.55800  0.69860  0.09120  Biso   1.000  N
  N9       1.0000 0.30140  0.85940  0.09120  Biso   1.000  N
  N10      1.0000 0.44200  0.14060  0.59120  Biso   1.000  N
  N11      1.0000 0.69860  0.55800  0.59120  Biso   1.000  N
  N12      1.0000 0.85940  0.30140  0.59120  Biso   1.000  N
  C1       1.0000 0.11040  0.44850  0.00850  Biso   1.000  C
  C2       1.0000 0.55150  0.66190  0.00850  Biso   1.000  C
  C3       1.0000 0.33810  0.88960  0.00850  Biso   1.000  C
  C4       1.0000 0.44850  0.11040  0.50850  Biso   1.000  C
  C5       1.0000 0.66190  0.55150  0.50850  Biso   1.000  C
  C6       1.0000 0.88960  0.33810  0.50850  Biso   1.000  C
  H43      1.0000 0.12330  0.45860  0.93280  Biso   1.000  H
  H44      1.0000 0.54140  0.66470  0.93280  Biso   1.000  H
  H45      1.0000 0.33530  0.87670  0.93280  Biso   1.000  H
  H46      1.0000 0.45860  0.12330  0.43280  Biso   1.000  H
  H47      1.0000 0.66470  0.54140  0.43280  Biso   1.000  H
  H48      1.0000 0.87670  0.33530  0.43280  Biso   1.000  H
  N13      1.0000 0.05750  0.43800  0.05390  Biso   1.000  N
  N14      1.0000 0.56200  0.61950  0.05390  Biso   1.000  N
  N15      1.0000 0.38050  0.94250  0.05390  Biso   1.000  N
  N16      1.0000 0.43800  0.05750  0.55390  Biso   1.000  N
  N17      1.0000 0.61950  0.56200  0.55390  Biso   1.000  N
  N18      1.0000 0.94250  0.38050  0.55390  Biso   1.000  N
  C7       1.0000 0.05480  0.41350  0.16170  Biso   1.000  C
  C8       1.0000 0.58650  0.64130  0.16170  Biso   1.000  C
  C9       1.0000 0.35870  0.94520  0.16170  Biso   1.000  C
  C10      1.0000 0.41350  0.05480  0.66170  Biso   1.000  C
  C11      1.0000 0.64130  0.58650  0.66170  Biso   1.000  C
  C12      1.0000 0.94520  0.35870  0.66170  Biso   1.000  C
  H49      1.0000 0.01910  0.39420  0.20760  Biso   1.000  H
  H50      1.0000 0.60580  0.62490  0.20760  Biso   1.000  H
  H51      1.0000 0.37510  0.98090  0.20760  Biso   1.000  H
  H52      1.0000 0.39420  0.01910  0.70760  Biso   1.000  H
  H53      1.0000 0.62490  0.60580  0.70760  Biso   1.000  H
  H54      1.0000 0.98090  0.37510  0.70760  Biso   1.000  H
  C13      1.0000 0.00480  0.42940  0.98990  Biso   1.000  C
  C14      1.0000 0.57060  0.57540  0.98990  Biso   1.000  C
  C15      1.0000 0.42460  0.99520  0.98990  Biso   1.000  C
  C16      1.0000 0.42940  0.00480  0.48990  Biso   1.000  C
  C17      1.0000 0.57540  0.57060  0.48990  Biso   1.000  C
  C18      1.0000 0.99520  0.42460  0.48990  Biso   1.000  C
  H55      1.0000 0.02010  0.45670  0.92360  Biso   1.000  H
  H56      1.0000 0.54330  0.56340  0.92360  Biso   1.000  H
  H57      1.0000 0.43660  0.97990  0.92360  Biso   1.000  H
  H58      1.0000 0.45670  0.02010  0.42360  Biso   1.000  H
  H59      1.0000 0.56340  0.54330  0.42360  Biso   1.000  H
  H60      1.0000 0.97990  0.43660  0.42360  Biso   1.000  H
  H61      1.0000 0.98140  0.44330  0.03640  Biso   1.000  H
  H62      1.0000 0.55670  0.53810  0.03640  Biso   1.000  H
  H63      1.0000 0.46190  0.01860  0.03640  Biso   1.000  H
  H64      1.0000 0.44330  0.98140  0.53640  Biso   1.000  H
  H65      1.0000 0.53810  0.55670  0.53640  Biso   1.000  H
  H66      1.0000 0.01860  0.46190  0.53640  Biso   1.000  H
  C19      1.0000 0.96110  0.36530  0.95020  Biso   1.000  C
  C20      1.0000 0.63470  0.59580  0.95020  Biso   1.000  C
  C21      1.0000 0.40420  0.03890  0.95020  Biso   1.000  C
  C22      1.0000 0.36530  0.96110  0.45020  Biso   1.000  C
  C23      1.0000 0.59580  0.63470  0.45020  Biso   1.000  C
  C24      1.0000 0.03890  0.40420  0.45020  Biso   1.000  C
  O41      1.0000 0.91200  0.35340  0.90350  Biso   1.000  O
  O42      1.0000 0.64660  0.55860  0.90350  Biso   1.000  O
  O43      1.0000 0.44140  0.08800  0.90350  Biso   1.000  O
  O44      1.0000 0.35340  0.91200  0.40350  Biso   1.000  O
  O45      1.0000 0.55860  0.64660  0.40350  Biso   1.000  O
  O46      1.0000 0.08800  0.44140  0.40350  Biso   1.000  O
  O47      1.0000 0.97370  0.32810  0.94680  Biso   1.000  O
  O48      1.0000 0.67190  0.64560  0.94680  Biso   1.000  O
  O49      1.0000 0.35440  0.02630  0.94680  Biso   1.000  O
  O50      1.0000 0.32810  0.97370  0.44680  Biso   1.000  O
  O51      1.0000 0.64560  0.67190  0.44680  Biso   1.000  O
  O52      1.0000 0.02630  0.35440  0.44680  Biso   1.000  O
  N19      1.0000 0.25240  0.44640  0.46680  Biso   1.000  N
  N20      1.0000 0.55360  0.80600  0.46680  Biso   1.000  N
  N21      1.0000 0.19400  0.74760  0.46680  Biso   1.000  N
  N22      1.0000 0.44640  0.25240  0.96680  Biso   1.000  N
  N23      1.0000 0.80600  0.55360  0.96680  Biso   1.000  N
  N24      1.0000 0.74760  0.19400  0.96680  Biso   1.000  N
  N25      1.0000 0.19400  0.44910  0.47260  Biso   1.000  N
  N26      1.0000 0.55090  0.74490  0.47260  Biso   1.000  N
  N27      1.0000 0.25510  0.80600  0.47260  Biso   1.000  N
  N28      1.0000 0.44910  0.19400  0.97260  Biso   1.000  N
  N29      1.0000 0.74490  0.55090  0.97260  Biso   1.000  N
  N30      1.0000 0.80600  0.25510  0.97260  Biso   1.000  N
  C25      1.0000 0.19260  0.47050  0.56670  Biso   1.000  C
  C26      1.0000 0.52950  0.72210  0.56670  Biso   1.000  C
  C27      1.0000 0.27790  0.80740  0.56670  Biso   1.000  C
  C28      1.0000 0.47050  0.19260  0.06670  Biso   1.000  C
  C29      1.0000 0.72210  0.52950  0.06670  Biso   1.000  C
  C30      1.0000 0.80740  0.27790  0.06670  Biso   1.000  C
  H67      1.0000 0.15990  0.47680  0.59010  Biso   1.000  H
  H68      1.0000 0.52320  0.68310  0.59010  Biso   1.000  H
  H69      1.0000 0.31690  0.84010  0.59010  Biso   1.000  H
  H70      1.0000 0.47680  0.15990  0.09010  Biso   1.000  H
  H71      1.0000 0.68310  0.52320  0.09010  Biso   1.000  H
  H72      1.0000 0.84010  0.31690  0.09010  Biso   1.000  H
  N31      1.0000 0.24460  0.48450  0.63620  Biso   1.000  N
  N32      1.0000 0.51550  0.76010  0.63620  Biso   1.000  N
  N33      1.0000 0.23990  0.75540  0.63620  Biso   1.000  N
  N34      1.0000 0.48450  0.24460  0.13620  Biso   1.000  N
  N35      1.0000 0.76010  0.51550  0.13620  Biso   1.000  N
  N36      1.0000 0.75540  0.23990  0.13620  Biso   1.000  N
  C31      1.0000 0.27650  0.46830  0.56890  Biso   1.000  C
  C32      1.0000 0.53170  0.80820  0.56890  Biso   1.000  C
  C33      1.0000 0.19180  0.72350  0.56890  Biso   1.000  C
  C34      1.0000 0.46830  0.27650  0.06890  Biso   1.000  C
  C35      1.0000 0.80820  0.53170  0.06890  Biso   1.000  C
  C36      1.0000 0.72350  0.19180  0.06890  Biso   1.000  C
  H73      1.0000 0.31450  0.47200  0.59170  Biso   1.000  H
  H74      1.0000 0.52800  0.84250  0.59170  Biso   1.000  H
  H75      1.0000 0.15750  0.68550  0.59170  Biso   1.000  H
  H76      1.0000 0.47200  0.31450  0.09170  Biso   1.000  H
  H77      1.0000 0.84250  0.52800  0.09170  Biso   1.000  H
  H78      1.0000 0.68550  0.15750  0.09170  Biso   1.000  H
  C37      1.0000 0.25440  0.50930  0.74610  Biso   1.000  C
  C38      1.0000 0.49070  0.74510  0.74610  Biso   1.000  C
  C39      1.0000 0.25490  0.74560  0.74610  Biso   1.000  C
  C40      1.0000 0.50930  0.25440  0.24610  Biso   1.000  C
  C41      1.0000 0.74510  0.49070  0.24610  Biso   1.000  C
  C42      1.0000 0.74560  0.25490  0.24610  Biso   1.000  C
  H79      1.0000 0.23090  0.53120  0.75460  Biso   1.000  H
  H80      1.0000 0.46880  0.69970  0.75460  Biso   1.000  H
  H81      1.0000 0.30030  0.76910  0.75460  Biso   1.000  H
  H82      1.0000 0.53120  0.23090  0.25460  Biso   1.000  H
  H83      1.0000 0.69970  0.46880  0.25460  Biso   1.000  H
  H84      1.0000 0.76910  0.30030  0.25460  Biso   1.000  H
  H85      1.0000 0.29870  0.54020  0.75440  Biso   1.000  H
  H86      1.0000 0.45980  0.75850  0.75440  Biso   1.000  H
  H87      1.0000 0.24150  0.70130  0.75440  Biso   1.000  H
  H88      1.0000 0.54020  0.29870  0.25440  Biso   1.000  H
  H89      1.0000 0.75850  0.45980  0.25440  Biso   1.000  H
  H90      1.0000 0.70130  0.24150  0.25440  Biso   1.000  H
  C43      1.0000 0.23600  0.46220  0.84120  Biso   1.000  C
  C44      1.0000 0.53780  0.77380  0.84120  Biso   1.000  C
  C45      1.0000 0.22620  0.76400  0.84120  Biso   1.000  C
  C46      1.0000 0.46220  0.23600  0.34120  Biso   1.000  C
  C47      1.0000 0.77380  0.53780  0.34120  Biso   1.000  C
  C48      1.0000 0.76400  0.22620  0.34120  Biso   1.000  C
  O53      1.0000 0.24430  0.48620  0.93570  Biso   1.000  O
  O54      1.0000 0.51380  0.75810  0.93570  Biso   1.000  O
  O55      1.0000 0.24190  0.75570  0.93570  Biso   1.000  O
  O56      1.0000 0.48620  0.24430  0.43570  Biso   1.000  O
  O57      1.0000 0.75810  0.51380  0.43570  Biso   1.000  O
  O58      1.0000 0.75570  0.24190  0.43570  Biso   1.000  O
  O59      1.0000 0.21880  0.41250  0.81560  Biso   1.000  O
  O60      1.0000 0.58750  0.80630  0.81560  Biso   1.000  O
  O61      1.0000 0.19370  0.78120  0.81560  Biso   1.000  O
  O62      1.0000 0.41250  0.21880  0.31560  Biso   1.000  O
  O63      1.0000 0.80630  0.58750  0.31560  Biso   1.000  O
  O64      1.0000 0.78120  0.19370  0.31560  Biso   1.000  O
  N37      1.0000 0.30140  0.44440  0.08750  Biso   1.000  N
  N38      1.0000 0.55560  0.85700  0.08750  Biso   1.000  N
  N39      1.0000 0.14300  0.69860  0.08750  Biso   1.000  N
  N40      1.0000 0.44440  0.30140  0.58750  Biso   1.000  N
  N41      1.0000 0.85700  0.55560  0.58750  Biso   1.000  N
  N42      1.0000 0.69860  0.14300  0.58750  Biso   1.000  N
  N43      1.0000 0.30770  0.41840  0.18670  Biso   1.000  N
  N44      1.0000 0.58160  0.88930  0.18670  Biso   1.000  N
  N45      1.0000 0.11070  0.69230  0.18670  Biso   1.000  N
  N46      1.0000 0.41840  0.30770  0.68670  Biso   1.000  N
  N47      1.0000 0.88930  0.58160  0.68670  Biso   1.000  N
  N48      1.0000 0.69230  0.11070  0.68670  Biso   1.000  N
  C49      1.0000 0.36070  0.41090  0.15860  Biso   1.000  C
  C50      1.0000 0.58910  0.94980  0.15860  Biso   1.000  C
  C51      1.0000 0.05020  0.63930  0.15860  Biso   1.000  C
  C52      1.0000 0.41090  0.36070  0.65860  Biso   1.000  C
  C53      1.0000 0.94980  0.58910  0.65860  Biso   1.000  C
  C54      1.0000 0.63930  0.05020  0.65860  Biso   1.000  C
  H91      1.0000 0.37720  0.39240  0.20620  Biso   1.000  H
  H92      1.0000 0.60760  0.98480  0.20620  Biso   1.000  H
  H93      1.0000 0.01520  0.62280  0.20620  Biso   1.000  H
  H94      1.0000 0.39240  0.37720  0.70620  Biso   1.000  H
  H95      1.0000 0.98480  0.60760  0.70620  Biso   1.000  H
  H96      1.0000 0.62280  0.01520  0.70620  Biso   1.000  H
  N49      1.0000 0.38220  0.43350  0.05770  Biso   1.000  N
  N50      1.0000 0.56650  0.94870  0.05770  Biso   1.000  N
  N51      1.0000 0.05130  0.61780  0.05770  Biso   1.000  N
  N52      1.0000 0.43350  0.38220  0.55770  Biso   1.000  N
  N53      1.0000 0.94870  0.56650  0.55770  Biso   1.000  N
  N54      1.0000 0.61780  0.05130  0.55770  Biso   1.000  N
  C55      1.0000 0.34010  0.44930  0.00390  Biso   1.000  C
  C56      1.0000 0.55070  0.89080  0.00390  Biso   1.000  C
  C57      1.0000 0.10920  0.65990  0.00390  Biso   1.000  C
  C58      1.0000 0.44930  0.34010  0.50390  Biso   1.000  C
  C59      1.0000 0.89080  0.55070  0.50390  Biso   1.000  C
  C60      1.0000 0.65990  0.10920  0.50390  Biso   1.000  C
  H97      1.0000 0.33970  0.46040  0.92800  Biso   1.000  H
  H98      1.0000 0.53960  0.87930  0.92800  Biso   1.000  H
  H99      1.0000 0.12070  0.66030  0.92800  Biso   1.000  H
  H100     1.0000 0.46040  0.33970  0.42800  Biso   1.000  H
  H101     1.0000 0.87930  0.53960  0.42800  Biso   1.000  H
  H102     1.0000 0.66030  0.12070  0.42800  Biso   1.000  H
  C61      1.0000 0.42910  0.43250  0.98900  Biso   1.000  C
  C62      1.0000 0.56750  0.99660  0.98900  Biso   1.000  C
  C63      1.0000 0.00340  0.57090  0.98900  Biso   1.000  C
  C64      1.0000 0.43250  0.42910  0.48900  Biso   1.000  C
  C65      1.0000 0.99660  0.56750  0.48900  Biso   1.000  C
  C66      1.0000 0.57090  0.00340  0.48900  Biso   1.000  C
  H103     1.0000 0.46750  0.44840  0.03340  Biso   1.000  H
  H104     1.0000 0.55160  0.01910  0.03340  Biso   1.000  H
  H105     1.0000 0.98090  0.53250  0.03340  Biso   1.000  H
  H106     1.0000 0.44840  0.46750  0.53340  Biso   1.000  H
  H107     1.0000 0.01910  0.55160  0.53340  Biso   1.000  H
  H108     1.0000 0.53250  0.98090  0.53340  Biso   1.000  H
  H109     1.0000 0.43790  0.46050  0.92450  Biso   1.000  H
  H110     1.0000 0.53950  0.97740  0.92450  Biso   1.000  H
  H111     1.0000 0.02260  0.56210  0.92450  Biso   1.000  H
  H112     1.0000 0.46050  0.43790  0.42450  Biso   1.000  H
  H113     1.0000 0.97740  0.53950  0.42450  Biso   1.000  H
  H114     1.0000 0.56210  0.02260  0.42450  Biso   1.000  H
  C67      1.0000 0.41090  0.36860  0.94570  Biso   1.000  C
  C68      1.0000 0.63140  0.04230  0.94570  Biso   1.000  C
  C69      1.0000 0.95770  0.58910  0.94570  Biso   1.000  C
  C70      1.0000 0.36860  0.41090  0.44570  Biso   1.000  C
  C71      1.0000 0.04230  0.63140  0.44570  Biso   1.000  C
  C72      1.0000 0.58910  0.95770  0.44570  Biso   1.000  C
  O65      1.0000 0.45270  0.36140  0.90800  Biso   1.000  O
  O66      1.0000 0.63860  0.09130  0.90800  Biso   1.000  O
  O67      1.0000 0.90870  0.54730  0.90800  Biso   1.000  O
  O68      1.0000 0.36140  0.45270  0.40800  Biso   1.000  O
  O69      1.0000 0.09130  0.63860  0.40800  Biso   1.000  O
  O70      1.0000 0.54730  0.90870  0.40800  Biso   1.000  O
  O71      1.0000 0.35710  0.32940  0.94600  Biso   1.000  O
  O72      1.0000 0.67060  0.02770  0.94600  Biso   1.000  O
  O73      1.0000 0.97230  0.64290  0.94600  Biso   1.000  O
  O74      1.0000 0.32940  0.35710  0.44600  Biso   1.000  O
  O75      1.0000 0.02770  0.67060  0.44600  Biso   1.000  O
  O76      1.0000 0.64290  0.97230  0.44600  Biso   1.000  O
  Cu19     1.0000 0.15164  0.43680  0.17016  Biso   1.000  Cu
  Cu20     1.0000 0.56320  0.71484  0.17016  Biso   1.000  Cu
  Cu21     1.0000 0.28516  0.84836  0.17016  Biso   1.000  Cu
  Cu22     1.0000 0.43680  0.15164  0.67016  Biso   1.000  Cu
  Cu23     1.0000 0.71484  0.56320  0.67016  Biso   1.000  Cu
  Cu24     1.0000 0.84836  0.28516  0.67016  Biso   1.000  Cu
  Cu25     1.0000 0.22507  0.44940  0.41564  Biso   1.000  Cu
  Cu26     1.0000 0.55060  0.77567  0.41564  Biso   1.000  Cu
  Cu27     1.0000 0.22433  0.77493  0.41564  Biso   1.000  Cu
  Cu28     1.0000 0.44940  0.22507  0.91564  Biso   1.000  Cu
  Cu29     1.0000 0.77567  0.55060  0.91564  Biso   1.000  Cu
  Cu30     1.0000 0.77493  0.22433  0.91564  Biso   1.000  Cu
  Cu31     1.0000 0.28232  0.43434  0.16999  Biso   1.000  Cu
  Cu32     1.0000 0.56566  0.84798  0.16999  Biso   1.000  Cu
  Cu33     1.0000 0.15202  0.71768  0.16999  Biso   1.000  Cu
  Cu34     1.0000 0.43434  0.28232  0.66999  Biso   1.000  Cu
  Cu35     1.0000 0.84798  0.56566  0.66999  Biso   1.000  Cu
  Cu36     1.0000 0.71768  0.15202  0.66999  Biso   1.000  Cu
  O77      1.0000 0.21100  0.41590  0.24790  Biso   1.000  O
  O78      1.0000 0.58410  0.79510  0.24790  Biso   1.000  O
  O79      1.0000 0.20490  0.78900  0.24790  Biso   1.000  O
  O80      1.0000 0.41590  0.21100  0.74790  Biso   1.000  O
  O81      1.0000 0.79510  0.58410  0.74790  Biso   1.000  O
  O82      1.0000 0.78900  0.20490  0.74790  Biso   1.000  O
  H115     1.0000 0.18840  0.38020  0.26540  Biso   1.000  H
  H116     1.0000 0.61980  0.80820  0.26540  Biso   1.000  H
  H117     1.0000 0.19180  0.81160  0.26540  Biso   1.000  H
  H118     1.0000 0.38020  0.18840  0.76540  Biso   1.000  H
  H119     1.0000 0.80820  0.61980  0.76540  Biso   1.000  H
  H120     1.0000 0.81160  0.19180  0.76540  Biso   1.000  H
  O83      1.0000 0.09610  0.32480  0.15870  Biso   1.000  O
  O84      1.0000 0.67520  0.77130  0.15870  Biso   1.000  O
  O85      1.0000 0.22870  0.90390  0.15870  Biso   1.000  O
  O86      1.0000 0.32480  0.09610  0.65870  Biso   1.000  O
  O87      1.0000 0.77130  0.67520  0.65870  Biso   1.000  O
  O88      1.0000 0.90390  0.22870  0.65870  Biso   1.000  O
  H121     1.0000 0.11560  0.31180  0.12180  Biso   1.000  H
  H122     1.0000 0.68820  0.80380  0.12180  Biso   1.000  H
  H123     1.0000 0.19620  0.88440  0.12180  Biso   1.000  H
  H124     1.0000 0.31180  0.11560  0.62180  Biso   1.000  H
  H125     1.0000 0.80380  0.68820  0.62180  Biso   1.000  H
  H126     1.0000 0.88440  0.19620  0.62180  Biso   1.000  H
  H127     1.0000 0.09170  0.30860  0.22190  Biso   1.000  H
  H128     1.0000 0.69140  0.78310  0.22190  Biso   1.000  H
  H129     1.0000 0.21690  0.90830  0.22190  Biso   1.000  H
  H130     1.0000 0.30860  0.09170  0.72190  Biso   1.000  H
  H131     1.0000 0.78310  0.69140  0.72190  Biso   1.000  H
  H132     1.0000 0.90830  0.21690  0.72190  Biso   1.000  H
  O89      1.0000 0.27550  0.55680  0.36800  Biso   1.000  O
  O90      1.0000 0.44320  0.71870  0.36800  Biso   1.000  O
  O91      1.0000 0.28130  0.72450  0.36800  Biso   1.000  O
  O92      1.0000 0.55680  0.27550  0.86800  Biso   1.000  O
  O93      1.0000 0.71870  0.44320  0.86800  Biso   1.000  O
  O94      1.0000 0.72450  0.28130  0.86800  Biso   1.000  O
  H133     1.0000 0.28760  0.58120  0.31400  Biso   1.000  H
  H134     1.0000 0.41880  0.70640  0.31400  Biso   1.000  H
  H135     1.0000 0.29360  0.71240  0.31400  Biso   1.000  H
  H136     1.0000 0.58120  0.28760  0.81400  Biso   1.000  H
  H137     1.0000 0.70640  0.41880  0.81400  Biso   1.000  H
  H138     1.0000 0.71240  0.29360  0.81400  Biso   1.000  H
  H139     1.0000 0.30790  0.56110  0.39670  Biso   1.000  H
  H140     1.0000 0.43890  0.74680  0.39670  Biso   1.000  H
  H141     1.0000 0.25320  0.69210  0.39670  Biso   1.000  H
  H142     1.0000 0.56110  0.30790  0.89670  Biso   1.000  H
  H143     1.0000 0.74680  0.43890  0.89670  Biso   1.000  H
  H144     1.0000 0.69210  0.25320  0.89670  Biso   1.000  H
  O95      1.0000 0.34280  0.54710  0.19170  Biso   1.000  O
  O96      1.0000 0.45290  0.79570  0.19170  Biso   1.000  O
  O97      1.0000 0.20430  0.65720  0.19170  Biso   1.000  O
  O98      1.0000 0.54710  0.34280  0.69170  Biso   1.000  O
  O99      1.0000 0.79570  0.45290  0.69170  Biso   1.000  O
  O100     1.0000 0.65720  0.20430  0.69170  Biso   1.000  O
  H145     1.0000 0.32050  0.55970  0.21900  Biso   1.000  H
  H146     1.0000 0.44030  0.76080  0.21900  Biso   1.000  H
  H147     1.0000 0.23920  0.67950  0.21900  Biso   1.000  H
  H148     1.0000 0.55970  0.32050  0.71900  Biso   1.000  H
  H149     1.0000 0.76080  0.44030  0.71900  Biso   1.000  H
  H150     1.0000 0.67950  0.23920  0.71900  Biso   1.000  H
  H151     1.0000 0.35410  0.56510  0.12990  Biso   1.000  H
  H152     1.0000 0.43490  0.78900  0.12990  Biso   1.000  H
  H153     1.0000 0.21100  0.64590  0.12990  Biso   1.000  H
  H154     1.0000 0.56510  0.35410  0.62990  Biso   1.000  H
  H155     1.0000 0.78900  0.43490  0.62990  Biso   1.000  H
  H156     1.0000 0.64590  0.21100  0.62990  Biso   1.000  H
  N55      1.0000 0.32720  0.43660  0.31870  Biso   1.000  N
  N56      1.0000 0.56340  0.89060  0.31870  Biso   1.000  N
  N57      1.0000 0.10940  0.67280  0.31870  Biso   1.000  N
  N58      1.0000 0.43660  0.32720  0.81870  Biso   1.000  N
  N59      1.0000 0.89060  0.56340  0.81870  Biso   1.000  N
  N60      1.0000 0.67280  0.10940  0.81870  Biso   1.000  N
  N61      1.0000 0.30040  0.44370  0.41630  Biso   1.000  N
  N62      1.0000 0.55630  0.85670  0.41630  Biso   1.000  N
  N63      1.0000 0.14330  0.69960  0.41630  Biso   1.000  N
  N64      1.0000 0.44370  0.30040  0.91630  Biso   1.000  N
  N65      1.0000 0.85670  0.55630  0.91630  Biso   1.000  N
  N66      1.0000 0.69960  0.14330  0.91630  Biso   1.000  N
  C73      1.0000 0.33540  0.44100  0.48940  Biso   1.000  C
  C74      1.0000 0.55900  0.89440  0.48940  Biso   1.000  C
  C75      1.0000 0.10560  0.66460  0.48940  Biso   1.000  C
  C76      1.0000 0.44100  0.33540  0.98940  Biso   1.000  C
  C77      1.0000 0.89440  0.55900  0.98940  Biso   1.000  C
  C78      1.0000 0.66460  0.10560  0.98940  Biso   1.000  C
  H157     1.0000 0.32980  0.44480  0.56710  Biso   1.000  H
  H158     1.0000 0.55520  0.88500  0.56710  Biso   1.000  H
  H159     1.0000 0.11500  0.67020  0.56710  Biso   1.000  H
  H160     1.0000 0.44480  0.32980  0.06710  Biso   1.000  H
  H161     1.0000 0.88500  0.55520  0.06710  Biso   1.000  H
  H162     1.0000 0.67020  0.11500  0.06710  Biso   1.000  H
  N67      1.0000 0.37860  0.43300  0.45330  Biso   1.000  N
  N68      1.0000 0.56700  0.94560  0.45330  Biso   1.000  N
  N69      1.0000 0.05440  0.62140  0.45330  Biso   1.000  N
  N70      1.0000 0.43300  0.37860  0.95330  Biso   1.000  N
  N71      1.0000 0.94560  0.56700  0.95330  Biso   1.000  N
  N72      1.0000 0.62140  0.05440  0.95330  Biso   1.000  N
  C79      1.0000 0.37600  0.43740  0.33700  Biso   1.000  C
  C80      1.0000 0.56260  0.93860  0.33700  Biso   1.000  C
  C81      1.0000 0.06140  0.62400  0.33700  Biso   1.000  C
  C82      1.0000 0.43740  0.37600  0.83700  Biso   1.000  C
  C83      1.0000 0.93860  0.56260  0.83700  Biso   1.000  C
  C84      1.0000 0.62400  0.06140  0.83700  Biso   1.000  C
  H163     1.0000 0.40560  0.44050  0.28360  Biso   1.000  H
  H164     1.0000 0.55950  0.96510  0.28360  Biso   1.000  H
  H165     1.0000 0.03490  0.59440  0.28360  Biso   1.000  H
  H166     1.0000 0.44050  0.40560  0.78360  Biso   1.000  H
  H167     1.0000 0.96510  0.55950  0.78360  Biso   1.000  H
  H168     1.0000 0.59440  0.03490  0.78360  Biso   1.000  H
  C85      1.0000 0.42730  0.42800  0.50350  Biso   1.000  C
  C86      1.0000 0.57200  0.99930  0.50350  Biso   1.000  C
  C87      1.0000 0.00070  0.57270  0.50350  Biso   1.000  C
  C88      1.0000 0.42800  0.42730  0.00350  Biso   1.000  C
  C89      1.0000 0.99930  0.57200  0.00350  Biso   1.000  C
  C90      1.0000 0.57270  0.00070  0.00350  Biso   1.000  C
  H169     1.0000 0.43990  0.45280  0.57330  Biso   1.000  H
  H170     1.0000 0.54720  0.98710  0.57330  Biso   1.000  H
  H171     1.0000 0.01290  0.56010  0.57330  Biso   1.000  H
  H172     1.0000 0.45280  0.43990  0.07330  Biso   1.000  H
  H173     1.0000 0.98710  0.54720  0.07330  Biso   1.000  H
  H174     1.0000 0.56010  0.01290  0.07330  Biso   1.000  H
  H175     1.0000 0.46310  0.44620  0.45210  Biso   1.000  H
  H176     1.0000 0.55380  0.01690  0.45210  Biso   1.000  H
  H177     1.0000 0.98310  0.53690  0.45210  Biso   1.000  H
  H178     1.0000 0.44620  0.46310  0.95210  Biso   1.000  H
  H179     1.0000 0.01690  0.55380  0.95210  Biso   1.000  H
  H180     1.0000 0.53690  0.98310  0.95210  Biso   1.000  H
  C91      1.0000 0.41140  0.36250  0.53160  Biso   1.000  C
  C92      1.0000 0.63750  0.04890  0.53160  Biso   1.000  C
  C93      1.0000 0.95110  0.58860  0.53160  Biso   1.000  C
  C94      1.0000 0.36250  0.41140  0.03160  Biso   1.000  C
  C95      1.0000 0.04890  0.63750  0.03160  Biso   1.000  C
  C96      1.0000 0.58860  0.95110  0.03160  Biso   1.000  C
  O101     1.0000 0.45110  0.36130  0.59250  Biso   1.000  O
  O102     1.0000 0.63870  0.08980  0.59250  Biso   1.000  O
  O103     1.0000 0.91020  0.54890  0.59250  Biso   1.000  O
  O104     1.0000 0.36130  0.45110  0.09250  Biso   1.000  O
  O105     1.0000 0.08980  0.63870  0.09250  Biso   1.000  O
  O106     1.0000 0.54890  0.91020  0.09250  Biso   1.000  O
  O107     1.0000 0.36230  0.31880  0.48060  Biso   1.000  O
  O108     1.0000 0.68120  0.04350  0.48060  Biso   1.000  O
  O109     1.0000 0.95650  0.63770  0.48060  Biso   1.000  O
  O110     1.0000 0.31880  0.36230  0.98060  Biso   1.000  O
  O111     1.0000 0.04350  0.68120  0.98060  Biso   1.000  O
  O112     1.0000 0.63770  0.95650  0.98060  Biso   1.000  O
  N73      1.0000 0.20040  0.45540  0.02330  Biso   1.000  N
  N74      1.0000 0.54460  0.74500  0.02330  Biso   1.000  N
  N75      1.0000 0.25500  0.79960  0.02330  Biso   1.000  N
  N76      1.0000 0.45540  0.20040  0.52330  Biso   1.000  N
  N77      1.0000 0.74500  0.54460  0.52330  Biso   1.000  N
  N78      1.0000 0.79960  0.25500  0.52330  Biso   1.000  N
  N79      1.0000 0.25040  0.45230  0.02610  Biso   1.000  N
  N80      1.0000 0.54770  0.79810  0.02610  Biso   1.000  N
  N81      1.0000 0.20190  0.74960  0.02610  Biso   1.000  N
  N82      1.0000 0.45230  0.25040  0.52610  Biso   1.000  N
  N83      1.0000 0.79810  0.54770  0.52610  Biso   1.000  N
  N84      1.0000 0.74960  0.20190  0.52610  Biso   1.000  N
  C97      1.0000 0.27920  0.47320  0.92850  Biso   1.000  C
  C98      1.0000 0.52680  0.80600  0.92850  Biso   1.000  C
  C99      1.0000 0.19400  0.72080  0.92850  Biso   1.000  C
  C100     1.0000 0.47320  0.27920  0.42850  Biso   1.000  C
  C101     1.0000 0.80600  0.52680  0.42850  Biso   1.000  C
  C102     1.0000 0.72080  0.19400  0.42850  Biso   1.000  C
  H181     1.0000 0.31730  0.47670  0.90690  Biso   1.000  H
  H182     1.0000 0.52330  0.84060  0.90690  Biso   1.000  H
  H183     1.0000 0.15940  0.68270  0.90690  Biso   1.000  H
  H184     1.0000 0.47670  0.31730  0.40690  Biso   1.000  H
  H185     1.0000 0.84060  0.52330  0.40690  Biso   1.000  H
  H186     1.0000 0.68270  0.15940  0.40690  Biso   1.000  H
  N85      1.0000 0.24580  0.48760  0.86940  Biso   1.000  N
  N86      1.0000 0.51240  0.75820  0.86940  Biso   1.000  N
  N87      1.0000 0.24180  0.75420  0.86940  Biso   1.000  N
  N88      1.0000 0.48760  0.24580  0.36940  Biso   1.000  N
  N89      1.0000 0.75820  0.51240  0.36940  Biso   1.000  N
  N90      1.0000 0.75420  0.24180  0.36940  Biso   1.000  N
  C103     1.0000 0.19270  0.47520  0.92730  Biso   1.000  C
  C104     1.0000 0.52480  0.71750  0.92730  Biso   1.000  C
  C105     1.0000 0.28250  0.80730  0.92730  Biso   1.000  C
  C106     1.0000 0.47520  0.19270  0.42730  Biso   1.000  C
  C107     1.0000 0.71750  0.52480  0.42730  Biso   1.000  C
  C108     1.0000 0.80730  0.28250  0.42730  Biso   1.000  C
  H187     1.0000 0.15930  0.48000  0.90280  Biso   1.000  H
  H188     1.0000 0.52000  0.67930  0.90280  Biso   1.000  H
  H189     1.0000 0.32070  0.84070  0.90280  Biso   1.000  H
  H190     1.0000 0.48000  0.15930  0.40280  Biso   1.000  H
  H191     1.0000 0.67930  0.52000  0.40280  Biso   1.000  H
  H192     1.0000 0.84070  0.32070  0.40280  Biso   1.000  H
  C109     1.0000 0.25780  0.51480  0.75740  Biso   1.000  C
  C110     1.0000 0.48520  0.74300  0.75740  Biso   1.000  C
  C111     1.0000 0.25700  0.74220  0.75740  Biso   1.000  C
  C112     1.0000 0.51480  0.25780  0.25740  Biso   1.000  C
  C113     1.0000 0.74300  0.48520  0.25740  Biso   1.000  C
  C114     1.0000 0.74220  0.25700  0.25740  Biso   1.000  C
  H193     1.0000 0.30250  0.54400  0.74850  Biso   1.000  H
  H194     1.0000 0.45600  0.75850  0.74850  Biso   1.000  H
  H195     1.0000 0.24150  0.69750  0.74850  Biso   1.000  H
  H196     1.0000 0.54400  0.30250  0.24850  Biso   1.000  H
  H197     1.0000 0.75850  0.45600  0.24850  Biso   1.000  H
  H198     1.0000 0.69750  0.24150  0.24850  Biso   1.000  H
  H199     1.0000 0.23570  0.53800  0.74770  Biso   1.000  H
  H200     1.0000 0.46200  0.69770  0.74770  Biso   1.000  H
  H201     1.0000 0.30230  0.76430  0.74770  Biso   1.000  H
  H202     1.0000 0.53800  0.23570  0.24770  Biso   1.000  H
  H203     1.0000 0.69770  0.46200  0.24770  Biso   1.000  H
  H204     1.0000 0.76430  0.30230  0.24770  Biso   1.000  H
  C115     1.0000 0.23630  0.46390  0.66690  Biso   1.000  C
  C116     1.0000 0.53610  0.77240  0.66690  Biso   1.000  C
  C117     1.0000 0.22760  0.76370  0.66690  Biso   1.000  C
  C118     1.0000 0.46390  0.23630  0.16690  Biso   1.000  C
  C119     1.0000 0.77240  0.53610  0.16690  Biso   1.000  C
  C120     1.0000 0.76370  0.22760  0.16690  Biso   1.000  C
  O113     1.0000 0.24450  0.48550  0.56840  Biso   1.000  O
  O114     1.0000 0.51450  0.75900  0.56840  Biso   1.000  O
  O115     1.0000 0.24100  0.75550  0.56840  Biso   1.000  O
  O116     1.0000 0.48550  0.24450  0.06840  Biso   1.000  O
  O117     1.0000 0.75900  0.51450  0.06840  Biso   1.000  O
  O118     1.0000 0.75550  0.24100  0.06840  Biso   1.000  O
  O119     1.0000 0.21670  0.40960  0.68680  Biso   1.000  O
  O120     1.0000 0.59040  0.80710  0.68680  Biso   1.000  O
  O121     1.0000 0.19290  0.78330  0.68680  Biso   1.000  O
  O122     1.0000 0.40960  0.21670  0.18680  Biso   1.000  O
  O123     1.0000 0.80710  0.59040  0.18680  Biso   1.000  O
  O124     1.0000 0.78330  0.19290  0.18680  Biso   1.000  O
  N91      1.0000 0.14300  0.44310  0.41300  Biso   1.000  N
  N92      1.0000 0.55690  0.69990  0.41300  Biso   1.000  N
  N93      1.0000 0.30010  0.85700  0.41300  Biso   1.000  N
  N94      1.0000 0.44310  0.14300  0.91300  Biso   1.000  N
  N95      1.0000 0.69990  0.55690  0.91300  Biso   1.000  N
  N96      1.0000 0.85700  0.30010  0.91300  Biso   1.000  N
  N97      1.0000 0.11030  0.43880  0.31510  Biso   1.000  N
  N98      1.0000 0.56120  0.67150  0.31510  Biso   1.000  N
  N99      1.0000 0.32850  0.88970  0.31510  Biso   1.000  N
  N100     1.0000 0.43880  0.11030  0.81510  Biso   1.000  N
  N101     1.0000 0.67150  0.56120  0.81510  Biso   1.000  N
  N102     1.0000 0.88970  0.32850  0.81510  Biso   1.000  N
  C121     1.0000 0.06180  0.43510  0.33540  Biso   1.000  C
  C122     1.0000 0.56490  0.62670  0.33540  Biso   1.000  C
  C123     1.0000 0.37330  0.93820  0.33540  Biso   1.000  C
  C124     1.0000 0.43510  0.06180  0.83540  Biso   1.000  C
  C125     1.0000 0.62670  0.56490  0.83540  Biso   1.000  C
  C126     1.0000 0.93820  0.37330  0.83540  Biso   1.000  C
  H205     1.0000 0.03220  0.43190  0.28200  Biso   1.000  H
  H206     1.0000 0.56810  0.60030  0.28200  Biso   1.000  H
  H207     1.0000 0.39970  0.96780  0.28200  Biso   1.000  H
  H208     1.0000 0.43190  0.03220  0.78200  Biso   1.000  H
  H209     1.0000 0.60030  0.56810  0.78200  Biso   1.000  H
  H210     1.0000 0.96780  0.39970  0.78200  Biso   1.000  H
  N103     1.0000 0.05630  0.43640  0.45220  Biso   1.000  N
  N104     1.0000 0.56360  0.61990  0.45220  Biso   1.000  N
  N105     1.0000 0.38010  0.94370  0.45220  Biso   1.000  N
  N106     1.0000 0.43640  0.05630  0.95220  Biso   1.000  N
  N107     1.0000 0.61990  0.56360  0.95220  Biso   1.000  N
  N108     1.0000 0.94370  0.38010  0.95220  Biso   1.000  N
  C127     1.0000 0.10620  0.44170  0.48580  Biso   1.000  C
  C128     1.0000 0.55830  0.66450  0.48580  Biso   1.000  C
  C129     1.0000 0.33550  0.89380  0.48580  Biso   1.000  C
  C130     1.0000 0.44170  0.10620  0.98580  Biso   1.000  C
  C131     1.0000 0.66450  0.55830  0.98580  Biso   1.000  C
  C132     1.0000 0.89380  0.33550  0.98580  Biso   1.000  C
  H211     1.0000 0.11580  0.44460  0.56340  Biso   1.000  H
  H212     1.0000 0.55540  0.67120  0.56340  Biso   1.000  H
  H213     1.0000 0.32880  0.88420  0.56340  Biso   1.000  H
  H214     1.0000 0.44460  0.11580  0.06340  Biso   1.000  H
  H215     1.0000 0.67120  0.55540  0.06340  Biso   1.000  H
  H216     1.0000 0.88420  0.32880  0.06340  Biso   1.000  H
  C133     1.0000 0.00130  0.42980  0.50400  Biso   1.000  C
  C134     1.0000 0.57020  0.57150  0.50400  Biso   1.000  C
  C135     1.0000 0.42850  0.99870  0.50400  Biso   1.000  C
  C136     1.0000 0.42980  0.00130  0.00400  Biso   1.000  C
  C137     1.0000 0.57150  0.57020  0.00400  Biso   1.000  C
  C138     1.0000 0.99870  0.42850  0.00400  Biso   1.000  C
  H217     1.0000 0.98190  0.44600  0.45220  Biso   1.000  H
  H218     1.0000 0.55400  0.53590  0.45220  Biso   1.000  H
  H219     1.0000 0.46410  0.01810  0.45220  Biso   1.000  H
  H220     1.0000 0.44600  0.98190  0.95220  Biso   1.000  H
  H221     1.0000 0.53590  0.55400  0.95220  Biso   1.000  H
  H222     1.0000 0.01810  0.46410  0.95220  Biso   1.000  H
  H223     1.0000 0.01310  0.45530  0.57280  Biso   1.000  H
  H224     1.0000 0.54470  0.55780  0.57280  Biso   1.000  H
  H225     1.0000 0.44220  0.98690  0.57280  Biso   1.000  H
  H226     1.0000 0.45530  0.01310  0.07280  Biso   1.000  H
  H227     1.0000 0.55780  0.54470  0.07280  Biso   1.000  H
  H228     1.0000 0.98690  0.44220  0.07280  Biso   1.000  H
  C139     1.0000 0.95450  0.36440  0.53430  Biso   1.000  C
  C140     1.0000 0.63560  0.59010  0.53430  Biso   1.000  C
  C141     1.0000 0.40990  0.04550  0.53430  Biso   1.000  C
  C142     1.0000 0.36440  0.95450  0.03430  Biso   1.000  C
  C143     1.0000 0.59010  0.63560  0.03430  Biso   1.000  C
  C144     1.0000 0.04550  0.40990  0.03430  Biso   1.000  C
  O125     1.0000 0.91120  0.35400  0.59890  Biso   1.000  O
  O126     1.0000 0.64600  0.55720  0.59890  Biso   1.000  O
  O127     1.0000 0.44280  0.08880  0.59890  Biso   1.000  O
  O128     1.0000 0.35400  0.91120  0.09890  Biso   1.000  O
  O129     1.0000 0.55720  0.64600  0.09890  Biso   1.000  O
  O130     1.0000 0.08880  0.44280  0.09890  Biso   1.000  O
  O131     1.0000 0.95750  0.31890  0.48210  Biso   1.000  O
  O132     1.0000 0.68110  0.63860  0.48210  Biso   1.000  O
  O133     1.0000 0.36140  0.04250  0.48210  Biso   1.000  O
  O134     1.0000 0.31890  0.95750  0.98210  Biso   1.000  O
  O135     1.0000 0.63860  0.68110  0.98210  Biso   1.000  O
  O136     1.0000 0.04250  0.36140  0.98210  Biso   1.000  O
