data_image0
_cell_length_a       38.1763
_cell_length_b       31.3516
_cell_length_c       29.1087
_cell_angle_alpha    90
_cell_angle_beta     90
_cell_angle_gamma    90

_symmetry_space_group_name_H-M    "P 1"
_symmetry_int_tables_number       1

loop_
  _symmetry_equiv_pos_as_xyz
  'x, y, z'

loop_
  _atom_site_label
  _atom_site_occupancy
  _atom_site_fract_x
  _atom_site_fract_y
  _atom_site_fract_z
  _atom_site_thermal_displace_type
  _atom_site_B_iso_or_equiv
  _atom_site_type_symbol
  Cu1      1.0000 0.48748  0.91721  0.67038  Biso   1.000  Cu
  Cu2      1.0000 0.51252  0.08279  0.17038  Biso   1.000  Cu
  Cu3      1.0000 0.98748  0.08279  0.67038  Biso   1.000  Cu
  Cu4      1.0000 0.01252  0.91721  0.17038  Biso   1.000  Cu
  Cu5      1.0000 0.47967  0.58352  0.69080  Biso   1.000  Cu
  Cu6      1.0000 0.52033  0.41648  0.19080  Biso   1.000  Cu
  Cu7      1.0000 0.97967  0.41648  0.69080  Biso   1.000  Cu
  Cu8      1.0000 0.02033  0.58352  0.19080  Biso   1.000  Cu
  Cu9      1.0000 0.53705  0.58657  0.30978  Biso   1.000  Cu
  Cu10     1.0000 0.46295  0.41343  0.80978  Biso   1.000  Cu
  Cu11     1.0000 0.03705  0.41343  0.30978  Biso   1.000  Cu
  Cu12     1.0000 0.96295  0.58657  0.80978  Biso   1.000  Cu
  Cu13     1.0000 0.50395  0.91738  0.31443  Biso   1.000  Cu
  Cu14     1.0000 0.49605  0.08262  0.81443  Biso   1.000  Cu
  Cu15     1.0000 0.00395  0.08262  0.31443  Biso   1.000  Cu
  Cu16     1.0000 0.99605  0.91738  0.81443  Biso   1.000  Cu
  Cu17     1.0000 0.30176  0.74644  0.47583  Biso   1.000  Cu
  Cu18     1.0000 0.69824  0.25356  0.97583  Biso   1.000  Cu
  Cu19     1.0000 0.80176  0.25356  0.47583  Biso   1.000  Cu
  Cu20     1.0000 0.19824  0.74644  0.97583  Biso   1.000  Cu
  Cu21     1.0000 0.70021  0.76705  0.52099  Biso   1.000  Cu
  Cu22     1.0000 0.29979  0.23295  0.02099  Biso   1.000  Cu
  Cu23     1.0000 0.20021  0.23295  0.52099  Biso   1.000  Cu
  Cu24     1.0000 0.79979  0.76705  0.02099  Biso   1.000  Cu
  Cr1      1.0000 0.31246  0.76200  0.77709  Biso   1.000  Cr
  Cr2      1.0000 0.68754  0.23800  0.27709  Biso   1.000  Cr
  Cr3      1.0000 0.81246  0.23800  0.77709  Biso   1.000  Cr
  Cr4      1.0000 0.18754  0.76200  0.27709  Biso   1.000  Cr
  Cr5      1.0000 0.36418  0.73040  0.18667  Biso   1.000  Cr
  Cr6      1.0000 0.63582  0.26960  0.68667  Biso   1.000  Cr
  Cr7      1.0000 0.86418  0.26960  0.18667  Biso   1.000  Cr
  Cr8      1.0000 0.13582  0.73040  0.68667  Biso   1.000  Cr
  Cr9      1.0000 0.69153  0.77906  0.22172  Biso   1.000  Cr
  Cr10     1.0000 0.30847  0.22094  0.72172  Biso   1.000  Cr
  Cr11     1.0000 0.19153  0.22094  0.22172  Biso   1.000  Cr
  Cr12     1.0000 0.80847  0.77906  0.72172  Biso   1.000  Cr
  Cr13     1.0000 0.63751  0.75101  0.81477  Biso   1.000  Cr
  Cr14     1.0000 0.36249  0.24899  0.31477  Biso   1.000  Cr
  Cr15     1.0000 0.13751  0.24899  0.81477  Biso   1.000  Cr
  Cr16     1.0000 0.86249  0.75101  0.31477  Biso   1.000  Cr
  Cr17     1.0000 0.36095  0.47239  0.46356  Biso   1.000  Cr
  Cr18     1.0000 0.63905  0.52761  0.96356  Biso   1.000  Cr
  Cr19     1.0000 0.86095  0.52761  0.46356  Biso   1.000  Cr
  Cr20     1.0000 0.13905  0.47239  0.96356  Biso   1.000  Cr
  Cr21     1.0000 0.33304  0.02471  0.47888  Biso   1.000  Cr
  Cr22     1.0000 0.66696  0.97529  0.97888  Biso   1.000  Cr
  Cr23     1.0000 0.83304  0.97529  0.47888  Biso   1.000  Cr
  Cr24     1.0000 0.16696  0.02471  0.97888  Biso   1.000  Cr
  Cr25     1.0000 0.65176  0.04031  0.50758  Biso   1.000  Cr
  Cr26     1.0000 0.34824  0.95969  0.00758  Biso   1.000  Cr
  Cr27     1.0000 0.15176  0.95969  0.50758  Biso   1.000  Cr
  Cr28     1.0000 0.84824  0.04031  0.00758  Biso   1.000  Cr
  Cr29     1.0000 0.66433  0.49050  0.54051  Biso   1.000  Cr
  Cr30     1.0000 0.33567  0.50950  0.04051  Biso   1.000  Cr
  Cr31     1.0000 0.16433  0.50950  0.54051  Biso   1.000  Cr
  Cr32     1.0000 0.83567  0.49050  0.04051  Biso   1.000  Cr
  O1       1.0000 0.35063  0.80140  0.76020  Biso   1.000  O
  O2       1.0000 0.64937  0.19860  0.26020  Biso   1.000  O
  O3       1.0000 0.85063  0.19860  0.76020  Biso   1.000  O
  O4       1.0000 0.14937  0.80140  0.26020  Biso   1.000  O
  O5       1.0000 0.28124  0.81130  0.78720  Biso   1.000  O
  O6       1.0000 0.71876  0.18870  0.28720  Biso   1.000  O
  O7       1.0000 0.78124  0.18870  0.78720  Biso   1.000  O
  O8       1.0000 0.21876  0.81130  0.28720  Biso   1.000  O
  O9       1.0000 0.34516  0.71390  0.76330  Biso   1.000  O
  O10      1.0000 0.65484  0.28610  0.26330  Biso   1.000  O
  O11      1.0000 0.84516  0.28610  0.76330  Biso   1.000  O
  O12      1.0000 0.15484  0.71390  0.26330  Biso   1.000  O
  O13      1.0000 0.32440  0.76080  0.83990  Biso   1.000  O
  O14      1.0000 0.67560  0.23920  0.33990  Biso   1.000  O
  O15      1.0000 0.82440  0.23920  0.83990  Biso   1.000  O
  O16      1.0000 0.17560  0.76080  0.33990  Biso   1.000  O
  O17      1.0000 0.29888  0.76130  0.71080  Biso   1.000  O
  O18      1.0000 0.70112  0.23870  0.21080  Biso   1.000  O
  O19      1.0000 0.79888  0.23870  0.71080  Biso   1.000  O
  O20      1.0000 0.20112  0.76130  0.21080  Biso   1.000  O
  O21      1.0000 0.27383  0.72180  0.78800  Biso   1.000  O
  O22      1.0000 0.72617  0.27820  0.28800  Biso   1.000  O
  O23      1.0000 0.77383  0.27820  0.78800  Biso   1.000  O
  O24      1.0000 0.22617  0.72180  0.28800  Biso   1.000  O
  O25      1.0000 0.40294  0.69540  0.20690  Biso   1.000  O
  O26      1.0000 0.59706  0.30460  0.70690  Biso   1.000  O
  O27      1.0000 0.90294  0.30460  0.20690  Biso   1.000  O
  O28      1.0000 0.09706  0.69540  0.70690  Biso   1.000  O
  O29      1.0000 0.33654  0.68070  0.16770  Biso   1.000  O
  O30      1.0000 0.66346  0.31930  0.66770  Biso   1.000  O
  O31      1.0000 0.83654  0.31930  0.16770  Biso   1.000  O
  O32      1.0000 0.16346  0.68070  0.66770  Biso   1.000  O
  O33      1.0000 0.39195  0.77980  0.20320  Biso   1.000  O
  O34      1.0000 0.60805  0.22020  0.70320  Biso   1.000  O
  O35      1.0000 0.89195  0.22020  0.20320  Biso   1.000  O
  O36      1.0000 0.10805  0.77980  0.70320  Biso   1.000  O
  O37      1.0000 0.38622  0.73170  0.12360  Biso   1.000  O
  O38      1.0000 0.61378  0.26830  0.62360  Biso   1.000  O
  O39      1.0000 0.88622  0.26830  0.12360  Biso   1.000  O
  O40      1.0000 0.11378  0.73170  0.62360  Biso   1.000  O
  O41      1.0000 0.34432  0.72990  0.24600  Biso   1.000  O
  O42      1.0000 0.65568  0.27010  0.74600  Biso   1.000  O
  O43      1.0000 0.84432  0.27010  0.24600  Biso   1.000  O
  O44      1.0000 0.15568  0.72990  0.74600  Biso   1.000  O
  O45      1.0000 0.32564  0.76650  0.16420  Biso   1.000  O
  O46      1.0000 0.67436  0.23350  0.66420  Biso   1.000  O
  O47      1.0000 0.82564  0.23350  0.16420  Biso   1.000  O
  O48      1.0000 0.17436  0.76650  0.66420  Biso   1.000  O
  O49      1.0000 0.66286  0.72910  0.23320  Biso   1.000  O
  O50      1.0000 0.33714  0.27090  0.73320  Biso   1.000  O
  O51      1.0000 0.16286  0.27090  0.23320  Biso   1.000  O
  O52      1.0000 0.83714  0.72910  0.73320  Biso   1.000  O
  O53      1.0000 0.67711  0.77560  0.15320  Biso   1.000  O
  O54      1.0000 0.32289  0.22440  0.65320  Biso   1.000  O
  O55      1.0000 0.17711  0.22440  0.15320  Biso   1.000  O
  O56      1.0000 0.82289  0.77560  0.65320  Biso   1.000  O
  O57      1.0000 0.65049  0.81380  0.23230  Biso   1.000  O
  O58      1.0000 0.34951  0.18620  0.73230  Biso   1.000  O
  O59      1.0000 0.15049  0.18620  0.23230  Biso   1.000  O
  O60      1.0000 0.84951  0.81380  0.73230  Biso   1.000  O
  O61      1.0000 0.71814  0.83070  0.20690  Biso   1.000  O
  O62      1.0000 0.28186  0.16930  0.70690  Biso   1.000  O
  O63      1.0000 0.21814  0.16930  0.20690  Biso   1.000  O
  O64      1.0000 0.78186  0.83070  0.70690  Biso   1.000  O
  O65      1.0000 0.70237  0.78140  0.28330  Biso   1.000  O
  O66      1.0000 0.29763  0.21860  0.78330  Biso   1.000  O
  O67      1.0000 0.20237  0.21860  0.28330  Biso   1.000  O
  O68      1.0000 0.79763  0.78140  0.78330  Biso   1.000  O
  O69      1.0000 0.73203  0.74240  0.20720  Biso   1.000  O
  O70      1.0000 0.26797  0.25760  0.70720  Biso   1.000  O
  O71      1.0000 0.23203  0.25760  0.20720  Biso   1.000  O
  O72      1.0000 0.76797  0.74240  0.70720  Biso   1.000  O
  O73      1.0000 0.60631  0.79550  0.79080  Biso   1.000  O
  O74      1.0000 0.39369  0.20450  0.29080  Biso   1.000  O
  O75      1.0000 0.10631  0.20450  0.79080  Biso   1.000  O
  O76      1.0000 0.89369  0.79550  0.29080  Biso   1.000  O
  O77      1.0000 0.61440  0.75240  0.87340  Biso   1.000  O
  O78      1.0000 0.38560  0.24760  0.37340  Biso   1.000  O
  O79      1.0000 0.11440  0.24760  0.87340  Biso   1.000  O
  O80      1.0000 0.88560  0.75240  0.37340  Biso   1.000  O
  O81      1.0000 0.60238  0.70970  0.79260  Biso   1.000  O
  O82      1.0000 0.39762  0.29030  0.29260  Biso   1.000  O
  O83      1.0000 0.10238  0.29030  0.79260  Biso   1.000  O
  O84      1.0000 0.89762  0.70970  0.29260  Biso   1.000  O
  O85      1.0000 0.66793  0.70410  0.83530  Biso   1.000  O
  O86      1.0000 0.33207  0.29590  0.33530  Biso   1.000  O
  O87      1.0000 0.16793  0.29590  0.83530  Biso   1.000  O
  O88      1.0000 0.83207  0.70410  0.33530  Biso   1.000  O
  O89      1.0000 0.65815  0.75120  0.75080  Biso   1.000  O
  O90      1.0000 0.34185  0.24880  0.25080  Biso   1.000  O
  O91      1.0000 0.15815  0.24880  0.75080  Biso   1.000  O
  O92      1.0000 0.84185  0.75120  0.25080  Biso   1.000  O
  O93      1.0000 0.67380  0.79170  0.83410  Biso   1.000  O
  O94      1.0000 0.32620  0.20830  0.33410  Biso   1.000  O
  O95      1.0000 0.17380  0.20830  0.83410  Biso   1.000  O
  O96      1.0000 0.82620  0.79170  0.33410  Biso   1.000  O
  O97      1.0000 0.38660  0.48460  0.51880  Biso   1.000  O
  O98      1.0000 0.61340  0.51540  0.01880  Biso   1.000  O
  O99      1.0000 0.88660  0.51540  0.51880  Biso   1.000  O
  O100     1.0000 0.11340  0.48460  0.01880  Biso   1.000  O
  O101     1.0000 0.32167  0.45350  0.49750  Biso   1.000  O
  O102     1.0000 0.67833  0.54650  0.99750  Biso   1.000  O
  O103     1.0000 0.82167  0.54650  0.49750  Biso   1.000  O
  O104     1.0000 0.17833  0.45350  0.99750  Biso   1.000  O
  O105     1.0000 0.40055  0.49160  0.42760  Biso   1.000  O
  O106     1.0000 0.59945  0.50840  0.92760  Biso   1.000  O
  O107     1.0000 0.90055  0.50840  0.42760  Biso   1.000  O
  O108     1.0000 0.09945  0.49160  0.92760  Biso   1.000  O
  O109     1.0000 0.37921  0.41350  0.45720  Biso   1.000  O
  O110     1.0000 0.62079  0.58650  0.95720  Biso   1.000  O
  O111     1.0000 0.87921  0.58650  0.45720  Biso   1.000  O
  O112     1.0000 0.12079  0.41350  0.95720  Biso   1.000  O
  O113     1.0000 0.34298  0.53140  0.46400  Biso   1.000  O
  O114     1.0000 0.65702  0.46860  0.96400  Biso   1.000  O
  O115     1.0000 0.84298  0.46860  0.46400  Biso   1.000  O
  O116     1.0000 0.15702  0.53140  0.96400  Biso   1.000  O
  O117     1.0000 0.33586  0.46390  0.40260  Biso   1.000  O
  O118     1.0000 0.66414  0.53610  0.90260  Biso   1.000  O
  O119     1.0000 0.83586  0.53610  0.40260  Biso   1.000  O
  O120     1.0000 0.16414  0.46390  0.90260  Biso   1.000  O
  O121     1.0000 0.36376  0.00800  0.52940  Biso   1.000  O
  O122     1.0000 0.63624  0.99200  0.02940  Biso   1.000  O
  O123     1.0000 0.86376  0.99200  0.52940  Biso   1.000  O
  O124     1.0000 0.13624  0.00800  0.02940  Biso   1.000  O
  O125     1.0000 0.35083  0.08370  0.48070  Biso   1.000  O
  O126     1.0000 0.64917  0.91630  0.98070  Biso   1.000  O
  O127     1.0000 0.85083  0.91630  0.48070  Biso   1.000  O
  O128     1.0000 0.14917  0.08370  0.98070  Biso   1.000  O
  O129     1.0000 0.37001  0.01090  0.43580  Biso   1.000  O
  O130     1.0000 0.62999  0.98910  0.93580  Biso   1.000  O
  O131     1.0000 0.87001  0.98910  0.43580  Biso   1.000  O
  O132     1.0000 0.12999  0.01090  0.93580  Biso   1.000  O
  O133     1.0000 0.30221  0.03950  0.42530  Biso   1.000  O
  O134     1.0000 0.69779  0.96050  0.92530  Biso   1.000  O
  O135     1.0000 0.80221  0.96050  0.42530  Biso   1.000  O
  O136     1.0000 0.19779  0.03950  0.92530  Biso   1.000  O
  O137     1.0000 0.31750  0.96590  0.47460  Biso   1.000  O
  O138     1.0000 0.68250  0.03410  0.97460  Biso   1.000  O
  O139     1.0000 0.81750  0.03410  0.47460  Biso   1.000  O
  O140     1.0000 0.18250  0.96590  0.97460  Biso   1.000  O
  O141     1.0000 0.29543  0.03790  0.52030  Biso   1.000  O
  O142     1.0000 0.70457  0.96210  0.02030  Biso   1.000  O
  O143     1.0000 0.79543  0.96210  0.52030  Biso   1.000  O
  O144     1.0000 0.20457  0.03790  0.02030  Biso   1.000  O
  O145     1.0000 0.61508  0.02310  0.54810  Biso   1.000  O
  O146     1.0000 0.38492  0.97690  0.04810  Biso   1.000  O
  O147     1.0000 0.11508  0.97690  0.54810  Biso   1.000  O
  O148     1.0000 0.88492  0.02310  0.04810  Biso   1.000  O
  O149     1.0000 0.68138  0.05810  0.55850  Biso   1.000  O
  O150     1.0000 0.31862  0.94190  0.05850  Biso   1.000  O
  O151     1.0000 0.18138  0.94190  0.55850  Biso   1.000  O
  O152     1.0000 0.81862  0.05810  0.05850  Biso   1.000  O
  O153     1.0000 0.62208  0.02130  0.45500  Biso   1.000  O
  O154     1.0000 0.37792  0.97870  0.95500  Biso   1.000  O
  O155     1.0000 0.12208  0.97870  0.45500  Biso   1.000  O
  O156     1.0000 0.87792  0.02130  0.95500  Biso   1.000  O
  O157     1.0000 0.63218  0.09780  0.49950  Biso   1.000  O
  O158     1.0000 0.36782  0.90220  0.99950  Biso   1.000  O
  O159     1.0000 0.13218  0.90220  0.49950  Biso   1.000  O
  O160     1.0000 0.86782  0.09780  0.99950  Biso   1.000  O
  O161     1.0000 0.66945  0.98280  0.51070  Biso   1.000  O
  O162     1.0000 0.33055  0.01720  0.01070  Biso   1.000  O
  O163     1.0000 0.16945  0.01720  0.51070  Biso   1.000  O
  O164     1.0000 0.83055  0.98280  0.01070  Biso   1.000  O
  O165     1.0000 0.68991  0.05520  0.46440  Biso   1.000  O
  O166     1.0000 0.31009  0.94480  0.96440  Biso   1.000  O
  O167     1.0000 0.18991  0.94480  0.46440  Biso   1.000  O
  O168     1.0000 0.81009  0.05520  0.96440  Biso   1.000  O
  O169     1.0000 0.62332  0.50540  0.57490  Biso   1.000  O
  O170     1.0000 0.37668  0.49460  0.07490  Biso   1.000  O
  O171     1.0000 0.12332  0.49460  0.57490  Biso   1.000  O
  O172     1.0000 0.87668  0.50540  0.07490  Biso   1.000  O
  O173     1.0000 0.65034  0.42990  0.54180  Biso   1.000  O
  O174     1.0000 0.34966  0.57010  0.04180  Biso   1.000  O
  O175     1.0000 0.15034  0.57010  0.54180  Biso   1.000  O
  O176     1.0000 0.84966  0.42990  0.04180  Biso   1.000  O
  O177     1.0000 0.63758  0.49870  0.48350  Biso   1.000  O
  O178     1.0000 0.36242  0.50130  0.98350  Biso   1.000  O
  O179     1.0000 0.13758  0.50130  0.48350  Biso   1.000  O
  O180     1.0000 0.86242  0.49870  0.98350  Biso   1.000  O
  O181     1.0000 0.70550  0.47550  0.50090  Biso   1.000  O
  O182     1.0000 0.29450  0.52450  0.00090  Biso   1.000  O
  O183     1.0000 0.20550  0.52450  0.50090  Biso   1.000  O
  O184     1.0000 0.79450  0.47550  0.00090  Biso   1.000  O
  O185     1.0000 0.67747  0.55040  0.53720  Biso   1.000  O
  O186     1.0000 0.32253  0.44960  0.03720  Biso   1.000  O
  O187     1.0000 0.17747  0.44960  0.53720  Biso   1.000  O
  O188     1.0000 0.82253  0.55040  0.03720  Biso   1.000  O
  O189     1.0000 0.69152  0.48340  0.59670  Biso   1.000  O
  O190     1.0000 0.30848  0.51660  0.09670  Biso   1.000  O
  O191     1.0000 0.19152  0.51660  0.59670  Biso   1.000  O
  O192     1.0000 0.80848  0.48340  0.09670  Biso   1.000  O
  O193     1.0000 0.47510  0.52540  0.74260  Biso   1.000  O
  O194     1.0000 0.52490  0.47460  0.24260  Biso   1.000  O
  O195     1.0000 0.97510  0.47460  0.74260  Biso   1.000  O
  O196     1.0000 0.02490  0.52540  0.24260  Biso   1.000  O
  O197     1.0000 0.44790  0.46590  0.75030  Biso   1.000  O
  O198     1.0000 0.55210  0.53410  0.25030  Biso   1.000  O
  O199     1.0000 0.94790  0.53410  0.75030  Biso   1.000  O
  O200     1.0000 0.05210  0.46590  0.25030  Biso   1.000  O
  O201     1.0000 0.42260  0.52360  0.77230  Biso   1.000  O
  O202     1.0000 0.57740  0.47640  0.27230  Biso   1.000  O
  O203     1.0000 0.92260  0.47640  0.77230  Biso   1.000  O
  O204     1.0000 0.07740  0.52360  0.27230  Biso   1.000  O
  O205     1.0000 0.50070  0.96700  0.25220  Biso   1.000  O
  O206     1.0000 0.49930  0.03300  0.75220  Biso   1.000  O
  O207     1.0000 0.00070  0.03300  0.25220  Biso   1.000  O
  O208     1.0000 0.99930  0.96700  0.75220  Biso   1.000  O
  O209     1.0000 0.47610  0.02530  0.27420  Biso   1.000  O
  O210     1.0000 0.52390  0.97470  0.77420  Biso   1.000  O
  O211     1.0000 0.97610  0.97470  0.27420  Biso   1.000  O
  O212     1.0000 0.02390  0.02530  0.77420  Biso   1.000  O
  O213     1.0000 0.52020  0.02690  0.22810  Biso   1.000  O
  O214     1.0000 0.47980  0.97310  0.72810  Biso   1.000  O
  O215     1.0000 0.02020  0.97310  0.22810  Biso   1.000  O
  O216     1.0000 0.97980  0.02690  0.72810  Biso   1.000  O
  O217     1.0000 0.49110  0.86190  0.61400  Biso   1.000  O
  O218     1.0000 0.50890  0.13810  0.11400  Biso   1.000  O
  O219     1.0000 0.99110  0.13810  0.61400  Biso   1.000  O
  O220     1.0000 0.00890  0.86190  0.11400  Biso   1.000  O
  H1       1.0000 0.49000  0.86570  0.58540  Biso   1.000  H
  H2       1.0000 0.51000  0.13430  0.08540  Biso   1.000  H
  H3       1.0000 0.99000  0.13430  0.58540  Biso   1.000  H
  H4       1.0000 0.01000  0.86570  0.08540  Biso   1.000  H
  H5       1.0000 0.49300  0.83560  0.61960  Biso   1.000  H
  H6       1.0000 0.50700  0.16440  0.11960  Biso   1.000  H
  H7       1.0000 0.99300  0.16440  0.61960  Biso   1.000  H
  H8       1.0000 0.00700  0.83560  0.11960  Biso   1.000  H
  O221     1.0000 0.48840  0.64040  0.62900  Biso   1.000  O
  O222     1.0000 0.51160  0.35960  0.12900  Biso   1.000  O
  O223     1.0000 0.98840  0.35960  0.62900  Biso   1.000  O
  O224     1.0000 0.01160  0.64040  0.12900  Biso   1.000  O
  H9       1.0000 0.48500  0.63790  0.60040  Biso   1.000  H
  H10      1.0000 0.51500  0.36210  0.10040  Biso   1.000  H
  H11      1.0000 0.98500  0.36210  0.60040  Biso   1.000  H
  H12      1.0000 0.01500  0.63790  0.10040  Biso   1.000  H
  H13      1.0000 0.49500  0.66550  0.63490  Biso   1.000  H
  H14      1.0000 0.50500  0.33450  0.13490  Biso   1.000  H
  H15      1.0000 0.99500  0.33450  0.63490  Biso   1.000  H
  H16      1.0000 0.00500  0.66550  0.13490  Biso   1.000  H
  O225     1.0000 0.52460  0.64230  0.36340  Biso   1.000  O
  O226     1.0000 0.47540  0.35770  0.86340  Biso   1.000  O
  O227     1.0000 0.02460  0.35770  0.36340  Biso   1.000  O
  O228     1.0000 0.97540  0.64230  0.86340  Biso   1.000  O
  H17      1.0000 0.51500  0.66590  0.35670  Biso   1.000  H
  H18      1.0000 0.48500  0.33410  0.85670  Biso   1.000  H
  H19      1.0000 0.01500  0.33410  0.35670  Biso   1.000  H
  H20      1.0000 0.98500  0.66590  0.85670  Biso   1.000  H
  H21      1.0000 0.52800  0.64130  0.39190  Biso   1.000  H
  H22      1.0000 0.47200  0.35870  0.89190  Biso   1.000  H
  H23      1.0000 0.02800  0.35870  0.39190  Biso   1.000  H
  H24      1.0000 0.97200  0.64130  0.89190  Biso   1.000  H
  O229     1.0000 0.50618  0.86240  0.37370  Biso   1.000  O
  O230     1.0000 0.49382  0.13760  0.87370  Biso   1.000  O
  O231     1.0000 0.00618  0.13760  0.37370  Biso   1.000  O
  O232     1.0000 0.99382  0.86240  0.87370  Biso   1.000  O
  H25      1.0000 0.49900  0.83690  0.37100  Biso   1.000  H
  H26      1.0000 0.50100  0.16310  0.87100  Biso   1.000  H
  H27      1.0000 0.99900  0.16310  0.37100  Biso   1.000  H
  H28      1.0000 0.00100  0.83690  0.87100  Biso   1.000  H
  H29      1.0000 0.51400  0.86620  0.40060  Biso   1.000  H
  H30      1.0000 0.48600  0.13380  0.90060  Biso   1.000  H
  H31      1.0000 0.01400  0.13380  0.40060  Biso   1.000  H
  H32      1.0000 0.98600  0.86620  0.90060  Biso   1.000  H
  O233     1.0000 0.36850  0.74820  0.48950  Biso   1.000  O
  O234     1.0000 0.63150  0.25180  0.98950  Biso   1.000  O
  O235     1.0000 0.86850  0.25180  0.48950  Biso   1.000  O
  O236     1.0000 0.13150  0.74820  0.98950  Biso   1.000  O
  H33      1.0000 0.38370  0.73800  0.47200  Biso   1.000  H
  H34      1.0000 0.61630  0.26200  0.97200  Biso   1.000  H
  H35      1.0000 0.88370  0.26200  0.47200  Biso   1.000  H
  H36      1.0000 0.11630  0.73800  0.97200  Biso   1.000  H
  H37      1.0000 0.37840  0.76000  0.51210  Biso   1.000  H
  H38      1.0000 0.62160  0.24000  0.01210  Biso   1.000  H
  H39      1.0000 0.87840  0.24000  0.51210  Biso   1.000  H
  H40      1.0000 0.12160  0.76000  0.01210  Biso   1.000  H
  O237     1.0000 0.63480  0.76310  0.50850  Biso   1.000  O
  O238     1.0000 0.36520  0.23690  0.00850  Biso   1.000  O
  O239     1.0000 0.13480  0.23690  0.50850  Biso   1.000  O
  O240     1.0000 0.86520  0.76310  0.00850  Biso   1.000  O
  H41      1.0000 0.62490  0.75600  0.48400  Biso   1.000  H
  H42      1.0000 0.37510  0.24400  0.98400  Biso   1.000  H
  H43      1.0000 0.12490  0.24400  0.48400  Biso   1.000  H
  H44      1.0000 0.87510  0.75600  0.98400  Biso   1.000  H
  H45      1.0000 0.61950  0.76900  0.52830  Biso   1.000  H
  H46      1.0000 0.38050  0.23100  0.02830  Biso   1.000  H
  H47      1.0000 0.11950  0.23100  0.52830  Biso   1.000  H
  H48      1.0000 0.88050  0.76900  0.02830  Biso   1.000  H
  O241     1.0000 0.24233  0.74100  0.46190  Biso   1.000  O
  O242     1.0000 0.75767  0.25900  0.96190  Biso   1.000  O
  O243     1.0000 0.74233  0.25900  0.46190  Biso   1.000  O
  O244     1.0000 0.25767  0.74100  0.96190  Biso   1.000  O
  H49      1.0000 0.23050  0.71830  0.46300  Biso   1.000  H
  H50      1.0000 0.76950  0.28170  0.96300  Biso   1.000  H
  H51      1.0000 0.73050  0.28170  0.46300  Biso   1.000  H
  H52      1.0000 0.26950  0.71830  0.96300  Biso   1.000  H
  H53      1.0000 0.22890  0.76160  0.45600  Biso   1.000  H
  H54      1.0000 0.77110  0.23840  0.95600  Biso   1.000  H
  H55      1.0000 0.72890  0.23840  0.45600  Biso   1.000  H
  H56      1.0000 0.27110  0.76160  0.95600  Biso   1.000  H
  O245     1.0000 0.76054  0.76710  0.53460  Biso   1.000  O
  O246     1.0000 0.23946  0.23290  0.03460  Biso   1.000  O
  O247     1.0000 0.26054  0.23290  0.53460  Biso   1.000  O
  O248     1.0000 0.73946  0.76710  0.03460  Biso   1.000  O
  H57      1.0000 0.77090  0.78400  0.55300  Biso   1.000  H
  H58      1.0000 0.22910  0.21600  0.05300  Biso   1.000  H
  H59      1.0000 0.27090  0.21600  0.55300  Biso   1.000  H
  H60      1.0000 0.72910  0.78400  0.05300  Biso   1.000  H
  H61      1.0000 0.77520  0.75000  0.52300  Biso   1.000  H
  H62      1.0000 0.22480  0.25000  0.02300  Biso   1.000  H
  H63      1.0000 0.27520  0.25000  0.52300  Biso   1.000  H
  H64      1.0000 0.72480  0.75000  0.02300  Biso   1.000  H
  N1       1.0000 0.44260  0.89460  0.69480  Biso   1.000  N
  N2       1.0000 0.55740  0.10540  0.19480  Biso   1.000  N
  N3       1.0000 0.94260  0.10540  0.69480  Biso   1.000  N
  N4       1.0000 0.05740  0.89460  0.19480  Biso   1.000  N
  N5       1.0000 0.44260  0.61860  0.72200  Biso   1.000  N
  N6       1.0000 0.55740  0.38140  0.22200  Biso   1.000  N
  N7       1.0000 0.94260  0.38140  0.72200  Biso   1.000  N
  N8       1.0000 0.05740  0.61860  0.22200  Biso   1.000  N
  N9       1.0000 0.29460  0.73960  0.54290  Biso   1.000  N
  N10      1.0000 0.70540  0.26040  0.04290  Biso   1.000  N
  N11      1.0000 0.79460  0.26040  0.54290  Biso   1.000  N
  N12      1.0000 0.20540  0.73960  0.04290  Biso   1.000  N
  N13      1.0000 0.49760  0.60710  0.26820  Biso   1.000  N
  N14      1.0000 0.50240  0.39290  0.76820  Biso   1.000  N
  N15      1.0000 0.99760  0.39290  0.26820  Biso   1.000  N
  N16      1.0000 0.00240  0.60710  0.76820  Biso   1.000  N
  N17      1.0000 0.47800  0.87610  0.27430  Biso   1.000  N
  N18      1.0000 0.52200  0.12390  0.77430  Biso   1.000  N
  N19      1.0000 0.97800  0.12390  0.27430  Biso   1.000  N
  N20      1.0000 0.02200  0.87610  0.77430  Biso   1.000  N
  N21      1.0000 0.31110  0.75580  0.40910  Biso   1.000  N
  N22      1.0000 0.68890  0.24420  0.90910  Biso   1.000  N
  N23      1.0000 0.81110  0.24420  0.40910  Biso   1.000  N
  N24      1.0000 0.18890  0.75580  0.90910  Biso   1.000  N
  N25      1.0000 0.57080  0.62540  0.27800  Biso   1.000  N
  N26      1.0000 0.42920  0.37460  0.77800  Biso   1.000  N
  N27      1.0000 0.07080  0.37460  0.27800  Biso   1.000  N
  N28      1.0000 0.92920  0.62540  0.77800  Biso   1.000  N
  N29      1.0000 0.54882  0.89800  0.28770  Biso   1.000  N
  N30      1.0000 0.45118  0.10200  0.78770  Biso   1.000  N
  N31      1.0000 0.04882  0.10200  0.28770  Biso   1.000  N
  N32      1.0000 0.95118  0.89800  0.78770  Biso   1.000  N
  N33      1.0000 0.70660  0.75920  0.45230  Biso   1.000  N
  N34      1.0000 0.29340  0.24080  0.95230  Biso   1.000  N
  N35      1.0000 0.20660  0.24080  0.45230  Biso   1.000  N
  N36      1.0000 0.79340  0.75920  0.95230  Biso   1.000  N
  N37      1.0000 0.51490  0.88070  0.71340  Biso   1.000  N
  N38      1.0000 0.48510  0.11930  0.21340  Biso   1.000  N
  N39      1.0000 0.01490  0.11930  0.71340  Biso   1.000  N
  N40      1.0000 0.98510  0.88070  0.21340  Biso   1.000  N
  N41      1.0000 0.51590  0.60900  0.73020  Biso   1.000  N
  N42      1.0000 0.48410  0.39100  0.23020  Biso   1.000  N
  N43      1.0000 0.01590  0.39100  0.73020  Biso   1.000  N
  N44      1.0000 0.98410  0.60900  0.23020  Biso   1.000  N
  N45      1.0000 0.68940  0.77490  0.58800  Biso   1.000  N
  N46      1.0000 0.31060  0.22510  0.08800  Biso   1.000  N
  N47      1.0000 0.18940  0.22510  0.58800  Biso   1.000  N
  N48      1.0000 0.81060  0.77490  0.08800  Biso   1.000  N
  N49      1.0000 0.44330  0.55850  0.64730  Biso   1.000  N
  N50      1.0000 0.55670  0.44150  0.14730  Biso   1.000  N
  N51      1.0000 0.94330  0.44150  0.64730  Biso   1.000  N
  N52      1.0000 0.05670  0.55850  0.14730  Biso   1.000  N
  N53      1.0000 0.50210  0.54710  0.34080  Biso   1.000  N
  N54      1.0000 0.49790  0.45290  0.84080  Biso   1.000  N
  N55      1.0000 0.00210  0.45290  0.34080  Biso   1.000  N
  N56      1.0000 0.99790  0.54710  0.84080  Biso   1.000  N
  N57      1.0000 0.30850  0.68300  0.46550  Biso   1.000  N
  N58      1.0000 0.69150  0.31700  0.96550  Biso   1.000  N
  N59      1.0000 0.80850  0.31700  0.46550  Biso   1.000  N
  N60      1.0000 0.19150  0.68300  0.96550  Biso   1.000  N
  N61      1.0000 0.45800  0.95420  0.62570  Biso   1.000  N
  N62      1.0000 0.54200  0.04580  0.12570  Biso   1.000  N
  N63      1.0000 0.95800  0.04580  0.62570  Biso   1.000  N
  N64      1.0000 0.04200  0.95420  0.12570  Biso   1.000  N
  N65      1.0000 0.45850  0.93830  0.33910  Biso   1.000  N
  N66      1.0000 0.54150  0.06170  0.83910  Biso   1.000  N
  N67      1.0000 0.95850  0.06170  0.33910  Biso   1.000  N
  N68      1.0000 0.04150  0.93830  0.83910  Biso   1.000  N
  N69      1.0000 0.29750  0.81100  0.48360  Biso   1.000  N
  N70      1.0000 0.70250  0.18900  0.98360  Biso   1.000  N
  N71      1.0000 0.79750  0.18900  0.48360  Biso   1.000  N
  N72      1.0000 0.20250  0.81100  0.98360  Biso   1.000  N
  N73      1.0000 0.53100  0.94510  0.64630  Biso   1.000  N
  N74      1.0000 0.46900  0.05490  0.14630  Biso   1.000  N
  N75      1.0000 0.03100  0.05490  0.64630  Biso   1.000  N
  N76      1.0000 0.96900  0.94510  0.14630  Biso   1.000  N
  N77      1.0000 0.53200  0.95740  0.35600  Biso   1.000  N
  N78      1.0000 0.46800  0.04260  0.85600  Biso   1.000  N
  N79      1.0000 0.03200  0.04260  0.35600  Biso   1.000  N
  N80      1.0000 0.96800  0.95740  0.85600  Biso   1.000  N
  N81      1.0000 0.69960  0.83210  0.51060  Biso   1.000  N
  N82      1.0000 0.30040  0.16790  0.01060  Biso   1.000  N
  N83      1.0000 0.19960  0.16790  0.51060  Biso   1.000  N
  N84      1.0000 0.80040  0.83210  0.01060  Biso   1.000  N
  N85      1.0000 0.51690  0.54960  0.65840  Biso   1.000  N
  N86      1.0000 0.48310  0.45040  0.15840  Biso   1.000  N
  N87      1.0000 0.01690  0.45040  0.65840  Biso   1.000  N
  N88      1.0000 0.98310  0.54960  0.15840  Biso   1.000  N
  N89      1.0000 0.57510  0.56460  0.35140  Biso   1.000  N
  N90      1.0000 0.42490  0.43540  0.85140  Biso   1.000  N
  N91      1.0000 0.07510  0.43540  0.35140  Biso   1.000  N
  N92      1.0000 0.92490  0.56460  0.85140  Biso   1.000  N
  N93      1.0000 0.70200  0.70440  0.53070  Biso   1.000  N
  N94      1.0000 0.29800  0.29560  0.03070  Biso   1.000  N
  N95      1.0000 0.20200  0.29560  0.53070  Biso   1.000  N
  N96      1.0000 0.79800  0.70440  0.03070  Biso   1.000  N
  N97      1.0000 0.44810  0.50350  0.75390  Biso   1.000  N
  N98      1.0000 0.55190  0.49650  0.25390  Biso   1.000  N
  N99      1.0000 0.94810  0.49650  0.75390  Biso   1.000  N
  N100     1.0000 0.05190  0.50350  0.25390  Biso   1.000  N
  N101     1.0000 0.50050  0.00530  0.24980  Biso   1.000  N
  N102     1.0000 0.49950  0.99470  0.74980  Biso   1.000  N
  N103     1.0000 0.00050  0.99470  0.24980  Biso   1.000  N
  N104     1.0000 0.99950  0.00530  0.74980  Biso   1.000  N
  C1       1.0000 0.41650  0.91770  0.70880  Biso   1.000  C
  C2       1.0000 0.58350  0.08230  0.20880  Biso   1.000  C
  C3       1.0000 0.91650  0.08230  0.70880  Biso   1.000  C
  C4       1.0000 0.08350  0.91770  0.20880  Biso   1.000  C
  H65      1.0000 0.41930  0.94780  0.70680  Biso   1.000  H
  H66      1.0000 0.58070  0.05220  0.20680  Biso   1.000  H
  H67      1.0000 0.91930  0.05220  0.70680  Biso   1.000  H
  H68      1.0000 0.08070  0.94780  0.20680  Biso   1.000  H
  C5       1.0000 0.38560  0.90350  0.72580  Biso   1.000  C
  C6       1.0000 0.61440  0.09650  0.22580  Biso   1.000  C
  C7       1.0000 0.88560  0.09650  0.72580  Biso   1.000  C
  C8       1.0000 0.11440  0.90350  0.22580  Biso   1.000  C
  H69      1.0000 0.36810  0.92290  0.73560  Biso   1.000  H
  H70      1.0000 0.63190  0.07710  0.23560  Biso   1.000  H
  H71      1.0000 0.86810  0.07710  0.73560  Biso   1.000  H
  H72      1.0000 0.13190  0.92290  0.23560  Biso   1.000  H
  C9       1.0000 0.38030  0.85970  0.72850  Biso   1.000  C
  C10      1.0000 0.61970  0.14030  0.22850  Biso   1.000  C
  C11      1.0000 0.88030  0.14030  0.72850  Biso   1.000  C
  C12      1.0000 0.11970  0.85970  0.22850  Biso   1.000  C
  C13      1.0000 0.40580  0.83330  0.71340  Biso   1.000  C
  C14      1.0000 0.59420  0.16670  0.21340  Biso   1.000  C
  C15      1.0000 0.90580  0.16670  0.71340  Biso   1.000  C
  C16      1.0000 0.09420  0.83330  0.21340  Biso   1.000  C
  H73      1.0000 0.40230  0.80330  0.71330  Biso   1.000  H
  H74      1.0000 0.59770  0.19670  0.21330  Biso   1.000  H
  H75      1.0000 0.90230  0.19670  0.71330  Biso   1.000  H
  H76      1.0000 0.09770  0.80330  0.21330  Biso   1.000  H
  C17      1.0000 0.43800  0.85090  0.69760  Biso   1.000  C
  C18      1.0000 0.56200  0.14910  0.19760  Biso   1.000  C
  C19      1.0000 0.93800  0.14910  0.69760  Biso   1.000  C
  C20      1.0000 0.06200  0.85090  0.19760  Biso   1.000  C
  H77      1.0000 0.45660  0.83240  0.68890  Biso   1.000  H
  H78      1.0000 0.54340  0.16760  0.18890  Biso   1.000  H
  H79      1.0000 0.95660  0.16760  0.68890  Biso   1.000  H
  H80      1.0000 0.04340  0.83240  0.18890  Biso   1.000  H
  C21      1.0000 0.34880  0.84060  0.75110  Biso   1.000  C
  C22      1.0000 0.65120  0.15940  0.25110  Biso   1.000  C
  C23      1.0000 0.84880  0.15940  0.75110  Biso   1.000  C
  C24      1.0000 0.15120  0.84060  0.25110  Biso   1.000  C
  C25      1.0000 0.31750  0.86580  0.75660  Biso   1.000  C
  C26      1.0000 0.68250  0.13420  0.25660  Biso   1.000  C
  C27      1.0000 0.81750  0.13420  0.75660  Biso   1.000  C
  C28      1.0000 0.18250  0.86580  0.25660  Biso   1.000  C
  H81      1.0000 0.31830  0.89460  0.74670  Biso   1.000  H
  H82      1.0000 0.68170  0.10540  0.24670  Biso   1.000  H
  H83      1.0000 0.81830  0.10540  0.74670  Biso   1.000  H
  H84      1.0000 0.18170  0.89460  0.24670  Biso   1.000  H
  C29      1.0000 0.28550  0.85060  0.77570  Biso   1.000  C
  C30      1.0000 0.71450  0.14940  0.27570  Biso   1.000  C
  C31      1.0000 0.78550  0.14940  0.77570  Biso   1.000  C
  C32      1.0000 0.21450  0.85060  0.27570  Biso   1.000  C
  C33      1.0000 0.25930  0.87880  0.78810  Biso   1.000  C
  C34      1.0000 0.74070  0.12120  0.28810  Biso   1.000  C
  C35      1.0000 0.75930  0.12120  0.78810  Biso   1.000  C
  C36      1.0000 0.24070  0.87880  0.28810  Biso   1.000  C
  H85      1.0000 0.23830  0.87320  0.76960  Biso   1.000  H
  H86      1.0000 0.76170  0.12680  0.26960  Biso   1.000  H
  H87      1.0000 0.73830  0.12680  0.76960  Biso   1.000  H
  H88      1.0000 0.26170  0.87320  0.26960  Biso   1.000  H
  H89      1.0000 0.26720  0.90810  0.78270  Biso   1.000  H
  H90      1.0000 0.73280  0.09190  0.28270  Biso   1.000  H
  H91      1.0000 0.76720  0.09190  0.78270  Biso   1.000  H
  H92      1.0000 0.23280  0.90810  0.28270  Biso   1.000  H
  H93      1.0000 0.25370  0.87510  0.82070  Biso   1.000  H
  H94      1.0000 0.74630  0.12490  0.32070  Biso   1.000  H
  H95      1.0000 0.75370  0.12490  0.82070  Biso   1.000  H
  H96      1.0000 0.24630  0.87510  0.32070  Biso   1.000  H
  C37      1.0000 0.42120  0.64170  0.69630  Biso   1.000  C
  C38      1.0000 0.57880  0.35830  0.19630  Biso   1.000  C
  C39      1.0000 0.92120  0.35830  0.69630  Biso   1.000  C
  C40      1.0000 0.07880  0.64170  0.19630  Biso   1.000  C
  H97      1.0000 0.42180  0.63980  0.66370  Biso   1.000  H
  H98      1.0000 0.57820  0.36020  0.16370  Biso   1.000  H
  H99      1.0000 0.92180  0.36020  0.66370  Biso   1.000  H
  H100     1.0000 0.07820  0.63980  0.16370  Biso   1.000  H
  C41      1.0000 0.39630  0.67100  0.71990  Biso   1.000  C
  C42      1.0000 0.60370  0.32900  0.21990  Biso   1.000  C
  C43      1.0000 0.89630  0.32900  0.71990  Biso   1.000  C
  C44      1.0000 0.10370  0.67100  0.21990  Biso   1.000  C
  H101     1.0000 0.38200  0.68980  0.70250  Biso   1.000  H
  H102     1.0000 0.61800  0.31020  0.20250  Biso   1.000  H
  H103     1.0000 0.88200  0.31020  0.70250  Biso   1.000  H
  H104     1.0000 0.11800  0.68980  0.20250  Biso   1.000  H
  C45      1.0000 0.39400  0.67060  0.76580  Biso   1.000  C
  C46      1.0000 0.60600  0.32940  0.26580  Biso   1.000  C
  C47      1.0000 0.89400  0.32940  0.76580  Biso   1.000  C
  C48      1.0000 0.10600  0.67060  0.26580  Biso   1.000  C
  C49      1.0000 0.41740  0.64390  0.78930  Biso   1.000  C
  C50      1.0000 0.58260  0.35610  0.28930  Biso   1.000  C
  C51      1.0000 0.91740  0.35610  0.78930  Biso   1.000  C
  C52      1.0000 0.08260  0.64390  0.28930  Biso   1.000  C
  H105     1.0000 0.41700  0.64380  0.82190  Biso   1.000  H
  H106     1.0000 0.58300  0.35620  0.32190  Biso   1.000  H
  H107     1.0000 0.91700  0.35620  0.82190  Biso   1.000  H
  H108     1.0000 0.08300  0.64380  0.32190  Biso   1.000  H
  C53      1.0000 0.43980  0.61930  0.76830  Biso   1.000  C
  C54      1.0000 0.56020  0.38070  0.26830  Biso   1.000  C
  C55      1.0000 0.93980  0.38070  0.76830  Biso   1.000  C
  C56      1.0000 0.06020  0.61930  0.26830  Biso   1.000  C
  H109     1.0000 0.45450  0.60130  0.78600  Biso   1.000  H
  H110     1.0000 0.54550  0.39870  0.28600  Biso   1.000  H
  H111     1.0000 0.95450  0.39870  0.78600  Biso   1.000  H
  H112     1.0000 0.04550  0.60130  0.28600  Biso   1.000  H
  C57      1.0000 0.36910  0.70130  0.78900  Biso   1.000  C
  C58      1.0000 0.63090  0.29870  0.28900  Biso   1.000  C
  C59      1.0000 0.86910  0.29870  0.78900  Biso   1.000  C
  C60      1.0000 0.13090  0.70130  0.28900  Biso   1.000  C
  C61      1.0000 0.37190  0.71270  0.83230  Biso   1.000  C
  C62      1.0000 0.62810  0.28730  0.33230  Biso   1.000  C
  C63      1.0000 0.87190  0.28730  0.83230  Biso   1.000  C
  C64      1.0000 0.12810  0.71270  0.33230  Biso   1.000  C
  H113     1.0000 0.39140  0.70100  0.84820  Biso   1.000  H
  H114     1.0000 0.60860  0.29900  0.34820  Biso   1.000  H
  H115     1.0000 0.89140  0.29900  0.84820  Biso   1.000  H
  H116     1.0000 0.10860  0.70100  0.34820  Biso   1.000  H
  C65      1.0000 0.35080  0.73920  0.85810  Biso   1.000  C
  C66      1.0000 0.64920  0.26080  0.35810  Biso   1.000  C
  C67      1.0000 0.85080  0.26080  0.85810  Biso   1.000  C
  C68      1.0000 0.14920  0.73920  0.35810  Biso   1.000  C
  C69      1.0000 0.35830  0.75010  0.91010  Biso   1.000  C
  C70      1.0000 0.64170  0.24990  0.41010  Biso   1.000  C
  C71      1.0000 0.85830  0.24990  0.91010  Biso   1.000  C
  C72      1.0000 0.14170  0.75010  0.41010  Biso   1.000  C
  H117     1.0000 0.36040  0.72360  0.92770  Biso   1.000  H
  H118     1.0000 0.63960  0.27640  0.42770  Biso   1.000  H
  H119     1.0000 0.86040  0.27640  0.92770  Biso   1.000  H
  H120     1.0000 0.13960  0.72360  0.42770  Biso   1.000  H
  H121     1.0000 0.33900  0.76720  0.92240  Biso   1.000  H
  H122     1.0000 0.66100  0.23280  0.42240  Biso   1.000  H
  H123     1.0000 0.83900  0.23280  0.92240  Biso   1.000  H
  H124     1.0000 0.16100  0.76720  0.42240  Biso   1.000  H
  H125     1.0000 0.38030  0.76630  0.91240  Biso   1.000  H
  H126     1.0000 0.61970  0.23370  0.41240  Biso   1.000  H
  H127     1.0000 0.88030  0.23370  0.91240  Biso   1.000  H
  H128     1.0000 0.11970  0.76630  0.41240  Biso   1.000  H
  C73      1.0000 0.26950  0.71630  0.56130  Biso   1.000  C
  C74      1.0000 0.73050  0.28370  0.06130  Biso   1.000  C
  C75      1.0000 0.76950  0.28370  0.56130  Biso   1.000  C
  C76      1.0000 0.23050  0.71630  0.06130  Biso   1.000  C
  H129     1.0000 0.25430  0.70120  0.54110  Biso   1.000  H
  H130     1.0000 0.74570  0.29880  0.04110  Biso   1.000  H
  H131     1.0000 0.75430  0.29880  0.54110  Biso   1.000  H
  H132     1.0000 0.24570  0.70120  0.04110  Biso   1.000  H
  C77      1.0000 0.26350  0.71230  0.60930  Biso   1.000  C
  C78      1.0000 0.73650  0.28770  0.10930  Biso   1.000  C
  C79      1.0000 0.76350  0.28770  0.60930  Biso   1.000  C
  C80      1.0000 0.23650  0.71230  0.10930  Biso   1.000  C
  H133     1.0000 0.24480  0.69580  0.62140  Biso   1.000  H
  H134     1.0000 0.75520  0.30420  0.12140  Biso   1.000  H
  H135     1.0000 0.74480  0.30420  0.62140  Biso   1.000  H
  H136     1.0000 0.25520  0.69580  0.12140  Biso   1.000  H
  C81      1.0000 0.28600  0.73320  0.63630  Biso   1.000  C
  C82      1.0000 0.71400  0.26680  0.13630  Biso   1.000  C
  C83      1.0000 0.78600  0.26680  0.63630  Biso   1.000  C
  C84      1.0000 0.21400  0.73320  0.13630  Biso   1.000  C
  C85      1.0000 0.31200  0.75750  0.61840  Biso   1.000  C
  C86      1.0000 0.68800  0.24250  0.11840  Biso   1.000  C
  C87      1.0000 0.81200  0.24250  0.61840  Biso   1.000  C
  C88      1.0000 0.18800  0.75750  0.11840  Biso   1.000  C
  H137     1.0000 0.32760  0.77250  0.63810  Biso   1.000  H
  H138     1.0000 0.67240  0.22750  0.13810  Biso   1.000  H
  H139     1.0000 0.82760  0.22750  0.63810  Biso   1.000  H
  H140     1.0000 0.17240  0.77250  0.13810  Biso   1.000  H
  C89      1.0000 0.31560  0.76000  0.57200  Biso   1.000  C
  C90      1.0000 0.68440  0.24000  0.07200  Biso   1.000  C
  C91      1.0000 0.81560  0.24000  0.57200  Biso   1.000  C
  C92      1.0000 0.18440  0.76000  0.07200  Biso   1.000  C
  H141     1.0000 0.33390  0.77720  0.55980  Biso   1.000  H
  H142     1.0000 0.66610  0.22280  0.05980  Biso   1.000  H
  H143     1.0000 0.83390  0.22280  0.55980  Biso   1.000  H
  H144     1.0000 0.16610  0.77720  0.05980  Biso   1.000  H
  C93      1.0000 0.28200  0.73160  0.69110  Biso   1.000  C
  C94      1.0000 0.71800  0.26840  0.19110  Biso   1.000  C
  C95      1.0000 0.78200  0.26840  0.69110  Biso   1.000  C
  C96      1.0000 0.21800  0.73160  0.19110  Biso   1.000  C
  C97      1.0000 0.26100  0.70300  0.71150  Biso   1.000  C
  C98      1.0000 0.73900  0.29700  0.21150  Biso   1.000  C
  C99      1.0000 0.76100  0.29700  0.71150  Biso   1.000  C
  C100     1.0000 0.23900  0.70300  0.21150  Biso   1.000  C
  H145     1.0000 0.24780  0.68420  0.69260  Biso   1.000  H
  H146     1.0000 0.75220  0.31580  0.19260  Biso   1.000  H
  H147     1.0000 0.74780  0.31580  0.69260  Biso   1.000  H
  H148     1.0000 0.25220  0.68420  0.19260  Biso   1.000  H
  C101     1.0000 0.25750  0.69930  0.75840  Biso   1.000  C
  C102     1.0000 0.74250  0.30070  0.25840  Biso   1.000  C
  C103     1.0000 0.75750  0.30070  0.75840  Biso   1.000  C
  C104     1.0000 0.24250  0.69930  0.25840  Biso   1.000  C
  C105     1.0000 0.23230  0.66840  0.77610  Biso   1.000  C
  C106     1.0000 0.76770  0.33160  0.27610  Biso   1.000  C
  C107     1.0000 0.73230  0.33160  0.77610  Biso   1.000  C
  C108     1.0000 0.26770  0.66840  0.27610  Biso   1.000  C
  H149     1.0000 0.22660  0.64770  0.75200  Biso   1.000  H
  H150     1.0000 0.77340  0.35230  0.25200  Biso   1.000  H
  H151     1.0000 0.72660  0.35230  0.75200  Biso   1.000  H
  H152     1.0000 0.27340  0.64770  0.25200  Biso   1.000  H
  H153     1.0000 0.21100  0.68330  0.78570  Biso   1.000  H
  H154     1.0000 0.78900  0.31670  0.28570  Biso   1.000  H
  H155     1.0000 0.71100  0.31670  0.78570  Biso   1.000  H
  H156     1.0000 0.28900  0.68330  0.28570  Biso   1.000  H
  H157     1.0000 0.24250  0.65350  0.80250  Biso   1.000  H
  H158     1.0000 0.75750  0.34650  0.30250  Biso   1.000  H
  H159     1.0000 0.74250  0.34650  0.80250  Biso   1.000  H
  H160     1.0000 0.25750  0.65350  0.30250  Biso   1.000  H
  C109     1.0000 0.48880  0.64820  0.26640  Biso   1.000  C
  C110     1.0000 0.51120  0.35180  0.76640  Biso   1.000  C
  C111     1.0000 0.98880  0.35180  0.26640  Biso   1.000  C
  C112     1.0000 0.01120  0.64820  0.76640  Biso   1.000  C
  H161     1.0000 0.50410  0.66780  0.28120  Biso   1.000  H
  H162     1.0000 0.49590  0.33220  0.78120  Biso   1.000  H
  H163     1.0000 0.00410  0.33220  0.28120  Biso   1.000  H
  H164     1.0000 0.99590  0.66780  0.78120  Biso   1.000  H
  C113     1.0000 0.45990  0.66460  0.24530  Biso   1.000  C
  C114     1.0000 0.54010  0.33540  0.74530  Biso   1.000  C
  C115     1.0000 0.95990  0.33540  0.24530  Biso   1.000  C
  C116     1.0000 0.04010  0.66460  0.74530  Biso   1.000  C
  H165     1.0000 0.45570  0.69450  0.24560  Biso   1.000  H
  H166     1.0000 0.54430  0.30550  0.74560  Biso   1.000  H
  H167     1.0000 0.95570  0.30550  0.24560  Biso   1.000  H
  H168     1.0000 0.04430  0.69450  0.74560  Biso   1.000  H
  C117     1.0000 0.43730  0.63760  0.22390  Biso   1.000  C
  C118     1.0000 0.56270  0.36240  0.72390  Biso   1.000  C
  C119     1.0000 0.93730  0.36240  0.22390  Biso   1.000  C
  C120     1.0000 0.06270  0.63760  0.72390  Biso   1.000  C
  C121     1.0000 0.44590  0.59410  0.22590  Biso   1.000  C
  C122     1.0000 0.55410  0.40590  0.72590  Biso   1.000  C
  C123     1.0000 0.94590  0.40590  0.22590  Biso   1.000  C
  C124     1.0000 0.05410  0.59410  0.72590  Biso   1.000  C
  H169     1.0000 0.43000  0.57410  0.21280  Biso   1.000  H
  H170     1.0000 0.57000  0.42590  0.71280  Biso   1.000  H
  H171     1.0000 0.93000  0.42590  0.21280  Biso   1.000  H
  H172     1.0000 0.07000  0.57410  0.71280  Biso   1.000  H
  C125     1.0000 0.47440  0.57990  0.24480  Biso   1.000  C
  C126     1.0000 0.52560  0.42010  0.74480  Biso   1.000  C
  C127     1.0000 0.97440  0.42010  0.24480  Biso   1.000  C
  C128     1.0000 0.02560  0.57990  0.74480  Biso   1.000  C
  H173     1.0000 0.47980  0.55040  0.24270  Biso   1.000  H
  H174     1.0000 0.52020  0.44960  0.74270  Biso   1.000  H
  H175     1.0000 0.97980  0.44960  0.24270  Biso   1.000  H
  H176     1.0000 0.02020  0.55040  0.74270  Biso   1.000  H
  C129     1.0000 0.40430  0.65270  0.20360  Biso   1.000  C
  C130     1.0000 0.59570  0.34730  0.70360  Biso   1.000  C
  C131     1.0000 0.90430  0.34730  0.20360  Biso   1.000  C
  C132     1.0000 0.09570  0.65270  0.70360  Biso   1.000  C
  C133     1.0000 0.37950  0.62570  0.18740  Biso   1.000  C
  C134     1.0000 0.62050  0.37430  0.68740  Biso   1.000  C
  C135     1.0000 0.87950  0.37430  0.18740  Biso   1.000  C
  C136     1.0000 0.12050  0.62570  0.68740  Biso   1.000  C
  H177     1.0000 0.38460  0.59610  0.18550  Biso   1.000  H
  H178     1.0000 0.61540  0.40390  0.68550  Biso   1.000  H
  H179     1.0000 0.88460  0.40390  0.18550  Biso   1.000  H
  H180     1.0000 0.11540  0.59610  0.68550  Biso   1.000  H
  C137     1.0000 0.34450  0.64150  0.17220  Biso   1.000  C
  C138     1.0000 0.65550  0.35850  0.67220  Biso   1.000  C
  C139     1.0000 0.84450  0.35850  0.17220  Biso   1.000  C
  C140     1.0000 0.15550  0.64150  0.67220  Biso   1.000  C
  C141     1.0000 0.31980  0.61050  0.15620  Biso   1.000  C
  C142     1.0000 0.68020  0.38950  0.65620  Biso   1.000  C
  C143     1.0000 0.81980  0.38950  0.15620  Biso   1.000  C
  C144     1.0000 0.18020  0.61050  0.65620  Biso   1.000  C
  H181     1.0000 0.31710  0.58800  0.17940  Biso   1.000  H
  H182     1.0000 0.68290  0.41200  0.67940  Biso   1.000  H
  H183     1.0000 0.81710  0.41200  0.17940  Biso   1.000  H
  H184     1.0000 0.18290  0.58800  0.67940  Biso   1.000  H
  H185     1.0000 0.32830  0.59780  0.12750  Biso   1.000  H
  H186     1.0000 0.67170  0.40220  0.62750  Biso   1.000  H
  H187     1.0000 0.82830  0.40220  0.12750  Biso   1.000  H
  H188     1.0000 0.17170  0.59780  0.62750  Biso   1.000  H
  H189     1.0000 0.29720  0.62420  0.15080  Biso   1.000  H
  H190     1.0000 0.70280  0.37580  0.65080  Biso   1.000  H
  H191     1.0000 0.79720  0.37580  0.15080  Biso   1.000  H
  H192     1.0000 0.20280  0.62420  0.65080  Biso   1.000  H
  C145     1.0000 0.48350  0.87610  0.22550  Biso   1.000  C
  C146     1.0000 0.51650  0.12390  0.72550  Biso   1.000  C
  C147     1.0000 0.98350  0.12390  0.22550  Biso   1.000  C
  C148     1.0000 0.01650  0.87610  0.72550  Biso   1.000  C
  H193     1.0000 0.49920  0.89650  0.21300  Biso   1.000  H
  H194     1.0000 0.50080  0.10350  0.71300  Biso   1.000  H
  H195     1.0000 0.99920  0.10350  0.21300  Biso   1.000  H
  H196     1.0000 0.00080  0.89650  0.71300  Biso   1.000  H
  C149     1.0000 0.46680  0.84750  0.19500  Biso   1.000  C
  C150     1.0000 0.53320  0.15250  0.69500  Biso   1.000  C
  C151     1.0000 0.96680  0.15250  0.19500  Biso   1.000  C
  C152     1.0000 0.03320  0.84750  0.69500  Biso   1.000  C
  H197     1.0000 0.47230  0.84670  0.16320  Biso   1.000  H
  H198     1.0000 0.52770  0.15330  0.66320  Biso   1.000  H
  H199     1.0000 0.97230  0.15330  0.16320  Biso   1.000  H
  H200     1.0000 0.02770  0.84670  0.66320  Biso   1.000  H
  C153     1.0000 0.44220  0.82080  0.21400  Biso   1.000  C
  C154     1.0000 0.55780  0.17920  0.71400  Biso   1.000  C
  C155     1.0000 0.94220  0.17920  0.21400  Biso   1.000  C
  C156     1.0000 0.05780  0.82080  0.71400  Biso   1.000  C
  C157     1.0000 0.43550  0.82450  0.26170  Biso   1.000  C
  C158     1.0000 0.56450  0.17550  0.76170  Biso   1.000  C
  C159     1.0000 0.93550  0.17550  0.26170  Biso   1.000  C
  C160     1.0000 0.06450  0.82450  0.76170  Biso   1.000  C
  H201     1.0000 0.41800  0.80710  0.27520  Biso   1.000  H
  H202     1.0000 0.58200  0.19290  0.77520  Biso   1.000  H
  H203     1.0000 0.91800  0.19290  0.27520  Biso   1.000  H
  H204     1.0000 0.08200  0.80710  0.77520  Biso   1.000  H
  C161     1.0000 0.45340  0.85200  0.28850  Biso   1.000  C
  C162     1.0000 0.54660  0.14800  0.78850  Biso   1.000  C
  C163     1.0000 0.95340  0.14800  0.28850  Biso   1.000  C
  C164     1.0000 0.04660  0.85200  0.78850  Biso   1.000  C
  H205     1.0000 0.44730  0.85350  0.32010  Biso   1.000  H
  H206     1.0000 0.55270  0.14650  0.82010  Biso   1.000  H
  H207     1.0000 0.94730  0.14650  0.32010  Biso   1.000  H
  H208     1.0000 0.05270  0.85350  0.82010  Biso   1.000  H
  C165     1.0000 0.42060  0.79180  0.18410  Biso   1.000  C
  C166     1.0000 0.57940  0.20820  0.68410  Biso   1.000  C
  C167     1.0000 0.92060  0.20820  0.18410  Biso   1.000  C
  C168     1.0000 0.07940  0.79180  0.68410  Biso   1.000  C
  C169     1.0000 0.43420  0.77670  0.14360  Biso   1.000  C
  C170     1.0000 0.56580  0.22330  0.64360  Biso   1.000  C
  C171     1.0000 0.93420  0.22330  0.14360  Biso   1.000  C
  C172     1.0000 0.06580  0.77670  0.64360  Biso   1.000  C
  H209     1.0000 0.45740  0.78460  0.13550  Biso   1.000  H
  H210     1.0000 0.54260  0.21540  0.63550  Biso   1.000  H
  H211     1.0000 0.95740  0.21540  0.13550  Biso   1.000  H
  H212     1.0000 0.04260  0.78460  0.63550  Biso   1.000  H
  C173     1.0000 0.41520  0.74990  0.11320  Biso   1.000  C
  C174     1.0000 0.58480  0.25010  0.61320  Biso   1.000  C
  C175     1.0000 0.91520  0.25010  0.11320  Biso   1.000  C
  C176     1.0000 0.08480  0.74990  0.61320  Biso   1.000  C
  C177     1.0000 0.42950  0.74190  0.06730  Biso   1.000  C
  C178     1.0000 0.57050  0.25810  0.56730  Biso   1.000  C
  C179     1.0000 0.92950  0.25810  0.06730  Biso   1.000  C
  C180     1.0000 0.07050  0.74190  0.56730  Biso   1.000  C
  H213     1.0000 0.41020  0.73650  0.04590  Biso   1.000  H
  H214     1.0000 0.58980  0.26350  0.54590  Biso   1.000  H
  H215     1.0000 0.91020  0.26350  0.04590  Biso   1.000  H
  H216     1.0000 0.08980  0.73650  0.54590  Biso   1.000  H
  H217     1.0000 0.44490  0.71690  0.06840  Biso   1.000  H
  H218     1.0000 0.55510  0.28310  0.56840  Biso   1.000  H
  H219     1.0000 0.94490  0.28310  0.06840  Biso   1.000  H
  H220     1.0000 0.05510  0.71690  0.56840  Biso   1.000  H
  H221     1.0000 0.44280  0.76680  0.05710  Biso   1.000  H
  H222     1.0000 0.55720  0.23320  0.55710  Biso   1.000  H
  H223     1.0000 0.94280  0.23320  0.05710  Biso   1.000  H
  H224     1.0000 0.05720  0.76680  0.55710  Biso   1.000  H
  C181     1.0000 0.28780  0.77520  0.38140  Biso   1.000  C
  C182     1.0000 0.71220  0.22480  0.88140  Biso   1.000  C
  C183     1.0000 0.78780  0.22480  0.38140  Biso   1.000  C
  C184     1.0000 0.21220  0.77520  0.88140  Biso   1.000  C
  H225     1.0000 0.26800  0.78800  0.39580  Biso   1.000  H
  H226     1.0000 0.73200  0.21200  0.89580  Biso   1.000  H
  H227     1.0000 0.76800  0.21200  0.39580  Biso   1.000  H
  H228     1.0000 0.23200  0.78800  0.89580  Biso   1.000  H
  C185     1.0000 0.28970  0.77830  0.33480  Biso   1.000  C
  C186     1.0000 0.71030  0.22170  0.83480  Biso   1.000  C
  C187     1.0000 0.78970  0.22170  0.33480  Biso   1.000  C
  C188     1.0000 0.21030  0.77830  0.83480  Biso   1.000  C
  H229     1.0000 0.27230  0.79330  0.31780  Biso   1.000  H
  H230     1.0000 0.72770  0.20670  0.81780  Biso   1.000  H
  H231     1.0000 0.77230  0.20670  0.31780  Biso   1.000  H
  H232     1.0000 0.22770  0.79330  0.81780  Biso   1.000  H
  C189     1.0000 0.31770  0.75900  0.31320  Biso   1.000  C
  C190     1.0000 0.68230  0.24100  0.81320  Biso   1.000  C
  C191     1.0000 0.81770  0.24100  0.31320  Biso   1.000  C
  C192     1.0000 0.18230  0.75900  0.81320  Biso   1.000  C
  C193     1.0000 0.34350  0.73930  0.34100  Biso   1.000  C
  C194     1.0000 0.65650  0.26070  0.84100  Biso   1.000  C
  C195     1.0000 0.84350  0.26070  0.34100  Biso   1.000  C
  C196     1.0000 0.15650  0.73930  0.84100  Biso   1.000  C
  H233     1.0000 0.36350  0.72640  0.32730  Biso   1.000  H
  H234     1.0000 0.63650  0.27360  0.82730  Biso   1.000  H
  H235     1.0000 0.86350  0.27360  0.32730  Biso   1.000  H
  H236     1.0000 0.13650  0.72640  0.82730  Biso   1.000  H
  C197     1.0000 0.33960  0.73890  0.38560  Biso   1.000  C
  C198     1.0000 0.66040  0.26110  0.88560  Biso   1.000  C
  C199     1.0000 0.83960  0.26110  0.38560  Biso   1.000  C
  C200     1.0000 0.16040  0.73890  0.88560  Biso   1.000  C
  H237     1.0000 0.35770  0.72610  0.40330  Biso   1.000  H
  H238     1.0000 0.64230  0.27390  0.90330  Biso   1.000  H
  H239     1.0000 0.85770  0.27390  0.40330  Biso   1.000  H
  H240     1.0000 0.14230  0.72610  0.90330  Biso   1.000  H
  C201     1.0000 0.32300  0.75810  0.26140  Biso   1.000  C
  C202     1.0000 0.67700  0.24190  0.76140  Biso   1.000  C
  C203     1.0000 0.82300  0.24190  0.26140  Biso   1.000  C
  C204     1.0000 0.17700  0.75810  0.76140  Biso   1.000  C
  C205     1.0000 0.30400  0.78440  0.23410  Biso   1.000  C
  C206     1.0000 0.69600  0.21560  0.73410  Biso   1.000  C
  C207     1.0000 0.80400  0.21560  0.23410  Biso   1.000  C
  C208     1.0000 0.19600  0.78440  0.73410  Biso   1.000  C
  H241     1.0000 0.28810  0.80300  0.24920  Biso   1.000  H
  H242     1.0000 0.71190  0.19700  0.74920  Biso   1.000  H
  H243     1.0000 0.78810  0.19700  0.24920  Biso   1.000  H
  H244     1.0000 0.21190  0.80300  0.74920  Biso   1.000  H
  C209     1.0000 0.30500  0.78700  0.18690  Biso   1.000  C
  C210     1.0000 0.69500  0.21300  0.68690  Biso   1.000  C
  C211     1.0000 0.80500  0.21300  0.18690  Biso   1.000  C
  C212     1.0000 0.19500  0.78700  0.68690  Biso   1.000  C
  C213     1.0000 0.27960  0.81830  0.16200  Biso   1.000  C
  C214     1.0000 0.72040  0.18170  0.66200  Biso   1.000  C
  C215     1.0000 0.77960  0.18170  0.16200  Biso   1.000  C
  C216     1.0000 0.22040  0.81830  0.66200  Biso   1.000  C
  H245     1.0000 0.25910  0.82360  0.18150  Biso   1.000  H
  H246     1.0000 0.74090  0.17640  0.68150  Biso   1.000  H
  H247     1.0000 0.75910  0.17640  0.18150  Biso   1.000  H
  H248     1.0000 0.24090  0.82360  0.68150  Biso   1.000  H
  H249     1.0000 0.27190  0.80570  0.13290  Biso   1.000  H
  H250     1.0000 0.72810  0.19430  0.63290  Biso   1.000  H
  H251     1.0000 0.77190  0.19430  0.13290  Biso   1.000  H
  H252     1.0000 0.22810  0.80570  0.63290  Biso   1.000  H
  H253     1.0000 0.29160  0.84530  0.15590  Biso   1.000  H
  H254     1.0000 0.70840  0.15470  0.65590  Biso   1.000  H
  H255     1.0000 0.79160  0.15470  0.15590  Biso   1.000  H
  H256     1.0000 0.20840  0.84530  0.65590  Biso   1.000  H
  C217     1.0000 0.57310  0.62560  0.23010  Biso   1.000  C
  C218     1.0000 0.42690  0.37440  0.73010  Biso   1.000  C
  C219     1.0000 0.07310  0.37440  0.23010  Biso   1.000  C
  C220     1.0000 0.92690  0.62560  0.73010  Biso   1.000  C
  H257     1.0000 0.55930  0.60620  0.21270  Biso   1.000  H
  H258     1.0000 0.44070  0.39380  0.71270  Biso   1.000  H
  H259     1.0000 0.05930  0.39380  0.21270  Biso   1.000  H
  H260     1.0000 0.94070  0.60620  0.71270  Biso   1.000  H
  C221     1.0000 0.59590  0.65460  0.20700  Biso   1.000  C
  C222     1.0000 0.40410  0.34540  0.70700  Biso   1.000  C
  C223     1.0000 0.09590  0.34540  0.20700  Biso   1.000  C
  C224     1.0000 0.90410  0.65460  0.70700  Biso   1.000  C
  H261     1.0000 0.59710  0.65410  0.17440  Biso   1.000  H
  H262     1.0000 0.40290  0.34590  0.67440  Biso   1.000  H
  H263     1.0000 0.09710  0.34590  0.17440  Biso   1.000  H
  H264     1.0000 0.90290  0.65410  0.67440  Biso   1.000  H
  C225     1.0000 0.61600  0.68310  0.23090  Biso   1.000  C
  C226     1.0000 0.38400  0.31690  0.73090  Biso   1.000  C
  C227     1.0000 0.11600  0.31690  0.23090  Biso   1.000  C
  C228     1.0000 0.88400  0.68310  0.73090  Biso   1.000  C
  C229     1.0000 0.61480  0.68130  0.27770  Biso   1.000  C
  C230     1.0000 0.38520  0.31870  0.77770  Biso   1.000  C
  C231     1.0000 0.11480  0.31870  0.27770  Biso   1.000  C
  C232     1.0000 0.88520  0.68130  0.77770  Biso   1.000  C
  H265     1.0000 0.62910  0.69930  0.29610  Biso   1.000  H
  H266     1.0000 0.37090  0.30070  0.79610  Biso   1.000  H
  H267     1.0000 0.12910  0.30070  0.29610  Biso   1.000  H
  H268     1.0000 0.87090  0.69930  0.79610  Biso   1.000  H
  C233     1.0000 0.59240  0.65260  0.29680  Biso   1.000  C
  C234     1.0000 0.40760  0.34740  0.79680  Biso   1.000  C
  C235     1.0000 0.09240  0.34740  0.29680  Biso   1.000  C
  C236     1.0000 0.90760  0.65260  0.79680  Biso   1.000  C
  H269     1.0000 0.59260  0.65220  0.32950  Biso   1.000  H
  H270     1.0000 0.40740  0.34780  0.82950  Biso   1.000  H
  H271     1.0000 0.09260  0.34780  0.32950  Biso   1.000  H
  H272     1.0000 0.90740  0.65220  0.82950  Biso   1.000  H
  C237     1.0000 0.63840  0.71460  0.20670  Biso   1.000  C
  C238     1.0000 0.36160  0.28540  0.70670  Biso   1.000  C
  C239     1.0000 0.13840  0.28540  0.20670  Biso   1.000  C
  C240     1.0000 0.86160  0.71460  0.70670  Biso   1.000  C
  C241     1.0000 0.63220  0.72600  0.16390  Biso   1.000  C
  C242     1.0000 0.36780  0.27400  0.66390  Biso   1.000  C
  C243     1.0000 0.13220  0.27400  0.16390  Biso   1.000  C
  C244     1.0000 0.86780  0.72600  0.66390  Biso   1.000  C
  H273     1.0000 0.61220  0.71390  0.14920  Biso   1.000  H
  H274     1.0000 0.38780  0.28610  0.64920  Biso   1.000  H
  H275     1.0000 0.11220  0.28610  0.14920  Biso   1.000  H
  H276     1.0000 0.88780  0.71390  0.64920  Biso   1.000  H
  C245     1.0000 0.65330  0.75530  0.13730  Biso   1.000  C
  C246     1.0000 0.34670  0.24470  0.63730  Biso   1.000  C
  C247     1.0000 0.15330  0.24470  0.13730  Biso   1.000  C
  C248     1.0000 0.84670  0.75530  0.63730  Biso   1.000  C
  C249     1.0000 0.64680  0.75880  0.08800  Biso   1.000  C
  C250     1.0000 0.35320  0.24120  0.58800  Biso   1.000  C
  C251     1.0000 0.14680  0.24120  0.08800  Biso   1.000  C
  C252     1.0000 0.85320  0.75880  0.58800  Biso   1.000  C
  H277     1.0000 0.62310  0.76970  0.08280  Biso   1.000  H
  H278     1.0000 0.37690  0.23030  0.58280  Biso   1.000  H
  H279     1.0000 0.12310  0.23030  0.08280  Biso   1.000  H
  H280     1.0000 0.87690  0.76970  0.58280  Biso   1.000  H
  H281     1.0000 0.64910  0.73060  0.07380  Biso   1.000  H
  H282     1.0000 0.35090  0.26940  0.57380  Biso   1.000  H
  H283     1.0000 0.14910  0.26940  0.07380  Biso   1.000  H
  H284     1.0000 0.85090  0.73060  0.57380  Biso   1.000  H
  H285     1.0000 0.66390  0.77830  0.07430  Biso   1.000  H
  H286     1.0000 0.33610  0.22170  0.57430  Biso   1.000  H
  H287     1.0000 0.16390  0.22170  0.07430  Biso   1.000  H
  H288     1.0000 0.83610  0.77830  0.57430  Biso   1.000  H
  C253     1.0000 0.57230  0.92640  0.26620  Biso   1.000  C
  C254     1.0000 0.42770  0.07360  0.76620  Biso   1.000  C
  C255     1.0000 0.07230  0.07360  0.26620  Biso   1.000  C
  C256     1.0000 0.92770  0.92640  0.76620  Biso   1.000  C
  H289     1.0000 0.56540  0.95530  0.26170  Biso   1.000  H
  H290     1.0000 0.43460  0.04470  0.76170  Biso   1.000  H
  H291     1.0000 0.06540  0.04470  0.26170  Biso   1.000  H
  H292     1.0000 0.93460  0.95530  0.76170  Biso   1.000  H
  C257     1.0000 0.60450  0.91370  0.25160  Biso   1.000  C
  C258     1.0000 0.39550  0.08630  0.75160  Biso   1.000  C
  C259     1.0000 0.10450  0.08630  0.25160  Biso   1.000  C
  C260     1.0000 0.89550  0.91370  0.75160  Biso   1.000  C
  H293     1.0000 0.62050  0.93410  0.23970  Biso   1.000  H
  H294     1.0000 0.37950  0.06590  0.73970  Biso   1.000  H
  H295     1.0000 0.12050  0.06590  0.23970  Biso   1.000  H
  H296     1.0000 0.87950  0.93410  0.73970  Biso   1.000  H
  C261     1.0000 0.61390  0.87070  0.25430  Biso   1.000  C
  C262     1.0000 0.38610  0.12930  0.75430  Biso   1.000  C
  C263     1.0000 0.11390  0.12930  0.25430  Biso   1.000  C
  C264     1.0000 0.88610  0.87070  0.75430  Biso   1.000  C
  C265     1.0000 0.58930  0.84310  0.27060  Biso   1.000  C
  C266     1.0000 0.41070  0.15690  0.77060  Biso   1.000  C
  C267     1.0000 0.08930  0.15690  0.27060  Biso   1.000  C
  C268     1.0000 0.91070  0.84310  0.77060  Biso   1.000  C
  H297     1.0000 0.59350  0.81330  0.26900  Biso   1.000  H
  H298     1.0000 0.40650  0.18670  0.76900  Biso   1.000  H
  H299     1.0000 0.09350  0.18670  0.26900  Biso   1.000  H
  H300     1.0000 0.90650  0.81330  0.76900  Biso   1.000  H
  C269     1.0000 0.55940  0.85720  0.28870  Biso   1.000  C
  C270     1.0000 0.44060  0.14280  0.78870  Biso   1.000  C
  C271     1.0000 0.05940  0.14280  0.28870  Biso   1.000  C
  C272     1.0000 0.94060  0.85720  0.78870  Biso   1.000  C
  H301     1.0000 0.54460  0.83700  0.30330  Biso   1.000  H
  H302     1.0000 0.45540  0.16300  0.80330  Biso   1.000  H
  H303     1.0000 0.04460  0.16300  0.30330  Biso   1.000  H
  H304     1.0000 0.95540  0.83700  0.80330  Biso   1.000  H
  C273     1.0000 0.64840  0.85300  0.23800  Biso   1.000  C
  C274     1.0000 0.35160  0.14700  0.73800  Biso   1.000  C
  C275     1.0000 0.14840  0.14700  0.23800  Biso   1.000  C
  C276     1.0000 0.85160  0.85300  0.73800  Biso   1.000  C
  C277     1.0000 0.67720  0.88380  0.22670  Biso   1.000  C
  C278     1.0000 0.32280  0.11620  0.72670  Biso   1.000  C
  C279     1.0000 0.17720  0.11620  0.22670  Biso   1.000  C
  C280     1.0000 0.82280  0.88380  0.72670  Biso   1.000  C
  H305     1.0000 0.67280  0.91350  0.22890  Biso   1.000  H
  H306     1.0000 0.32720  0.08650  0.72890  Biso   1.000  H
  H307     1.0000 0.17280  0.08650  0.22890  Biso   1.000  H
  H308     1.0000 0.82720  0.91350  0.72890  Biso   1.000  H
  C281     1.0000 0.70920  0.87040  0.21340  Biso   1.000  C
  C282     1.0000 0.29080  0.12960  0.71340  Biso   1.000  C
  C283     1.0000 0.20920  0.12960  0.21340  Biso   1.000  C
  C284     1.0000 0.79080  0.87040  0.71340  Biso   1.000  C
  C285     1.0000 0.73670  0.90280  0.20370  Biso   1.000  C
  C286     1.0000 0.26330  0.09720  0.70370  Biso   1.000  C
  C287     1.0000 0.23670  0.09720  0.20370  Biso   1.000  C
  C288     1.0000 0.76330  0.90280  0.70370  Biso   1.000  C
  H309     1.0000 0.74460  0.91570  0.23260  Biso   1.000  H
  H310     1.0000 0.25540  0.08430  0.73260  Biso   1.000  H
  H311     1.0000 0.24460  0.08430  0.23260  Biso   1.000  H
  H312     1.0000 0.75540  0.91570  0.73260  Biso   1.000  H
  H313     1.0000 0.72710  0.92500  0.18360  Biso   1.000  H
  H314     1.0000 0.27290  0.07500  0.68360  Biso   1.000  H
  H315     1.0000 0.22710  0.07500  0.18360  Biso   1.000  H
  H316     1.0000 0.77290  0.92500  0.68360  Biso   1.000  H
  H317     1.0000 0.75670  0.88910  0.18840  Biso   1.000  H
  H318     1.0000 0.24330  0.11090  0.68840  Biso   1.000  H
  H319     1.0000 0.25670  0.11090  0.18840  Biso   1.000  H
  H320     1.0000 0.74330  0.88910  0.68840  Biso   1.000  H
  C289     1.0000 0.68420  0.77420  0.42230  Biso   1.000  C
  C290     1.0000 0.31580  0.22580  0.92230  Biso   1.000  C
  C291     1.0000 0.18420  0.22580  0.42230  Biso   1.000  C
  C292     1.0000 0.81580  0.77420  0.92230  Biso   1.000  C
  H321     1.0000 0.66370  0.78730  0.43410  Biso   1.000  H
  H322     1.0000 0.33630  0.21270  0.93410  Biso   1.000  H
  H323     1.0000 0.16370  0.21270  0.43410  Biso   1.000  H
  H324     1.0000 0.83630  0.78730  0.93410  Biso   1.000  H
  C293     1.0000 0.68780  0.77280  0.37500  Biso   1.000  C
  C294     1.0000 0.31220  0.22720  0.87500  Biso   1.000  C
  C295     1.0000 0.18780  0.22720  0.37500  Biso   1.000  C
  C296     1.0000 0.81220  0.77280  0.87500  Biso   1.000  C
  H325     1.0000 0.67000  0.78390  0.35570  Biso   1.000  H
  H326     1.0000 0.33000  0.21610  0.85570  Biso   1.000  H
  H327     1.0000 0.17000  0.21610  0.35570  Biso   1.000  H
  H328     1.0000 0.83000  0.78390  0.85570  Biso   1.000  H
  C297     1.0000 0.71750  0.75520  0.35630  Biso   1.000  C
  C298     1.0000 0.28250  0.24480  0.85630  Biso   1.000  C
  C299     1.0000 0.21750  0.24480  0.35630  Biso   1.000  C
  C300     1.0000 0.78250  0.75520  0.85630  Biso   1.000  C
  C301     1.0000 0.74240  0.74060  0.38660  Biso   1.000  C
  C302     1.0000 0.25760  0.25940  0.88660  Biso   1.000  C
  C303     1.0000 0.24240  0.25940  0.38660  Biso   1.000  C
  C304     1.0000 0.75760  0.74060  0.88660  Biso   1.000  C
  H329     1.0000 0.76420  0.73050  0.37530  Biso   1.000  H
  H330     1.0000 0.23580  0.26950  0.87530  Biso   1.000  H
  H331     1.0000 0.26420  0.26950  0.37530  Biso   1.000  H
  H332     1.0000 0.73580  0.73050  0.87530  Biso   1.000  H
  C305     1.0000 0.73620  0.74040  0.43360  Biso   1.000  C
  C306     1.0000 0.26380  0.25960  0.93360  Biso   1.000  C
  C307     1.0000 0.23620  0.25960  0.43360  Biso   1.000  C
  C308     1.0000 0.76380  0.74040  0.93360  Biso   1.000  C
  H333     1.0000 0.75260  0.72700  0.45340  Biso   1.000  H
  H334     1.0000 0.24740  0.27300  0.95340  Biso   1.000  H
  H335     1.0000 0.25260  0.27300  0.45340  Biso   1.000  H
  H336     1.0000 0.74740  0.72700  0.95340  Biso   1.000  H
  C309     1.0000 0.72210  0.75350  0.30530  Biso   1.000  C
  C310     1.0000 0.27790  0.24650  0.80530  Biso   1.000  C
  C311     1.0000 0.22210  0.24650  0.30530  Biso   1.000  C
  C312     1.0000 0.77790  0.75350  0.80530  Biso   1.000  C
  C313     1.0000 0.74210  0.72440  0.28390  Biso   1.000  C
  C314     1.0000 0.25790  0.27560  0.78390  Biso   1.000  C
  C315     1.0000 0.24210  0.27560  0.28390  Biso   1.000  C
  C316     1.0000 0.75790  0.72440  0.78390  Biso   1.000  C
  H337     1.0000 0.75400  0.70430  0.30270  Biso   1.000  H
  H338     1.0000 0.24600  0.29570  0.80270  Biso   1.000  H
  H339     1.0000 0.25400  0.29570  0.30270  Biso   1.000  H
  H340     1.0000 0.74600  0.70430  0.80270  Biso   1.000  H
  C317     1.0000 0.74700  0.72100  0.23730  Biso   1.000  C
  C318     1.0000 0.25300  0.27900  0.73730  Biso   1.000  C
  C319     1.0000 0.24700  0.27900  0.23730  Biso   1.000  C
  C320     1.0000 0.75300  0.72100  0.73730  Biso   1.000  C
  C321     1.0000 0.77290  0.68760  0.21960  Biso   1.000  C
  C322     1.0000 0.22710  0.31240  0.71960  Biso   1.000  C
  C323     1.0000 0.27290  0.31240  0.21960  Biso   1.000  C
  C324     1.0000 0.72710  0.68760  0.71960  Biso   1.000  C
  H341     1.0000 0.79430  0.68860  0.23820  Biso   1.000  H
  H342     1.0000 0.20570  0.31140  0.73820  Biso   1.000  H
  H343     1.0000 0.29430  0.31140  0.23820  Biso   1.000  H
  H344     1.0000 0.70570  0.68860  0.73820  Biso   1.000  H
  H345     1.0000 0.77860  0.69360  0.18750  Biso   1.000  H
  H346     1.0000 0.22140  0.30640  0.68750  Biso   1.000  H
  H347     1.0000 0.27860  0.30640  0.18750  Biso   1.000  H
  H348     1.0000 0.72140  0.69360  0.68750  Biso   1.000  H
  H349     1.0000 0.76230  0.65920  0.22200  Biso   1.000  H
  H350     1.0000 0.23770  0.34080  0.72200  Biso   1.000  H
  H351     1.0000 0.26230  0.34080  0.22200  Biso   1.000  H
  H352     1.0000 0.73770  0.65920  0.72200  Biso   1.000  H
  C325     1.0000 0.54390  0.85810  0.69960  Biso   1.000  C
  C326     1.0000 0.45610  0.14190  0.19960  Biso   1.000  C
  C327     1.0000 0.04390  0.14190  0.69960  Biso   1.000  C
  C328     1.0000 0.95610  0.85810  0.19960  Biso   1.000  C
  H353     1.0000 0.55160  0.85970  0.66860  Biso   1.000  H
  H354     1.0000 0.44840  0.14030  0.16860  Biso   1.000  H
  H355     1.0000 0.05160  0.14030  0.66860  Biso   1.000  H
  H356     1.0000 0.94840  0.85970  0.16860  Biso   1.000  H
  C329     1.0000 0.56190  0.83340  0.73030  Biso   1.000  C
  C330     1.0000 0.43810  0.16660  0.23030  Biso   1.000  C
  C331     1.0000 0.06190  0.16660  0.73030  Biso   1.000  C
  C332     1.0000 0.93810  0.83340  0.23030  Biso   1.000  C
  H357     1.0000 0.58120  0.81740  0.71890  Biso   1.000  H
  H358     1.0000 0.41880  0.18260  0.21890  Biso   1.000  H
  H359     1.0000 0.08120  0.18260  0.71890  Biso   1.000  H
  H360     1.0000 0.91880  0.81740  0.21890  Biso   1.000  H
  C333     1.0000 0.55440  0.82980  0.77640  Biso   1.000  C
  C334     1.0000 0.44560  0.17020  0.27640  Biso   1.000  C
  C335     1.0000 0.05440  0.17020  0.77640  Biso   1.000  C
  C336     1.0000 0.94560  0.82980  0.27640  Biso   1.000  C
  C337     1.0000 0.52600  0.85390  0.79040  Biso   1.000  C
  C338     1.0000 0.47400  0.14610  0.29040  Biso   1.000  C
  C339     1.0000 0.02600  0.14610  0.79040  Biso   1.000  C
  C340     1.0000 0.97400  0.85390  0.29040  Biso   1.000  C
  H361     1.0000 0.51950  0.85280  0.82190  Biso   1.000  H
  H362     1.0000 0.48050  0.14720  0.32190  Biso   1.000  H
  H363     1.0000 0.01950  0.14720  0.82190  Biso   1.000  H
  H364     1.0000 0.98050  0.85280  0.32190  Biso   1.000  H
  C341     1.0000 0.50590  0.88010  0.76070  Biso   1.000  C
  C342     1.0000 0.49410  0.11990  0.26070  Biso   1.000  C
  C343     1.0000 0.00590  0.11990  0.76070  Biso   1.000  C
  C344     1.0000 0.99410  0.88010  0.26070  Biso   1.000  C
  H365     1.0000 0.48700  0.89680  0.77210  Biso   1.000  H
  H366     1.0000 0.51300  0.10320  0.27210  Biso   1.000  H
  H367     1.0000 0.98700  0.10320  0.77210  Biso   1.000  H
  H368     1.0000 0.01300  0.89680  0.27210  Biso   1.000  H
  C345     1.0000 0.57490  0.80390  0.80690  Biso   1.000  C
  C346     1.0000 0.42510  0.19610  0.30690  Biso   1.000  C
  C347     1.0000 0.07490  0.19610  0.80690  Biso   1.000  C
  C348     1.0000 0.92510  0.80390  0.30690  Biso   1.000  C
  C349     1.0000 0.56560  0.79230  0.85040  Biso   1.000  C
  C350     1.0000 0.43440  0.20770  0.35040  Biso   1.000  C
  C351     1.0000 0.06560  0.20770  0.85040  Biso   1.000  C
  C352     1.0000 0.93440  0.79230  0.35040  Biso   1.000  C
  H369     1.0000 0.54300  0.80120  0.86010  Biso   1.000  H
  H370     1.0000 0.45700  0.19880  0.36010  Biso   1.000  H
  H371     1.0000 0.04300  0.19880  0.86010  Biso   1.000  H
  H372     1.0000 0.95700  0.80120  0.36010  Biso   1.000  H
  C353     1.0000 0.58450  0.76940  0.88190  Biso   1.000  C
  C354     1.0000 0.41550  0.23060  0.38190  Biso   1.000  C
  C355     1.0000 0.08450  0.23060  0.88190  Biso   1.000  C
  C356     1.0000 0.91550  0.76940  0.38190  Biso   1.000  C
  C357     1.0000 0.57130  0.76160  0.92990  Biso   1.000  C
  C358     1.0000 0.42870  0.23840  0.42990  Biso   1.000  C
  C359     1.0000 0.07130  0.23840  0.92990  Biso   1.000  C
  C360     1.0000 0.92870  0.76160  0.42990  Biso   1.000  C
  H373     1.0000 0.59000  0.74860  0.94830  Biso   1.000  H
  H374     1.0000 0.41000  0.25140  0.44830  Biso   1.000  H
  H375     1.0000 0.09000  0.25140  0.94830  Biso   1.000  H
  H376     1.0000 0.91000  0.74860  0.44830  Biso   1.000  H
  H377     1.0000 0.55110  0.74250  0.92890  Biso   1.000  H
  H378     1.0000 0.44890  0.25750  0.42890  Biso   1.000  H
  H379     1.0000 0.05110  0.25750  0.92890  Biso   1.000  H
  H380     1.0000 0.94890  0.74250  0.42890  Biso   1.000  H
  H381     1.0000 0.56440  0.78880  0.94380  Biso   1.000  H
  H382     1.0000 0.43560  0.21120  0.44380  Biso   1.000  H
  H383     1.0000 0.06440  0.21120  0.94380  Biso   1.000  H
  H384     1.0000 0.93560  0.78880  0.44380  Biso   1.000  H
  C361     1.0000 0.52080  0.65030  0.73330  Biso   1.000  C
  C362     1.0000 0.47920  0.34970  0.23330  Biso   1.000  C
  C363     1.0000 0.02080  0.34970  0.73330  Biso   1.000  C
  C364     1.0000 0.97920  0.65030  0.23330  Biso   1.000  C
  H385     1.0000 0.50360  0.66790  0.71930  Biso   1.000  H
  H386     1.0000 0.49640  0.33210  0.21930  Biso   1.000  H
  H387     1.0000 0.00360  0.33210  0.71930  Biso   1.000  H
  H388     1.0000 0.99640  0.66790  0.21930  Biso   1.000  H
  C365     1.0000 0.54790  0.67090  0.75430  Biso   1.000  C
  C366     1.0000 0.45210  0.32910  0.25430  Biso   1.000  C
  C367     1.0000 0.04790  0.32910  0.75430  Biso   1.000  C
  C368     1.0000 0.95210  0.67090  0.25430  Biso   1.000  C
  H389     1.0000 0.54990  0.70110  0.75260  Biso   1.000  H
  H390     1.0000 0.45010  0.29890  0.25260  Biso   1.000  H
  H391     1.0000 0.04990  0.29890  0.75260  Biso   1.000  H
  H392     1.0000 0.95010  0.70110  0.25260  Biso   1.000  H
  C369     1.0000 0.57140  0.64780  0.77720  Biso   1.000  C
  C370     1.0000 0.42860  0.35220  0.27720  Biso   1.000  C
  C371     1.0000 0.07140  0.35220  0.77720  Biso   1.000  C
  C372     1.0000 0.92860  0.64780  0.27720  Biso   1.000  C
  C373     1.0000 0.56560  0.60500  0.77860  Biso   1.000  C
  C374     1.0000 0.43440  0.39500  0.27860  Biso   1.000  C
  C375     1.0000 0.06560  0.39500  0.77860  Biso   1.000  C
  C376     1.0000 0.93440  0.60500  0.27860  Biso   1.000  C
  H393     1.0000 0.58080  0.58760  0.79630  Biso   1.000  H
  H394     1.0000 0.41920  0.41240  0.29630  Biso   1.000  H
  H395     1.0000 0.08080  0.41240  0.79630  Biso   1.000  H
  H396     1.0000 0.91920  0.58760  0.29630  Biso   1.000  H
  C377     1.0000 0.53860  0.58650  0.75570  Biso   1.000  C
  C378     1.0000 0.46140  0.41350  0.25570  Biso   1.000  C
  C379     1.0000 0.03860  0.41350  0.75570  Biso   1.000  C
  C380     1.0000 0.96140  0.58650  0.25570  Biso   1.000  C
  H397     1.0000 0.53560  0.55650  0.75780  Biso   1.000  H
  H398     1.0000 0.46440  0.44350  0.25780  Biso   1.000  H
  H399     1.0000 0.03560  0.44350  0.75780  Biso   1.000  H
  H400     1.0000 0.96440  0.55650  0.25780  Biso   1.000  H
  C381     1.0000 0.60390  0.66930  0.79900  Biso   1.000  C
  C382     1.0000 0.39610  0.33070  0.29900  Biso   1.000  C
  C383     1.0000 0.10390  0.33070  0.79900  Biso   1.000  C
  C384     1.0000 0.89610  0.66930  0.29900  Biso   1.000  C
  C385     1.0000 0.62900  0.64740  0.82140  Biso   1.000  C
  C386     1.0000 0.37100  0.35260  0.32140  Biso   1.000  C
  C387     1.0000 0.12900  0.35260  0.82140  Biso   1.000  C
  C388     1.0000 0.87100  0.64740  0.32140  Biso   1.000  C
  H401     1.0000 0.62550  0.61770  0.82540  Biso   1.000  H
  H402     1.0000 0.37450  0.38230  0.32540  Biso   1.000  H
  H403     1.0000 0.12550  0.38230  0.82540  Biso   1.000  H
  H404     1.0000 0.87450  0.61770  0.32540  Biso   1.000  H
  C389     1.0000 0.66060  0.66540  0.83970  Biso   1.000  C
  C390     1.0000 0.33940  0.33460  0.33970  Biso   1.000  C
  C391     1.0000 0.16060  0.33460  0.83970  Biso   1.000  C
  C392     1.0000 0.83940  0.66540  0.33970  Biso   1.000  C
  C393     1.0000 0.68590  0.63810  0.86030  Biso   1.000  C
  C394     1.0000 0.31410  0.36190  0.36030  Biso   1.000  C
  C395     1.0000 0.18590  0.36190  0.86030  Biso   1.000  C
  C396     1.0000 0.81410  0.63810  0.36030  Biso   1.000  C
  H405     1.0000 0.69710  0.62070  0.83650  Biso   1.000  H
  H406     1.0000 0.30290  0.37930  0.33650  Biso   1.000  H
  H407     1.0000 0.19710  0.37930  0.83650  Biso   1.000  H
  H408     1.0000 0.80290  0.62070  0.33650  Biso   1.000  H
  H409     1.0000 0.67440  0.61940  0.88270  Biso   1.000  H
  H410     1.0000 0.32560  0.38060  0.38270  Biso   1.000  H
  H411     1.0000 0.17440  0.38060  0.88270  Biso   1.000  H
  H412     1.0000 0.82560  0.61940  0.38270  Biso   1.000  H
  H413     1.0000 0.70370  0.65540  0.87590  Biso   1.000  H
  H414     1.0000 0.29630  0.34460  0.37590  Biso   1.000  H
  H415     1.0000 0.20370  0.34460  0.87590  Biso   1.000  H
  H416     1.0000 0.79630  0.65540  0.37590  Biso   1.000  H
  C397     1.0000 0.71130  0.79880  0.61310  Biso   1.000  C
  C398     1.0000 0.28870  0.20120  0.11310  Biso   1.000  C
  C399     1.0000 0.21130  0.20120  0.61310  Biso   1.000  C
  C400     1.0000 0.78870  0.79880  0.11310  Biso   1.000  C
  H417     1.0000 0.73000  0.81340  0.59850  Biso   1.000  H
  H418     1.0000 0.27000  0.18660  0.09850  Biso   1.000  H
  H419     1.0000 0.23000  0.18660  0.59850  Biso   1.000  H
  H420     1.0000 0.77000  0.81340  0.09850  Biso   1.000  H
  C401     1.0000 0.70680  0.80250  0.66140  Biso   1.000  C
  C402     1.0000 0.29320  0.19750  0.16140  Biso   1.000  C
  C403     1.0000 0.20680  0.19750  0.66140  Biso   1.000  C
  C404     1.0000 0.79320  0.80250  0.16140  Biso   1.000  C
  H421     1.0000 0.72180  0.82090  0.67840  Biso   1.000  H
  H422     1.0000 0.27820  0.17910  0.17840  Biso   1.000  H
  H423     1.0000 0.22180  0.17910  0.67840  Biso   1.000  H
  H424     1.0000 0.77820  0.82090  0.17840  Biso   1.000  H
  C405     1.0000 0.68130  0.78030  0.68370  Biso   1.000  C
  C406     1.0000 0.31870  0.21970  0.18370  Biso   1.000  C
  C407     1.0000 0.18130  0.21970  0.68370  Biso   1.000  C
  C408     1.0000 0.81870  0.78030  0.18370  Biso   1.000  C
  C409     1.0000 0.65960  0.75690  0.65770  Biso   1.000  C
  C410     1.0000 0.34040  0.24310  0.15770  Biso   1.000  C
  C411     1.0000 0.15960  0.24310  0.65770  Biso   1.000  C
  C412     1.0000 0.84040  0.75690  0.15770  Biso   1.000  C
  H425     1.0000 0.64060  0.74190  0.67110  Biso   1.000  H
  H426     1.0000 0.35940  0.25810  0.17110  Biso   1.000  H
  H427     1.0000 0.14060  0.25810  0.67110  Biso   1.000  H
  H428     1.0000 0.85940  0.74190  0.17110  Biso   1.000  H
  C413     1.0000 0.66590  0.75520  0.60840  Biso   1.000  C
  C414     1.0000 0.33410  0.24480  0.10840  Biso   1.000  C
  C415     1.0000 0.16590  0.24480  0.60840  Biso   1.000  C
  C416     1.0000 0.83410  0.75520  0.10840  Biso   1.000  C
  H429     1.0000 0.65090  0.73770  0.59050  Biso   1.000  H
  H430     1.0000 0.34910  0.26230  0.09050  Biso   1.000  H
  H431     1.0000 0.15090  0.26230  0.59050  Biso   1.000  H
  H432     1.0000 0.84910  0.73770  0.09050  Biso   1.000  H
  C417     1.0000 0.67900  0.78180  0.73400  Biso   1.000  C
  C418     1.0000 0.32100  0.21820  0.23400  Biso   1.000  C
  C419     1.0000 0.17900  0.21820  0.73400  Biso   1.000  C
  C420     1.0000 0.82100  0.78180  0.23400  Biso   1.000  C
  C421     1.0000 0.69420  0.81130  0.75930  Biso   1.000  C
  C422     1.0000 0.30580  0.18870  0.25930  Biso   1.000  C
  C423     1.0000 0.19420  0.18870  0.75930  Biso   1.000  C
  C424     1.0000 0.80580  0.81130  0.25930  Biso   1.000  C
  H433     1.0000 0.70690  0.83290  0.74370  Biso   1.000  H
  H434     1.0000 0.29310  0.16710  0.24370  Biso   1.000  H
  H435     1.0000 0.20690  0.16710  0.74370  Biso   1.000  H
  H436     1.0000 0.79310  0.83290  0.24370  Biso   1.000  H
  C425     1.0000 0.69330  0.81340  0.80760  Biso   1.000  C
  C426     1.0000 0.30670  0.18660  0.30760  Biso   1.000  C
  C427     1.0000 0.19330  0.18660  0.80760  Biso   1.000  C
  C428     1.0000 0.80670  0.81340  0.30760  Biso   1.000  C
  C429     1.0000 0.71790  0.84210  0.83320  Biso   1.000  C
  C430     1.0000 0.28210  0.15790  0.33320  Biso   1.000  C
  C431     1.0000 0.21790  0.15790  0.83320  Biso   1.000  C
  C432     1.0000 0.78210  0.84210  0.33320  Biso   1.000  C
  H437     1.0000 0.74190  0.83760  0.82210  Biso   1.000  H
  H438     1.0000 0.25810  0.16240  0.32210  Biso   1.000  H
  H439     1.0000 0.24190  0.16240  0.82210  Biso   1.000  H
  H440     1.0000 0.75810  0.83760  0.32210  Biso   1.000  H
  H441     1.0000 0.71680  0.83550  0.86610  Biso   1.000  H
  H442     1.0000 0.28320  0.16450  0.36610  Biso   1.000  H
  H443     1.0000 0.21680  0.16450  0.86610  Biso   1.000  H
  H444     1.0000 0.78320  0.83550  0.36610  Biso   1.000  H
  H445     1.0000 0.71110  0.87190  0.82820  Biso   1.000  H
  H446     1.0000 0.28890  0.12810  0.32820  Biso   1.000  H
  H447     1.0000 0.21110  0.12810  0.82820  Biso   1.000  H
  H448     1.0000 0.78890  0.87190  0.32820  Biso   1.000  H
  C433     1.0000 0.41260  0.54390  0.66230  Biso   1.000  C
  C434     1.0000 0.58740  0.45610  0.16230  Biso   1.000  C
  C435     1.0000 0.91260  0.45610  0.66230  Biso   1.000  C
  C436     1.0000 0.08740  0.54390  0.16230  Biso   1.000  C
  H449     1.0000 0.40700  0.54860  0.69370  Biso   1.000  H
  H450     1.0000 0.59300  0.45140  0.19370  Biso   1.000  H
  H451     1.0000 0.90700  0.45140  0.69370  Biso   1.000  H
  H452     1.0000 0.09300  0.54860  0.19370  Biso   1.000  H
  C437     1.0000 0.38900  0.52300  0.63630  Biso   1.000  C
  C438     1.0000 0.61100  0.47700  0.13630  Biso   1.000  C
  C439     1.0000 0.88900  0.47700  0.63630  Biso   1.000  C
  C440     1.0000 0.11100  0.52300  0.13630  Biso   1.000  C
  H453     1.0000 0.36770  0.51310  0.64930  Biso   1.000  H
  H454     1.0000 0.63230  0.48690  0.14930  Biso   1.000  H
  H455     1.0000 0.86770  0.48690  0.64930  Biso   1.000  H
  H456     1.0000 0.13230  0.51310  0.14930  Biso   1.000  H
  C441     1.0000 0.39650  0.51640  0.59030  Biso   1.000  C
  C442     1.0000 0.60350  0.48360  0.09030  Biso   1.000  C
  C443     1.0000 0.89650  0.48360  0.59030  Biso   1.000  C
  C444     1.0000 0.10350  0.51640  0.09030  Biso   1.000  C
  C445     1.0000 0.42830  0.53060  0.57350  Biso   1.000  C
  C446     1.0000 0.57170  0.46940  0.07350  Biso   1.000  C
  C447     1.0000 0.92830  0.46940  0.57350  Biso   1.000  C
  C448     1.0000 0.07170  0.53060  0.07350  Biso   1.000  C
  H457     1.0000 0.43450  0.52590  0.54230  Biso   1.000  H
  H458     1.0000 0.56550  0.47410  0.04230  Biso   1.000  H
  H459     1.0000 0.93450  0.47410  0.54230  Biso   1.000  H
  H460     1.0000 0.06550  0.52590  0.04230  Biso   1.000  H
  C449     1.0000 0.45100  0.55170  0.60290  Biso   1.000  C
  C450     1.0000 0.54900  0.44830  0.10290  Biso   1.000  C
  C451     1.0000 0.95100  0.44830  0.60290  Biso   1.000  C
  C452     1.0000 0.04900  0.55170  0.10290  Biso   1.000  C
  H461     1.0000 0.47270  0.56180  0.59120  Biso   1.000  H
  H462     1.0000 0.52730  0.43820  0.09120  Biso   1.000  H
  H463     1.0000 0.97270  0.43820  0.59120  Biso   1.000  H
  H464     1.0000 0.02730  0.56180  0.09120  Biso   1.000  H
  C453     1.0000 0.37180  0.49450  0.55640  Biso   1.000  C
  C454     1.0000 0.62820  0.50550  0.05640  Biso   1.000  C
  C455     1.0000 0.87180  0.50550  0.55640  Biso   1.000  C
  C456     1.0000 0.12820  0.49450  0.05640  Biso   1.000  C
  C457     1.0000 0.34120  0.48460  0.56870  Biso   1.000  C
  C458     1.0000 0.65880  0.51540  0.06870  Biso   1.000  C
  C459     1.0000 0.84120  0.51540  0.56870  Biso   1.000  C
  C460     1.0000 0.15880  0.48460  0.06870  Biso   1.000  C
  H465     1.0000 0.33390  0.49200  0.59890  Biso   1.000  H
  H466     1.0000 0.66610  0.50800  0.09890  Biso   1.000  H
  H467     1.0000 0.83390  0.50800  0.59890  Biso   1.000  H
  H468     1.0000 0.16610  0.49200  0.09890  Biso   1.000  H
  C461     1.0000 0.31500  0.46100  0.53720  Biso   1.000  C
  C462     1.0000 0.68500  0.53900  0.03720  Biso   1.000  C
  C463     1.0000 0.81500  0.53900  0.53720  Biso   1.000  C
  C464     1.0000 0.18500  0.46100  0.03720  Biso   1.000  C
  C465     1.0000 0.27830  0.44850  0.55690  Biso   1.000  C
  C466     1.0000 0.72170  0.55150  0.05690  Biso   1.000  C
  C467     1.0000 0.77830  0.55150  0.55690  Biso   1.000  C
  C468     1.0000 0.22170  0.44850  0.05690  Biso   1.000  C
  H469     1.0000 0.27490  0.46250  0.58670  Biso   1.000  H
  H470     1.0000 0.72510  0.53750  0.08670  Biso   1.000  H
  H471     1.0000 0.77490  0.53750  0.58670  Biso   1.000  H
  H472     1.0000 0.22510  0.46250  0.08670  Biso   1.000  H
  H473     1.0000 0.27710  0.41750  0.56080  Biso   1.000  H
  H474     1.0000 0.72290  0.58250  0.06080  Biso   1.000  H
  H475     1.0000 0.77710  0.58250  0.56080  Biso   1.000  H
  H476     1.0000 0.22290  0.41750  0.06080  Biso   1.000  H
  H477     1.0000 0.26000  0.45780  0.53550  Biso   1.000  H
  H478     1.0000 0.74000  0.54220  0.03550  Biso   1.000  H
  H479     1.0000 0.76000  0.54220  0.53550  Biso   1.000  H
  H480     1.0000 0.24000  0.45780  0.03550  Biso   1.000  H
  C469     1.0000 0.50830  0.50500  0.34780  Biso   1.000  C
  C470     1.0000 0.49170  0.49500  0.84780  Biso   1.000  C
  C471     1.0000 0.00830  0.49500  0.34780  Biso   1.000  C
  C472     1.0000 0.99170  0.50500  0.84780  Biso   1.000  C
  H481     1.0000 0.53000  0.49320  0.33800  Biso   1.000  H
  H482     1.0000 0.47000  0.50680  0.83800  Biso   1.000  H
  H483     1.0000 0.03000  0.50680  0.33800  Biso   1.000  H
  H484     1.0000 0.97000  0.49320  0.83800  Biso   1.000  H
  C473     1.0000 0.48490  0.47990  0.36780  Biso   1.000  C
  C474     1.0000 0.51510  0.52010  0.86780  Biso   1.000  C
  C475     1.0000 0.98490  0.52010  0.36780  Biso   1.000  C
  C476     1.0000 0.01510  0.47990  0.86780  Biso   1.000  C
  H485     1.0000 0.48990  0.45050  0.37240  Biso   1.000  H
  H486     1.0000 0.51010  0.54950  0.87240  Biso   1.000  H
  H487     1.0000 0.98990  0.54950  0.37240  Biso   1.000  H
  H488     1.0000 0.01010  0.45050  0.87240  Biso   1.000  H
  C477     1.0000 0.45130  0.49750  0.38270  Biso   1.000  C
  C478     1.0000 0.54870  0.50250  0.88270  Biso   1.000  C
  C479     1.0000 0.95130  0.50250  0.38270  Biso   1.000  C
  C480     1.0000 0.04870  0.49750  0.88270  Biso   1.000  C
  C481     1.0000 0.44600  0.53900  0.37440  Biso   1.000  C
  C482     1.0000 0.55400  0.46100  0.87440  Biso   1.000  C
  C483     1.0000 0.94600  0.46100  0.37440  Biso   1.000  C
  C484     1.0000 0.05400  0.53900  0.87440  Biso   1.000  C
  H489     1.0000 0.42430  0.55190  0.38270  Biso   1.000  H
  H490     1.0000 0.57570  0.44810  0.88270  Biso   1.000  H
  H491     1.0000 0.92430  0.44810  0.38270  Biso   1.000  H
  H492     1.0000 0.07570  0.55190  0.88270  Biso   1.000  H
  C485     1.0000 0.47040  0.56180  0.35490  Biso   1.000  C
  C486     1.0000 0.52960  0.43820  0.85490  Biso   1.000  C
  C487     1.0000 0.97040  0.43820  0.35490  Biso   1.000  C
  C488     1.0000 0.02960  0.56180  0.85490  Biso   1.000  C
  H493     1.0000 0.46570  0.59120  0.35030  Biso   1.000  H
  H494     1.0000 0.53430  0.40880  0.85030  Biso   1.000  H
  H495     1.0000 0.96570  0.40880  0.35030  Biso   1.000  H
  H496     1.0000 0.03430  0.59120  0.85030  Biso   1.000  H
  C489     1.0000 0.42390  0.47020  0.40700  Biso   1.000  C
  C490     1.0000 0.57610  0.52980  0.90700  Biso   1.000  C
  C491     1.0000 0.92390  0.52980  0.40700  Biso   1.000  C
  C492     1.0000 0.07610  0.47020  0.90700  Biso   1.000  C
  C493     1.0000 0.42630  0.42630  0.41130  Biso   1.000  C
  C494     1.0000 0.57370  0.57370  0.91130  Biso   1.000  C
  C495     1.0000 0.92630  0.57370  0.41130  Biso   1.000  C
  C496     1.0000 0.07370  0.42630  0.91130  Biso   1.000  C
  H497     1.0000 0.44510  0.41240  0.39620  Biso   1.000  H
  H498     1.0000 0.55490  0.58760  0.89620  Biso   1.000  H
  H499     1.0000 0.94510  0.58760  0.39620  Biso   1.000  H
  H500     1.0000 0.05490  0.41240  0.89620  Biso   1.000  H
  C497     1.0000 0.40330  0.40150  0.43590  Biso   1.000  C
  C498     1.0000 0.59670  0.59850  0.93590  Biso   1.000  C
  C499     1.0000 0.90330  0.59850  0.43590  Biso   1.000  C
  C500     1.0000 0.09670  0.40150  0.93590  Biso   1.000  C
  C501     1.0000 0.41100  0.35190  0.43790  Biso   1.000  C
  C502     1.0000 0.58900  0.64810  0.93790  Biso   1.000  C
  C503     1.0000 0.91100  0.64810  0.43790  Biso   1.000  C
  C504     1.0000 0.08900  0.35190  0.93790  Biso   1.000  C
  H501     1.0000 0.38890  0.33630  0.44060  Biso   1.000  H
  H502     1.0000 0.61110  0.66370  0.94060  Biso   1.000  H
  H503     1.0000 0.88890  0.66370  0.44060  Biso   1.000  H
  H504     1.0000 0.11110  0.33630  0.94060  Biso   1.000  H
  H505     1.0000 0.42580  0.34570  0.46450  Biso   1.000  H
  H506     1.0000 0.57420  0.65430  0.96450  Biso   1.000  H
  H507     1.0000 0.92580  0.65430  0.46450  Biso   1.000  H
  H508     1.0000 0.07420  0.34570  0.96450  Biso   1.000  H
  H509     1.0000 0.42310  0.34310  0.40970  Biso   1.000  H
  H510     1.0000 0.57690  0.65690  0.90970  Biso   1.000  H
  H511     1.0000 0.92310  0.65690  0.40970  Biso   1.000  H
  H512     1.0000 0.07690  0.34310  0.90970  Biso   1.000  H
  C505     1.0000 0.33010  0.66000  0.49020  Biso   1.000  C
  C506     1.0000 0.66990  0.34000  0.99020  Biso   1.000  C
  C507     1.0000 0.83010  0.34000  0.49020  Biso   1.000  C
  C508     1.0000 0.16990  0.66000  0.99020  Biso   1.000  C
  H513     1.0000 0.34230  0.67290  0.51500  Biso   1.000  H
  H514     1.0000 0.65770  0.32710  0.01500  Biso   1.000  H
  H515     1.0000 0.84230  0.32710  0.51500  Biso   1.000  H
  H516     1.0000 0.15770  0.67290  0.01500  Biso   1.000  H
  C509     1.0000 0.33570  0.61660  0.48080  Biso   1.000  C
  C510     1.0000 0.66430  0.38340  0.98080  Biso   1.000  C
  C511     1.0000 0.83570  0.38340  0.48080  Biso   1.000  C
  C512     1.0000 0.16430  0.61660  0.98080  Biso   1.000  C
  H517     1.0000 0.34890  0.60050  0.50230  Biso   1.000  H
  H518     1.0000 0.65110  0.39950  0.00230  Biso   1.000  H
  H519     1.0000 0.84890  0.39950  0.50230  Biso   1.000  H
  H520     1.0000 0.15110  0.60050  0.00230  Biso   1.000  H
  C513     1.0000 0.32320  0.59560  0.44240  Biso   1.000  C
  C514     1.0000 0.67680  0.40440  0.94240  Biso   1.000  C
  C515     1.0000 0.82320  0.40440  0.44240  Biso   1.000  C
  C516     1.0000 0.17680  0.59560  0.94240  Biso   1.000  C
  C517     1.0000 0.29990  0.62070  0.41670  Biso   1.000  C
  C518     1.0000 0.70010  0.37930  0.91670  Biso   1.000  C
  C519     1.0000 0.79990  0.37930  0.41670  Biso   1.000  C
  C520     1.0000 0.20010  0.62070  0.91670  Biso   1.000  C
  H521     1.0000 0.28830  0.60850  0.39100  Biso   1.000  H
  H522     1.0000 0.71170  0.39150  0.89100  Biso   1.000  H
  H523     1.0000 0.78830  0.39150  0.39100  Biso   1.000  H
  H524     1.0000 0.21170  0.60850  0.89100  Biso   1.000  H
  C521     1.0000 0.29340  0.66220  0.42790  Biso   1.000  C
  C522     1.0000 0.70660  0.33780  0.92790  Biso   1.000  C
  C523     1.0000 0.79340  0.33780  0.42790  Biso   1.000  C
  C524     1.0000 0.20660  0.66220  0.92790  Biso   1.000  C
  H525     1.0000 0.27770  0.67790  0.40900  Biso   1.000  H
  H526     1.0000 0.72230  0.32210  0.90900  Biso   1.000  H
  H527     1.0000 0.77770  0.32210  0.40900  Biso   1.000  H
  H528     1.0000 0.22230  0.67790  0.90900  Biso   1.000  H
  C525     1.0000 0.32970  0.55200  0.43190  Biso   1.000  C
  C526     1.0000 0.67030  0.44800  0.93190  Biso   1.000  C
  C527     1.0000 0.82970  0.44800  0.43190  Biso   1.000  C
  C528     1.0000 0.17030  0.55200  0.93190  Biso   1.000  C
  C529     1.0000 0.32510  0.53620  0.38840  Biso   1.000  C
  C530     1.0000 0.67490  0.46380  0.88840  Biso   1.000  C
  C531     1.0000 0.82510  0.46380  0.38840  Biso   1.000  C
  C532     1.0000 0.17490  0.53620  0.88840  Biso   1.000  C
  H529     1.0000 0.32060  0.55570  0.36400  Biso   1.000  H
  H530     1.0000 0.67940  0.44430  0.86400  Biso   1.000  H
  H531     1.0000 0.82060  0.44430  0.36400  Biso   1.000  H
  H532     1.0000 0.17940  0.55570  0.86400  Biso   1.000  H
  C533     1.0000 0.32670  0.49180  0.37810  Biso   1.000  C
  C534     1.0000 0.67330  0.50820  0.87810  Biso   1.000  C
  C535     1.0000 0.82670  0.50820  0.37810  Biso   1.000  C
  C536     1.0000 0.17330  0.49180  0.87810  Biso   1.000  C
  C537     1.0000 0.31510  0.47620  0.33270  Biso   1.000  C
  C538     1.0000 0.68490  0.52380  0.83270  Biso   1.000  C
  C539     1.0000 0.81510  0.52380  0.33270  Biso   1.000  C
  C540     1.0000 0.18490  0.47620  0.83270  Biso   1.000  C
  H533     1.0000 0.29320  0.46020  0.33620  Biso   1.000  H
  H534     1.0000 0.70680  0.53980  0.83620  Biso   1.000  H
  H535     1.0000 0.79320  0.53980  0.33620  Biso   1.000  H
  H536     1.0000 0.20680  0.46020  0.83620  Biso   1.000  H
  H537     1.0000 0.33320  0.45760  0.31970  Biso   1.000  H
  H538     1.0000 0.66680  0.54240  0.81970  Biso   1.000  H
  H539     1.0000 0.83320  0.54240  0.31970  Biso   1.000  H
  H540     1.0000 0.16680  0.45760  0.81970  Biso   1.000  H
  H541     1.0000 0.31120  0.50050  0.31220  Biso   1.000  H
  H542     1.0000 0.68880  0.49950  0.81220  Biso   1.000  H
  H543     1.0000 0.81120  0.49950  0.31220  Biso   1.000  H
  H544     1.0000 0.18880  0.50050  0.81220  Biso   1.000  H
  C541     1.0000 0.43470  0.93780  0.59940  Biso   1.000  C
  C542     1.0000 0.56530  0.06220  0.09940  Biso   1.000  C
  C543     1.0000 0.93470  0.06220  0.59940  Biso   1.000  C
  C544     1.0000 0.06530  0.93780  0.09940  Biso   1.000  C
  H545     1.0000 0.43240  0.90770  0.60050  Biso   1.000  H
  H546     1.0000 0.56760  0.09230  0.10050  Biso   1.000  H
  H547     1.0000 0.93240  0.09230  0.60050  Biso   1.000  H
  H548     1.0000 0.06760  0.90770  0.10050  Biso   1.000  H
  C545     1.0000 0.41260  0.95910  0.56980  Biso   1.000  C
  C546     1.0000 0.58740  0.04090  0.06980  Biso   1.000  C
  C547     1.0000 0.91260  0.04090  0.56980  Biso   1.000  C
  C548     1.0000 0.08740  0.95910  0.06980  Biso   1.000  C
  H549     1.0000 0.39630  0.94460  0.55060  Biso   1.000  H
  H550     1.0000 0.60370  0.05540  0.05060  Biso   1.000  H
  H551     1.0000 0.89630  0.05540  0.55060  Biso   1.000  H
  H552     1.0000 0.10370  0.94460  0.05060  Biso   1.000  H
  C549     1.0000 0.41570  0.00240  0.57000  Biso   1.000  C
  C550     1.0000 0.58430  0.99760  0.07000  Biso   1.000  C
  C551     1.0000 0.91570  0.99760  0.57000  Biso   1.000  C
  C552     1.0000 0.08430  0.00240  0.07000  Biso   1.000  C
  C553     1.0000 0.44010  0.02120  0.60010  Biso   1.000  C
  C554     1.0000 0.55990  0.97880  0.10010  Biso   1.000  C
  C555     1.0000 0.94010  0.97880  0.60010  Biso   1.000  C
  C556     1.0000 0.05990  0.02120  0.10010  Biso   1.000  C
  H553     1.0000 0.44260  0.05130  0.60090  Biso   1.000  H
  H554     1.0000 0.55740  0.94870  0.10090  Biso   1.000  H
  H555     1.0000 0.94260  0.94870  0.60090  Biso   1.000  H
  H556     1.0000 0.05740  0.05130  0.10090  Biso   1.000  H
  C557     1.0000 0.45960  0.99690  0.62730  Biso   1.000  C
  C558     1.0000 0.54040  0.00310  0.12730  Biso   1.000  C
  C559     1.0000 0.95960  0.00310  0.62730  Biso   1.000  C
  C560     1.0000 0.04040  0.99690  0.12730  Biso   1.000  C
  H557     1.0000 0.47510  0.01010  0.64840  Biso   1.000  H
  H558     1.0000 0.52490  0.98990  0.14840  Biso   1.000  H
  H559     1.0000 0.97510  0.98990  0.64840  Biso   1.000  H
  H560     1.0000 0.02490  0.01010  0.14840  Biso   1.000  H
  C561     1.0000 0.39060  0.02770  0.53840  Biso   1.000  C
  C562     1.0000 0.60940  0.97230  0.03840  Biso   1.000  C
  C563     1.0000 0.89060  0.97230  0.53840  Biso   1.000  C
  C564     1.0000 0.10940  0.02770  0.03840  Biso   1.000  C
  C565     1.0000 0.40080  0.07000  0.52630  Biso   1.000  C
  C566     1.0000 0.59920  0.93000  0.02630  Biso   1.000  C
  C567     1.0000 0.90080  0.93000  0.52630  Biso   1.000  C
  C568     1.0000 0.09920  0.07000  0.02630  Biso   1.000  C
  H561     1.0000 0.42160  0.08190  0.53880  Biso   1.000  H
  H562     1.0000 0.57840  0.91810  0.03880  Biso   1.000  H
  H563     1.0000 0.92160  0.91810  0.53880  Biso   1.000  H
  H564     1.0000 0.07840  0.08190  0.03880  Biso   1.000  H
  C569     1.0000 0.38050  0.09370  0.49640  Biso   1.000  C
  C570     1.0000 0.61950  0.90630  0.99640  Biso   1.000  C
  C571     1.0000 0.88050  0.90630  0.49640  Biso   1.000  C
  C572     1.0000 0.11950  0.09370  0.99640  Biso   1.000  C
  C573     1.0000 0.39000  0.14170  0.49050  Biso   1.000  C
  C574     1.0000 0.61000  0.85830  0.99050  Biso   1.000  C
  C575     1.0000 0.89000  0.85830  0.49050  Biso   1.000  C
  C576     1.0000 0.11000  0.14170  0.99050  Biso   1.000  C
  H565     1.0000 0.37270  0.15920  0.50680  Biso   1.000  H
  H566     1.0000 0.62730  0.84080  0.00680  Biso   1.000  H
  H567     1.0000 0.87270  0.84080  0.50680  Biso   1.000  H
  H568     1.0000 0.12730  0.15920  0.00680  Biso   1.000  H
  H569     1.0000 0.38980  0.14910  0.45780  Biso   1.000  H
  H570     1.0000 0.61020  0.85090  0.95780  Biso   1.000  H
  H571     1.0000 0.88980  0.85090  0.45780  Biso   1.000  H
  H572     1.0000 0.11020  0.14910  0.95780  Biso   1.000  H
  H573     1.0000 0.41330  0.14690  0.50330  Biso   1.000  H
  H574     1.0000 0.58670  0.85310  0.00330  Biso   1.000  H
  H575     1.0000 0.91330  0.85310  0.50330  Biso   1.000  H
  H576     1.0000 0.08670  0.14690  0.00330  Biso   1.000  H
  C577     1.0000 0.43260  0.95270  0.30870  Biso   1.000  C
  C578     1.0000 0.56740  0.04730  0.80870  Biso   1.000  C
  C579     1.0000 0.93260  0.04730  0.30870  Biso   1.000  C
  C580     1.0000 0.06740  0.95270  0.80870  Biso   1.000  C
  H577     1.0000 0.43610  0.95040  0.27650  Biso   1.000  H
  H578     1.0000 0.56390  0.04960  0.77650  Biso   1.000  H
  H579     1.0000 0.93610  0.04960  0.27650  Biso   1.000  H
  H580     1.0000 0.06390  0.95040  0.77650  Biso   1.000  H
  C581     1.0000 0.40150  0.97040  0.32590  Biso   1.000  C
  C582     1.0000 0.59850  0.02960  0.82590  Biso   1.000  C
  C583     1.0000 0.90150  0.02960  0.32590  Biso   1.000  C
  C584     1.0000 0.09850  0.97040  0.82590  Biso   1.000  C
  H581     1.0000 0.38350  0.97840  0.30510  Biso   1.000  H
  H582     1.0000 0.61650  0.02160  0.80510  Biso   1.000  H
  H583     1.0000 0.88350  0.02160  0.30510  Biso   1.000  H
  H584     1.0000 0.11650  0.97840  0.80510  Biso   1.000  H
  C585     1.0000 0.39650  0.97650  0.37270  Biso   1.000  C
  C586     1.0000 0.60350  0.02350  0.87270  Biso   1.000  C
  C587     1.0000 0.89650  0.02350  0.37270  Biso   1.000  C
  C588     1.0000 0.10350  0.97650  0.87270  Biso   1.000  C
  C589     1.0000 0.42310  0.96190  0.40120  Biso   1.000  C
  C590     1.0000 0.57690  0.03810  0.90120  Biso   1.000  C
  C591     1.0000 0.92310  0.03810  0.40120  Biso   1.000  C
  C592     1.0000 0.07690  0.96190  0.90120  Biso   1.000  C
  H585     1.0000 0.42020  0.96400  0.43360  Biso   1.000  H
  H586     1.0000 0.57980  0.03600  0.93360  Biso   1.000  H
  H587     1.0000 0.92020  0.03600  0.43360  Biso   1.000  H
  H588     1.0000 0.07980  0.96400  0.93360  Biso   1.000  H
  C593     1.0000 0.45400  0.94420  0.38370  Biso   1.000  C
  C594     1.0000 0.54600  0.05580  0.88370  Biso   1.000  C
  C595     1.0000 0.95400  0.05580  0.38370  Biso   1.000  C
  C596     1.0000 0.04600  0.94420  0.88370  Biso   1.000  C
  H589     1.0000 0.47220  0.93620  0.40430  Biso   1.000  H
  H590     1.0000 0.52780  0.06380  0.90430  Biso   1.000  H
  H591     1.0000 0.97220  0.06380  0.40430  Biso   1.000  H
  H592     1.0000 0.02780  0.93620  0.90430  Biso   1.000  H
  C597     1.0000 0.36590  0.99850  0.39260  Biso   1.000  C
  C598     1.0000 0.63410  0.00150  0.89260  Biso   1.000  C
  C599     1.0000 0.86590  0.00150  0.39260  Biso   1.000  C
  C600     1.0000 0.13410  0.99850  0.89260  Biso   1.000  C
  C601     1.0000 0.33690  0.00480  0.36750  Biso   1.000  C
  C602     1.0000 0.66310  0.99520  0.86750  Biso   1.000  C
  C603     1.0000 0.83690  0.99520  0.36750  Biso   1.000  C
  C604     1.0000 0.16310  0.00480  0.86750  Biso   1.000  C
  H593     1.0000 0.33630  0.99270  0.33760  Biso   1.000  H
  H594     1.0000 0.66370  0.00730  0.83760  Biso   1.000  H
  H595     1.0000 0.83630  0.00730  0.33760  Biso   1.000  H
  H596     1.0000 0.16370  0.99270  0.83760  Biso   1.000  H
  C605     1.0000 0.30750  0.02780  0.38210  Biso   1.000  C
  C606     1.0000 0.69250  0.97220  0.88210  Biso   1.000  C
  C607     1.0000 0.80750  0.97220  0.38210  Biso   1.000  C
  C608     1.0000 0.19250  0.02780  0.88210  Biso   1.000  C
  C609     1.0000 0.27860  0.03850  0.35090  Biso   1.000  C
  C610     1.0000 0.72140  0.96150  0.85090  Biso   1.000  C
  C611     1.0000 0.77860  0.96150  0.35090  Biso   1.000  C
  C612     1.0000 0.22140  0.03850  0.85090  Biso   1.000  C
  H597     1.0000 0.28710  0.05750  0.32660  Biso   1.000  H
  H598     1.0000 0.71290  0.94250  0.82660  Biso   1.000  H
  H599     1.0000 0.78710  0.94250  0.32660  Biso   1.000  H
  H600     1.0000 0.21290  0.05750  0.82660  Biso   1.000  H
  H601     1.0000 0.25990  0.05290  0.36820  Biso   1.000  H
  H602     1.0000 0.74010  0.94710  0.86820  Biso   1.000  H
  H603     1.0000 0.75990  0.94710  0.36820  Biso   1.000  H
  H604     1.0000 0.24010  0.05290  0.86820  Biso   1.000  H
  H605     1.0000 0.26930  0.01240  0.33710  Biso   1.000  H
  H606     1.0000 0.73070  0.98760  0.83710  Biso   1.000  H
  H607     1.0000 0.76930  0.98760  0.33710  Biso   1.000  H
  H608     1.0000 0.23070  0.01240  0.83710  Biso   1.000  H
  C613     1.0000 0.26990  0.82940  0.50420  Biso   1.000  C
  C614     1.0000 0.73010  0.17060  0.00420  Biso   1.000  C
  C615     1.0000 0.76990  0.17060  0.50420  Biso   1.000  C
  C616     1.0000 0.23010  0.82940  0.00420  Biso   1.000  C
  H609     1.0000 0.25110  0.81170  0.51390  Biso   1.000  H
  H610     1.0000 0.74890  0.18830  0.01390  Biso   1.000  H
  H611     1.0000 0.75110  0.18830  0.51390  Biso   1.000  H
  H612     1.0000 0.24890  0.81170  0.01390  Biso   1.000  H
  C617     1.0000 0.26730  0.87240  0.51210  Biso   1.000  C
  C618     1.0000 0.73270  0.12760  0.01210  Biso   1.000  C
  C619     1.0000 0.76730  0.12760  0.51210  Biso   1.000  C
  C620     1.0000 0.23270  0.87240  0.01210  Biso   1.000  C
  H613     1.0000 0.24740  0.88410  0.52720  Biso   1.000  H
  H614     1.0000 0.75260  0.11590  0.02720  Biso   1.000  H
  H615     1.0000 0.74740  0.11590  0.52720  Biso   1.000  H
  H616     1.0000 0.25260  0.88410  0.02720  Biso   1.000  H
  C621     1.0000 0.29600  0.89970  0.49660  Biso   1.000  C
  C622     1.0000 0.70400  0.10030  0.99660  Biso   1.000  C
  C623     1.0000 0.79600  0.10030  0.49660  Biso   1.000  C
  C624     1.0000 0.20400  0.89970  0.99660  Biso   1.000  C
  C625     1.0000 0.32410  0.88020  0.47360  Biso   1.000  C
  C626     1.0000 0.67590  0.11980  0.97360  Biso   1.000  C
  C627     1.0000 0.82410  0.11980  0.47360  Biso   1.000  C
  C628     1.0000 0.17590  0.88020  0.97360  Biso   1.000  C
  H617     1.0000 0.34220  0.89710  0.46060  Biso   1.000  H
  H618     1.0000 0.65780  0.10290  0.96060  Biso   1.000  H
  H619     1.0000 0.84220  0.10290  0.46060  Biso   1.000  H
  H620     1.0000 0.15780  0.89710  0.96060  Biso   1.000  H
  C629     1.0000 0.32530  0.83570  0.47000  Biso   1.000  C
  C630     1.0000 0.67470  0.16430  0.97000  Biso   1.000  C
  C631     1.0000 0.82530  0.16430  0.47000  Biso   1.000  C
  C632     1.0000 0.17470  0.83570  0.97000  Biso   1.000  C
  H621     1.0000 0.34570  0.82240  0.45800  Biso   1.000  H
  H622     1.0000 0.65430  0.17760  0.95800  Biso   1.000  H
  H623     1.0000 0.84570  0.17760  0.45800  Biso   1.000  H
  H624     1.0000 0.15430  0.82240  0.95800  Biso   1.000  H
  C633     1.0000 0.29740  0.94740  0.50060  Biso   1.000  C
  C634     1.0000 0.70260  0.05260  0.00060  Biso   1.000  C
  C635     1.0000 0.79740  0.05260  0.50060  Biso   1.000  C
  C636     1.0000 0.20260  0.94740  0.00060  Biso   1.000  C
  C637     1.0000 0.27630  0.96710  0.53390  Biso   1.000  C
  C638     1.0000 0.72370  0.03290  0.03390  Biso   1.000  C
  C639     1.0000 0.77630  0.03290  0.53390  Biso   1.000  C
  C640     1.0000 0.22370  0.96710  0.03390  Biso   1.000  C
  H625     1.0000 0.26150  0.94970  0.55220  Biso   1.000  H
  H626     1.0000 0.73850  0.05030  0.05220  Biso   1.000  H
  H627     1.0000 0.76150  0.05030  0.55220  Biso   1.000  H
  H628     1.0000 0.23850  0.94970  0.05220  Biso   1.000  H
  C641     1.0000 0.27620  0.01220  0.54140  Biso   1.000  C
  C642     1.0000 0.72380  0.98780  0.04140  Biso   1.000  C
  C643     1.0000 0.77620  0.98780  0.54140  Biso   1.000  C
  C644     1.0000 0.22380  0.01220  0.04140  Biso   1.000  C
  C645     1.0000 0.25170  0.03030  0.57690  Biso   1.000  C
  C646     1.0000 0.74830  0.96970  0.07690  Biso   1.000  C
  C647     1.0000 0.75170  0.96970  0.57690  Biso   1.000  C
  C648     1.0000 0.24830  0.03030  0.07690  Biso   1.000  C
  H629     1.0000 0.26120  0.02490  0.60770  Biso   1.000  H
  H630     1.0000 0.73880  0.97510  0.10770  Biso   1.000  H
  H631     1.0000 0.76120  0.97510  0.60770  Biso   1.000  H
  H632     1.0000 0.23880  0.02490  0.10770  Biso   1.000  H
  H633     1.0000 0.22870  0.01660  0.57410  Biso   1.000  H
  H634     1.0000 0.77130  0.98340  0.07410  Biso   1.000  H
  H635     1.0000 0.72870  0.98340  0.57410  Biso   1.000  H
  H636     1.0000 0.27130  0.01660  0.07410  Biso   1.000  H
  H637     1.0000 0.24930  0.06110  0.57220  Biso   1.000  H
  H638     1.0000 0.75070  0.93890  0.07220  Biso   1.000  H
  H639     1.0000 0.74930  0.93890  0.57220  Biso   1.000  H
  H640     1.0000 0.25070  0.06110  0.07220  Biso   1.000  H
  C649     1.0000 0.53630  0.94790  0.60170  Biso   1.000  C
  C650     1.0000 0.46370  0.05210  0.10170  Biso   1.000  C
  C651     1.0000 0.03630  0.05210  0.60170  Biso   1.000  C
  C652     1.0000 0.96370  0.94790  0.10170  Biso   1.000  C
  H641     1.0000 0.51990  0.93450  0.58200  Biso   1.000  H
  H642     1.0000 0.48010  0.06550  0.08200  Biso   1.000  H
  H643     1.0000 0.01990  0.06550  0.58200  Biso   1.000  H
  H644     1.0000 0.98010  0.93450  0.08200  Biso   1.000  H
  C653     1.0000 0.56490  0.96960  0.58090  Biso   1.000  C
  C654     1.0000 0.43510  0.03040  0.08090  Biso   1.000  C
  C655     1.0000 0.06490  0.03040  0.58090  Biso   1.000  C
  C656     1.0000 0.93510  0.96960  0.08090  Biso   1.000  C
  H645     1.0000 0.56740  0.97100  0.54850  Biso   1.000  H
  H646     1.0000 0.43260  0.02900  0.04850  Biso   1.000  H
  H647     1.0000 0.06740  0.02900  0.54850  Biso   1.000  H
  H648     1.0000 0.93260  0.97100  0.04850  Biso   1.000  H
  C657     1.0000 0.58990  0.98930  0.61130  Biso   1.000  C
  C658     1.0000 0.41010  0.01070  0.11130  Biso   1.000  C
  C659     1.0000 0.08990  0.01070  0.61130  Biso   1.000  C
  C660     1.0000 0.91010  0.98930  0.11130  Biso   1.000  C
  C661     1.0000 0.58390  0.98460  0.65640  Biso   1.000  C
  C662     1.0000 0.41610  0.01540  0.15640  Biso   1.000  C
  C663     1.0000 0.08390  0.01540  0.65640  Biso   1.000  C
  C664     1.0000 0.91610  0.98460  0.15640  Biso   1.000  C
  H649     1.0000 0.59960  0.99740  0.67770  Biso   1.000  H
  H650     1.0000 0.40040  0.00260  0.17770  Biso   1.000  H
  H651     1.0000 0.09960  0.00260  0.67770  Biso   1.000  H
  H652     1.0000 0.90040  0.99740  0.17770  Biso   1.000  H
  C665     1.0000 0.55580  0.96190  0.67280  Biso   1.000  C
  C666     1.0000 0.44420  0.03810  0.17280  Biso   1.000  C
  C667     1.0000 0.05580  0.03810  0.67280  Biso   1.000  C
  C668     1.0000 0.94420  0.96190  0.17280  Biso   1.000  C
  H653     1.0000 0.55390  0.95800  0.70510  Biso   1.000  H
  H654     1.0000 0.44610  0.04200  0.20510  Biso   1.000  H
  H655     1.0000 0.05390  0.04200  0.70510  Biso   1.000  H
  H656     1.0000 0.94610  0.95800  0.20510  Biso   1.000  H
  C669     1.0000 0.62000  0.01300  0.59100  Biso   1.000  C
  C670     1.0000 0.38000  0.98700  0.09100  Biso   1.000  C
  C671     1.0000 0.12000  0.98700  0.59100  Biso   1.000  C
  C672     1.0000 0.88000  0.01300  0.09100  Biso   1.000  C
  C673     1.0000 0.64800  0.02320  0.61590  Biso   1.000  C
  C674     1.0000 0.35200  0.97680  0.11590  Biso   1.000  C
  C675     1.0000 0.14800  0.97680  0.61590  Biso   1.000  C
  C676     1.0000 0.85200  0.02320  0.11590  Biso   1.000  C
  H657     1.0000 0.64900  0.01220  0.64630  Biso   1.000  H
  H658     1.0000 0.35100  0.98780  0.14630  Biso   1.000  H
  H659     1.0000 0.14900  0.98780  0.64630  Biso   1.000  H
  H660     1.0000 0.85100  0.01220  0.14630  Biso   1.000  H
  C677     1.0000 0.67670  0.04890  0.60140  Biso   1.000  C
  C678     1.0000 0.32330  0.95110  0.10140  Biso   1.000  C
  C679     1.0000 0.17670  0.95110  0.60140  Biso   1.000  C
  C680     1.0000 0.82330  0.04890  0.10140  Biso   1.000  C
  C681     1.0000 0.70450  0.06300  0.63120  Biso   1.000  C
  C682     1.0000 0.29550  0.93700  0.13120  Biso   1.000  C
  C683     1.0000 0.20450  0.93700  0.63120  Biso   1.000  C
  C684     1.0000 0.79550  0.06300  0.13120  Biso   1.000  C
  H661     1.0000 0.69460  0.07160  0.66090  Biso   1.000  H
  H662     1.0000 0.30540  0.92840  0.16090  Biso   1.000  H
  H663     1.0000 0.19460  0.92840  0.66090  Biso   1.000  H
  H664     1.0000 0.80540  0.07160  0.16090  Biso   1.000  H
  H665     1.0000 0.71650  0.08740  0.61720  Biso   1.000  H
  H666     1.0000 0.28350  0.91260  0.11720  Biso   1.000  H
  H667     1.0000 0.21650  0.91260  0.61720  Biso   1.000  H
  H668     1.0000 0.78350  0.08740  0.11720  Biso   1.000  H
  H669     1.0000 0.72120  0.03970  0.63580  Biso   1.000  H
  H670     1.0000 0.27880  0.96030  0.13580  Biso   1.000  H
  H671     1.0000 0.22120  0.96030  0.63580  Biso   1.000  H
  H672     1.0000 0.77880  0.03970  0.13580  Biso   1.000  H
  C685     1.0000 0.52480  0.99860  0.35860  Biso   1.000  C
  C686     1.0000 0.47520  0.00140  0.85860  Biso   1.000  C
  C687     1.0000 0.02480  0.00140  0.35860  Biso   1.000  C
  C688     1.0000 0.97520  0.99860  0.85860  Biso   1.000  C
  H673     1.0000 0.50520  0.00930  0.34230  Biso   1.000  H
  H674     1.0000 0.49480  0.99070  0.84230  Biso   1.000  H
  H675     1.0000 0.00520  0.99070  0.34230  Biso   1.000  H
  H676     1.0000 0.99480  0.00930  0.84230  Biso   1.000  H
  C689     1.0000 0.54480  0.02650  0.38400  Biso   1.000  C
  C690     1.0000 0.45520  0.97350  0.88400  Biso   1.000  C
  C691     1.0000 0.04480  0.97350  0.38400  Biso   1.000  C
  C692     1.0000 0.95520  0.02650  0.88400  Biso   1.000  C
  H677     1.0000 0.53970  0.05610  0.38380  Biso   1.000  H
  H678     1.0000 0.46030  0.94390  0.88380  Biso   1.000  H
  H679     1.0000 0.03970  0.94390  0.38380  Biso   1.000  H
  H680     1.0000 0.96030  0.05610  0.88380  Biso   1.000  H
  C693     1.0000 0.57240  0.01080  0.40960  Biso   1.000  C
  C694     1.0000 0.42760  0.98920  0.90960  Biso   1.000  C
  C695     1.0000 0.07240  0.98920  0.40960  Biso   1.000  C
  C696     1.0000 0.92760  0.01080  0.90960  Biso   1.000  C
  C697     1.0000 0.57870  0.96850  0.40680  Biso   1.000  C
  C698     1.0000 0.42130  0.03150  0.90680  Biso   1.000  C
  C699     1.0000 0.07870  0.03150  0.40680  Biso   1.000  C
  C700     1.0000 0.92130  0.96850  0.90680  Biso   1.000  C
  H681     1.0000 0.59790  0.95630  0.42280  Biso   1.000  H
  H682     1.0000 0.40210  0.04370  0.92280  Biso   1.000  H
  H683     1.0000 0.09790  0.04370  0.42280  Biso   1.000  H
  H684     1.0000 0.90210  0.95630  0.92280  Biso   1.000  H
  C701     1.0000 0.55770  0.94380  0.38100  Biso   1.000  C
  C702     1.0000 0.44230  0.05620  0.88100  Biso   1.000  C
  C703     1.0000 0.05770  0.05620  0.38100  Biso   1.000  C
  C704     1.0000 0.94230  0.94380  0.88100  Biso   1.000  C
  H685     1.0000 0.56200  0.91390  0.38110  Biso   1.000  H
  H686     1.0000 0.43800  0.08610  0.88110  Biso   1.000  H
  H687     1.0000 0.06200  0.08610  0.38110  Biso   1.000  H
  H688     1.0000 0.93800  0.91390  0.88110  Biso   1.000  H
  C705     1.0000 0.59480  0.03870  0.44170  Biso   1.000  C
  C706     1.0000 0.40520  0.96130  0.94170  Biso   1.000  C
  C707     1.0000 0.09480  0.96130  0.44170  Biso   1.000  C
  C708     1.0000 0.90520  0.03870  0.94170  Biso   1.000  C
  C709     1.0000 0.58320  0.08010  0.45410  Biso   1.000  C
  C710     1.0000 0.41680  0.91990  0.95410  Biso   1.000  C
  C711     1.0000 0.08320  0.91990  0.45410  Biso   1.000  C
  C712     1.0000 0.91680  0.08010  0.95410  Biso   1.000  C
  H689     1.0000 0.56060  0.08930  0.44480  Biso   1.000  H
  H690     1.0000 0.43940  0.91070  0.94480  Biso   1.000  H
  H691     1.0000 0.06060  0.91070  0.44480  Biso   1.000  H
  H692     1.0000 0.93940  0.08930  0.94480  Biso   1.000  H
  C713     1.0000 0.60440  0.10810  0.47980  Biso   1.000  C
  C714     1.0000 0.39560  0.89190  0.97980  Biso   1.000  C
  C715     1.0000 0.10440  0.89190  0.47980  Biso   1.000  C
  C716     1.0000 0.89560  0.10810  0.97980  Biso   1.000  C
  C717     1.0000 0.59260  0.15460  0.48430  Biso   1.000  C
  C718     1.0000 0.40740  0.84540  0.98430  Biso   1.000  C
  C719     1.0000 0.09260  0.84540  0.48430  Biso   1.000  C
  C720     1.0000 0.90740  0.15460  0.98430  Biso   1.000  C
  H693     1.0000 0.60840  0.17300  0.46670  Biso   1.000  H
  H694     1.0000 0.39160  0.82700  0.96670  Biso   1.000  H
  H695     1.0000 0.10840  0.82700  0.46670  Biso   1.000  H
  H696     1.0000 0.89160  0.17300  0.96670  Biso   1.000  H
  H697     1.0000 0.59320  0.16300  0.51680  Biso   1.000  H
  H698     1.0000 0.40680  0.83700  0.01680  Biso   1.000  H
  H699     1.0000 0.09320  0.83700  0.51680  Biso   1.000  H
  H700     1.0000 0.90680  0.16300  0.01680  Biso   1.000  H
  H701     1.0000 0.56870  0.15760  0.47250  Biso   1.000  H
  H702     1.0000 0.43130  0.84240  0.97250  Biso   1.000  H
  H703     1.0000 0.06870  0.84240  0.47250  Biso   1.000  H
  H704     1.0000 0.93130  0.15760  0.97250  Biso   1.000  H
  C721     1.0000 0.67330  0.85510  0.52390  Biso   1.000  C
  C722     1.0000 0.32670  0.14490  0.02390  Biso   1.000  C
  C723     1.0000 0.17330  0.14490  0.52390  Biso   1.000  C
  C724     1.0000 0.82670  0.85510  0.02390  Biso   1.000  C
  H705     1.0000 0.65500  0.84130  0.54020  Biso   1.000  H
  H706     1.0000 0.34500  0.15870  0.04020  Biso   1.000  H
  H707     1.0000 0.15500  0.15870  0.54020  Biso   1.000  H
  H708     1.0000 0.84500  0.84130  0.04020  Biso   1.000  H
  C725     1.0000 0.67000  0.89850  0.51620  Biso   1.000  C
  C726     1.0000 0.33000  0.10150  0.01620  Biso   1.000  C
  C727     1.0000 0.17000  0.10150  0.51620  Biso   1.000  C
  C728     1.0000 0.83000  0.89850  0.01620  Biso   1.000  C
  H709     1.0000 0.65000  0.91400  0.52630  Biso   1.000  H
  H710     1.0000 0.35000  0.08600  0.02630  Biso   1.000  H
  H711     1.0000 0.15000  0.08600  0.52630  Biso   1.000  H
  H712     1.0000 0.85000  0.91400  0.02630  Biso   1.000  H
  C729     1.0000 0.69660  0.91770  0.49360  Biso   1.000  C
  C730     1.0000 0.30340  0.08230  0.99360  Biso   1.000  C
  C731     1.0000 0.19660  0.08230  0.49360  Biso   1.000  C
  C732     1.0000 0.80340  0.91770  0.99360  Biso   1.000  C
  C733     1.0000 0.72480  0.89520  0.47850  Biso   1.000  C
  C734     1.0000 0.27520  0.10480  0.97850  Biso   1.000  C
  C735     1.0000 0.22480  0.10480  0.47850  Biso   1.000  C
  C736     1.0000 0.77520  0.89520  0.97850  Biso   1.000  C
  H713     1.0000 0.74310  0.90850  0.46160  Biso   1.000  H
  H714     1.0000 0.25690  0.09150  0.96160  Biso   1.000  H
  H715     1.0000 0.24310  0.09150  0.46160  Biso   1.000  H
  H716     1.0000 0.75690  0.90850  0.96160  Biso   1.000  H
  C737     1.0000 0.72570  0.85310  0.48850  Biso   1.000  C
  C738     1.0000 0.27430  0.14690  0.98850  Biso   1.000  C
  C739     1.0000 0.22570  0.14690  0.48850  Biso   1.000  C
  C740     1.0000 0.77430  0.85310  0.98850  Biso   1.000  C
  H717     1.0000 0.74580  0.83730  0.47960  Biso   1.000  H
  H718     1.0000 0.25420  0.16270  0.97960  Biso   1.000  H
  H719     1.0000 0.24580  0.16270  0.47960  Biso   1.000  H
  H720     1.0000 0.75420  0.83730  0.97960  Biso   1.000  H
  C741     1.0000 0.69360  0.96590  0.48450  Biso   1.000  C
  C742     1.0000 0.30640  0.03410  0.98450  Biso   1.000  C
  C743     1.0000 0.19360  0.03410  0.48450  Biso   1.000  C
  C744     1.0000 0.80640  0.96590  0.98450  Biso   1.000  C
  C745     1.0000 0.71510  0.98540  0.45580  Biso   1.000  C
  C746     1.0000 0.28490  0.01460  0.95580  Biso   1.000  C
  C747     1.0000 0.21510  0.01460  0.45580  Biso   1.000  C
  C748     1.0000 0.78490  0.98540  0.95580  Biso   1.000  C
  H721     1.0000 0.73320  0.96950  0.44140  Biso   1.000  H
  H722     1.0000 0.26680  0.03050  0.94140  Biso   1.000  H
  H723     1.0000 0.23320  0.03050  0.44140  Biso   1.000  H
  H724     1.0000 0.76680  0.96950  0.94140  Biso   1.000  H
  C749     1.0000 0.71160  0.03090  0.44570  Biso   1.000  C
  C750     1.0000 0.28840  0.96910  0.94570  Biso   1.000  C
  C751     1.0000 0.21160  0.96910  0.44570  Biso   1.000  C
  C752     1.0000 0.78840  0.03090  0.94570  Biso   1.000  C
  C753     1.0000 0.73720  0.05030  0.41120  Biso   1.000  C
  C754     1.0000 0.26280  0.94970  0.91120  Biso   1.000  C
  C755     1.0000 0.23720  0.94970  0.41120  Biso   1.000  C
  C756     1.0000 0.76280  0.05030  0.91120  Biso   1.000  C
  H725     1.0000 0.72430  0.06080  0.38440  Biso   1.000  H
  H726     1.0000 0.27570  0.93920  0.88440  Biso   1.000  H
  H727     1.0000 0.22430  0.93920  0.38440  Biso   1.000  H
  H728     1.0000 0.77570  0.06080  0.88440  Biso   1.000  H
  H729     1.0000 0.75400  0.02840  0.40130  Biso   1.000  H
  H730     1.0000 0.24600  0.97160  0.90130  Biso   1.000  H
  H731     1.0000 0.25400  0.97160  0.40130  Biso   1.000  H
  H732     1.0000 0.74600  0.02840  0.90130  Biso   1.000  H
  H733     1.0000 0.74990  0.07400  0.42560  Biso   1.000  H
  H734     1.0000 0.25010  0.92600  0.92560  Biso   1.000  H
  H735     1.0000 0.24990  0.92600  0.42560  Biso   1.000  H
  H736     1.0000 0.75010  0.07400  0.92560  Biso   1.000  H
  C757     1.0000 0.54640  0.56770  0.64290  Biso   1.000  C
  C758     1.0000 0.45360  0.43230  0.14290  Biso   1.000  C
  C759     1.0000 0.04640  0.43230  0.64290  Biso   1.000  C
  C760     1.0000 0.95360  0.56770  0.14290  Biso   1.000  C
  H737     1.0000 0.54930  0.59740  0.64810  Biso   1.000  H
  H738     1.0000 0.45070  0.40260  0.14810  Biso   1.000  H
  H739     1.0000 0.04930  0.40260  0.64810  Biso   1.000  H
  H740     1.0000 0.95070  0.59740  0.14810  Biso   1.000  H
  C761     1.0000 0.57320  0.54630  0.61960  Biso   1.000  C
  C762     1.0000 0.42680  0.45370  0.11960  Biso   1.000  C
  C763     1.0000 0.07320  0.45370  0.61960  Biso   1.000  C
  C764     1.0000 0.92680  0.54630  0.11960  Biso   1.000  C
  H741     1.0000 0.59270  0.56110  0.60710  Biso   1.000  H
  H742     1.0000 0.40730  0.43890  0.10710  Biso   1.000  H
  H743     1.0000 0.09270  0.43890  0.60710  Biso   1.000  H
  H744     1.0000 0.90730  0.56110  0.10710  Biso   1.000  H
  C765     1.0000 0.57000  0.50350  0.61570  Biso   1.000  C
  C766     1.0000 0.43000  0.49650  0.11570  Biso   1.000  C
  C767     1.0000 0.07000  0.49650  0.61570  Biso   1.000  C
  C768     1.0000 0.93000  0.50350  0.11570  Biso   1.000  C
  C769     1.0000 0.54170  0.48230  0.63170  Biso   1.000  C
  C770     1.0000 0.45830  0.51770  0.13170  Biso   1.000  C
  C771     1.0000 0.04170  0.51770  0.63170  Biso   1.000  C
  C772     1.0000 0.95830  0.48230  0.13170  Biso   1.000  C
  H745     1.0000 0.53960  0.45230  0.62830  Biso   1.000  H
  H746     1.0000 0.46040  0.54770  0.12830  Biso   1.000  H
  H747     1.0000 0.03960  0.54770  0.62830  Biso   1.000  H
  H748     1.0000 0.96040  0.45230  0.12830  Biso   1.000  H
  C773     1.0000 0.51500  0.50690  0.65390  Biso   1.000  C
  C774     1.0000 0.48500  0.49310  0.15390  Biso   1.000  C
  C775     1.0000 0.01500  0.49310  0.65390  Biso   1.000  C
  C776     1.0000 0.98500  0.50690  0.15390  Biso   1.000  C
  H749     1.0000 0.49520  0.49250  0.66600  Biso   1.000  H
  H750     1.0000 0.50480  0.50750  0.16600  Biso   1.000  H
  H751     1.0000 0.99520  0.50750  0.66600  Biso   1.000  H
  H752     1.0000 0.00480  0.49250  0.16600  Biso   1.000  H
  C777     1.0000 0.59970  0.48050  0.58730  Biso   1.000  C
  C778     1.0000 0.40030  0.51950  0.08730  Biso   1.000  C
  C779     1.0000 0.09970  0.51950  0.58730  Biso   1.000  C
  C780     1.0000 0.90030  0.48050  0.08730  Biso   1.000  C
  C781     1.0000 0.59680  0.43780  0.58020  Biso   1.000  C
  C782     1.0000 0.40320  0.56220  0.08020  Biso   1.000  C
  C783     1.0000 0.09680  0.56220  0.58020  Biso   1.000  C
  C784     1.0000 0.90320  0.43780  0.08020  Biso   1.000  C
  H753     1.0000 0.57640  0.42350  0.59070  Biso   1.000  H
  H754     1.0000 0.42360  0.57650  0.09070  Biso   1.000  H
  H755     1.0000 0.07640  0.57650  0.59070  Biso   1.000  H
  H756     1.0000 0.92360  0.42350  0.09070  Biso   1.000  H
  C785     1.0000 0.62320  0.41390  0.55760  Biso   1.000  C
  C786     1.0000 0.37680  0.58610  0.05760  Biso   1.000  C
  C787     1.0000 0.12320  0.58610  0.55760  Biso   1.000  C
  C788     1.0000 0.87680  0.41390  0.05760  Biso   1.000  C
  C789     1.0000 0.62100  0.36730  0.55540  Biso   1.000  C
  C790     1.0000 0.37900  0.63270  0.05540  Biso   1.000  C
  C791     1.0000 0.12100  0.63270  0.55540  Biso   1.000  C
  C792     1.0000 0.87900  0.36730  0.05540  Biso   1.000  C
  H757     1.0000 0.64020  0.35490  0.57310  Biso   1.000  H
  H758     1.0000 0.35980  0.64510  0.07310  Biso   1.000  H
  H759     1.0000 0.14020  0.64510  0.57310  Biso   1.000  H
  H760     1.0000 0.85980  0.35490  0.07310  Biso   1.000  H
  H761     1.0000 0.62260  0.35810  0.52340  Biso   1.000  H
  H762     1.0000 0.37740  0.64190  0.02340  Biso   1.000  H
  H763     1.0000 0.12260  0.64190  0.52340  Biso   1.000  H
  H764     1.0000 0.87740  0.35810  0.02340  Biso   1.000  H
  H765     1.0000 0.59850  0.35800  0.56830  Biso   1.000  H
  H766     1.0000 0.40150  0.64200  0.06830  Biso   1.000  H
  H767     1.0000 0.09850  0.64200  0.56830  Biso   1.000  H
  H768     1.0000 0.90150  0.35800  0.06830  Biso   1.000  H
  C793     1.0000 0.60590  0.54850  0.33650  Biso   1.000  C
  C794     1.0000 0.39410  0.45150  0.83650  Biso   1.000  C
  C795     1.0000 0.10590  0.45150  0.33650  Biso   1.000  C
  C796     1.0000 0.89410  0.54850  0.83650  Biso   1.000  C
  H769     1.0000 0.61060  0.54970  0.30440  Biso   1.000  H
  H770     1.0000 0.38940  0.45030  0.80440  Biso   1.000  H
  H771     1.0000 0.11060  0.45030  0.30440  Biso   1.000  H
  H772     1.0000 0.88940  0.54970  0.80440  Biso   1.000  H
  C797     1.0000 0.62950  0.53160  0.36280  Biso   1.000  C
  C798     1.0000 0.37050  0.46840  0.86280  Biso   1.000  C
  C799     1.0000 0.12950  0.46840  0.36280  Biso   1.000  C
  C800     1.0000 0.87050  0.53160  0.86280  Biso   1.000  C
  H773     1.0000 0.65070  0.52120  0.34980  Biso   1.000  H
  H774     1.0000 0.34930  0.47880  0.84980  Biso   1.000  H
  H775     1.0000 0.15070  0.47880  0.34980  Biso   1.000  H
  H776     1.0000 0.84930  0.52120  0.84980  Biso   1.000  H
  C801     1.0000 0.62370  0.52850  0.41300  Biso   1.000  C
  C802     1.0000 0.37630  0.47150  0.91300  Biso   1.000  C
  C803     1.0000 0.12370  0.47150  0.41300  Biso   1.000  C
  C804     1.0000 0.87630  0.52850  0.91300  Biso   1.000  C
  C805     1.0000 0.59360  0.54230  0.42440  Biso   1.000  C
  C806     1.0000 0.40640  0.45770  0.92440  Biso   1.000  C
  C807     1.0000 0.09360  0.45770  0.42440  Biso   1.000  C
  C808     1.0000 0.90640  0.54230  0.92440  Biso   1.000  C
  H777     1.0000 0.58760  0.53930  0.45590  Biso   1.000  H
  H778     1.0000 0.41240  0.46070  0.95590  Biso   1.000  H
  H779     1.0000 0.08760  0.46070  0.45590  Biso   1.000  H
  H780     1.0000 0.91240  0.53930  0.95590  Biso   1.000  H
  C809     1.0000 0.56920  0.56050  0.39740  Biso   1.000  C
  C810     1.0000 0.43080  0.43950  0.89740  Biso   1.000  C
  C811     1.0000 0.06920  0.43950  0.39740  Biso   1.000  C
  C812     1.0000 0.93080  0.56050  0.89740  Biso   1.000  C
  H781     1.0000 0.54790  0.57050  0.41040  Biso   1.000  H
  H782     1.0000 0.45210  0.42950  0.91040  Biso   1.000  H
  H783     1.0000 0.04790  0.42950  0.41040  Biso   1.000  H
  H784     1.0000 0.95210  0.57050  0.91040  Biso   1.000  H
  C813     1.0000 0.65000  0.50890  0.44410  Biso   1.000  C
  C814     1.0000 0.35000  0.49110  0.94410  Biso   1.000  C
  C815     1.0000 0.15000  0.49110  0.44410  Biso   1.000  C
  C816     1.0000 0.85000  0.50890  0.94410  Biso   1.000  C
  C817     1.0000 0.68440  0.50300  0.43180  Biso   1.000  C
  C818     1.0000 0.31560  0.49700  0.93180  Biso   1.000  C
  C819     1.0000 0.18440  0.49700  0.43180  Biso   1.000  C
  C820     1.0000 0.81560  0.50300  0.93180  Biso   1.000  C
  H785     1.0000 0.69060  0.51120  0.40140  Biso   1.000  H
  H786     1.0000 0.30940  0.48880  0.90140  Biso   1.000  H
  H787     1.0000 0.19060  0.48880  0.40140  Biso   1.000  H
  H788     1.0000 0.80940  0.51120  0.90140  Biso   1.000  H
  C821     1.0000 0.71130  0.48650  0.45880  Biso   1.000  C
  C822     1.0000 0.28870  0.51350  0.95880  Biso   1.000  C
  C823     1.0000 0.21130  0.51350  0.45880  Biso   1.000  C
  C824     1.0000 0.78870  0.48650  0.95880  Biso   1.000  C
  C825     1.0000 0.74600  0.47850  0.44300  Biso   1.000  C
  C826     1.0000 0.25400  0.52150  0.94300  Biso   1.000  C
  C827     1.0000 0.24600  0.52150  0.44300  Biso   1.000  C
  C828     1.0000 0.75400  0.47850  0.94300  Biso   1.000  C
  H789     1.0000 0.74830  0.48870  0.41130  Biso   1.000  H
  H790     1.0000 0.25170  0.51130  0.91130  Biso   1.000  H
  H791     1.0000 0.24830  0.51130  0.41130  Biso   1.000  H
  H792     1.0000 0.75170  0.48870  0.91130  Biso   1.000  H
  H793     1.0000 0.75070  0.44780  0.44410  Biso   1.000  H
  H794     1.0000 0.24930  0.55220  0.94410  Biso   1.000  H
  H795     1.0000 0.25070  0.55220  0.44410  Biso   1.000  H
  H796     1.0000 0.74930  0.44780  0.94410  Biso   1.000  H
  H797     1.0000 0.76270  0.49360  0.46270  Biso   1.000  H
  H798     1.0000 0.23730  0.50640  0.96270  Biso   1.000  H
  H799     1.0000 0.26270  0.50640  0.46270  Biso   1.000  H
  H800     1.0000 0.73730  0.49360  0.96270  Biso   1.000  H
  C829     1.0000 0.72000  0.68730  0.56660  Biso   1.000  C
  C830     1.0000 0.28000  0.31270  0.06660  Biso   1.000  C
  C831     1.0000 0.22000  0.31270  0.56660  Biso   1.000  C
  C832     1.0000 0.78000  0.68730  0.06660  Biso   1.000  C
  H801     1.0000 0.73510  0.70530  0.58390  Biso   1.000  H
  H802     1.0000 0.26490  0.29470  0.08390  Biso   1.000  H
  H803     1.0000 0.23510  0.29470  0.58390  Biso   1.000  H
  H804     1.0000 0.76490  0.70530  0.08390  Biso   1.000  H
  C833     1.0000 0.71720  0.64370  0.57930  Biso   1.000  C
  C834     1.0000 0.28280  0.35630  0.07930  Biso   1.000  C
  C835     1.0000 0.21720  0.35630  0.57930  Biso   1.000  C
  C836     1.0000 0.78280  0.64370  0.07930  Biso   1.000  C
  H805     1.0000 0.73000  0.63310  0.60480  Biso   1.000  H
  H806     1.0000 0.27000  0.36690  0.10480  Biso   1.000  H
  H807     1.0000 0.23000  0.36690  0.60480  Biso   1.000  H
  H808     1.0000 0.77000  0.63310  0.10480  Biso   1.000  H
  C837     1.0000 0.69680  0.61770  0.55540  Biso   1.000  C
  C838     1.0000 0.30320  0.38230  0.05540  Biso   1.000  C
  C839     1.0000 0.19680  0.38230  0.55540  Biso   1.000  C
  C840     1.0000 0.80320  0.61770  0.05540  Biso   1.000  C
  C841     1.0000 0.67680  0.63590  0.52040  Biso   1.000  C
  C842     1.0000 0.32320  0.36410  0.02040  Biso   1.000  C
  C843     1.0000 0.17680  0.36410  0.52040  Biso   1.000  C
  C844     1.0000 0.82320  0.63590  0.02040  Biso   1.000  C
  H809     1.0000 0.66030  0.61880  0.50420  Biso   1.000  H
  H810     1.0000 0.33970  0.38120  0.00420  Biso   1.000  H
  H811     1.0000 0.16030  0.38120  0.50420  Biso   1.000  H
  H812     1.0000 0.83970  0.61880  0.00420  Biso   1.000  H
  C845     1.0000 0.68050  0.67700  0.50930  Biso   1.000  C
  C846     1.0000 0.31950  0.32300  0.00930  Biso   1.000  C
  C847     1.0000 0.18050  0.32300  0.50930  Biso   1.000  C
  C848     1.0000 0.81950  0.67700  0.00930  Biso   1.000  C
  H813     1.0000 0.66690  0.68760  0.48450  Biso   1.000  H
  H814     1.0000 0.33310  0.31240  0.98450  Biso   1.000  H
  H815     1.0000 0.16690  0.31240  0.48450  Biso   1.000  H
  H816     1.0000 0.83310  0.68760  0.98450  Biso   1.000  H
  C849     1.0000 0.69220  0.57200  0.56930  Biso   1.000  C
  C850     1.0000 0.30780  0.42800  0.06930  Biso   1.000  C
  C851     1.0000 0.19220  0.42800  0.56930  Biso   1.000  C
  C852     1.0000 0.80780  0.57200  0.06930  Biso   1.000  C
  C853     1.0000 0.70370  0.55760  0.61040  Biso   1.000  C
  C854     1.0000 0.29630  0.44240  0.11040  Biso   1.000  C
  C855     1.0000 0.20370  0.44240  0.61040  Biso   1.000  C
  C856     1.0000 0.79630  0.55760  0.11040  Biso   1.000  C
  H817     1.0000 0.71270  0.57730  0.63220  Biso   1.000  H
  H818     1.0000 0.28730  0.42270  0.13220  Biso   1.000  H
  H819     1.0000 0.21270  0.42270  0.63220  Biso   1.000  H
  H820     1.0000 0.78730  0.57730  0.13220  Biso   1.000  H
  C857     1.0000 0.70260  0.51220  0.62180  Biso   1.000  C
  C858     1.0000 0.29740  0.48780  0.12180  Biso   1.000  C
  C859     1.0000 0.20260  0.48780  0.62180  Biso   1.000  C
  C860     1.0000 0.79740  0.51220  0.12180  Biso   1.000  C
  C861     1.0000 0.72000  0.49730  0.66660  Biso   1.000  C
  C862     1.0000 0.28000  0.50270  0.16660  Biso   1.000  C
  C863     1.0000 0.22000  0.50270  0.66660  Biso   1.000  C
  C864     1.0000 0.78000  0.49730  0.16660  Biso   1.000  C
  H821     1.0000 0.73320  0.47100  0.66090  Biso   1.000  H
  H822     1.0000 0.26680  0.52900  0.16090  Biso   1.000  H
  H823     1.0000 0.23320  0.52900  0.66090  Biso   1.000  H
  H824     1.0000 0.76680  0.47100  0.16090  Biso   1.000  H
  H825     1.0000 0.70190  0.49180  0.68970  Biso   1.000  H
  H826     1.0000 0.29810  0.50820  0.18970  Biso   1.000  H
  H827     1.0000 0.20190  0.50820  0.68970  Biso   1.000  H
  H828     1.0000 0.79810  0.49180  0.18970  Biso   1.000  H
  H829     1.0000 0.73590  0.51950  0.67780  Biso   1.000  H
  H830     1.0000 0.26410  0.48050  0.17780  Biso   1.000  H
  H831     1.0000 0.23590  0.48050  0.67780  Biso   1.000  H
  H832     1.0000 0.76410  0.51950  0.17780  Biso   1.000  H
  O249     1.0000 0.75020  0.64020  0.44820  Biso   1.000  O
  O250     1.0000 0.24980  0.35980  0.94820  Biso   1.000  O
  O251     1.0000 0.25020  0.35980  0.44820  Biso   1.000  O
  O252     1.0000 0.74980  0.64020  0.94820  Biso   1.000  O
  H833     1.0000 0.73000  0.65020  0.44410  Biso   1.000  H
  H834     1.0000 0.27000  0.34980  0.94410  Biso   1.000  H
  H835     1.0000 0.23000  0.34980  0.44410  Biso   1.000  H
  H836     1.0000 0.77000  0.65020  0.94410  Biso   1.000  H
  C865     1.0000 0.74980  0.59800  0.44090  Biso   1.000  C
  C866     1.0000 0.25020  0.40200  0.94090  Biso   1.000  C
  C867     1.0000 0.24980  0.40200  0.44090  Biso   1.000  C
  C868     1.0000 0.75020  0.59800  0.94090  Biso   1.000  C
  H837     1.0000 0.73360  0.58450  0.46260  Biso   1.000  H
  H838     1.0000 0.26640  0.41550  0.96260  Biso   1.000  H
  H839     1.0000 0.23360  0.41550  0.46260  Biso   1.000  H
  H840     1.0000 0.76640  0.58450  0.96260  Biso   1.000  H
  H841     1.0000 0.77340  0.58650  0.44540  Biso   1.000  H
  H842     1.0000 0.22660  0.41350  0.94540  Biso   1.000  H
  H843     1.0000 0.27340  0.41350  0.44540  Biso   1.000  H
  H844     1.0000 0.72660  0.58650  0.94540  Biso   1.000  H
  H845     1.0000 0.74200  0.59230  0.40940  Biso   1.000  H
  H846     1.0000 0.25800  0.40770  0.90940  Biso   1.000  H
  H847     1.0000 0.24200  0.40770  0.40940  Biso   1.000  H
  H848     1.0000 0.75800  0.59230  0.90940  Biso   1.000  H
  O253     1.0000 0.16570  0.84090  0.55870  Biso   1.000  O
  O254     1.0000 0.83430  0.15910  0.05870  Biso   1.000  O
  O255     1.0000 0.66570  0.15910  0.55870  Biso   1.000  O
  O256     1.0000 0.33430  0.84090  0.05870  Biso   1.000  O
  H849     1.0000 0.15680  0.84980  0.53410  Biso   1.000  H
  H850     1.0000 0.84320  0.15020  0.03410  Biso   1.000  H
  H851     1.0000 0.65680  0.15020  0.53410  Biso   1.000  H
  H852     1.0000 0.34320  0.84980  0.03410  Biso   1.000  H
  C869     1.0000 0.14080  0.84340  0.59410  Biso   1.000  C
  C870     1.0000 0.85920  0.15660  0.09410  Biso   1.000  C
  C871     1.0000 0.64080  0.15660  0.59410  Biso   1.000  C
  C872     1.0000 0.35920  0.84340  0.09410  Biso   1.000  C
  H853     1.0000 0.12740  0.86980  0.59100  Biso   1.000  H
  H854     1.0000 0.87260  0.13020  0.09100  Biso   1.000  H
  H855     1.0000 0.62740  0.13020  0.59100  Biso   1.000  H
  H856     1.0000 0.37260  0.86980  0.09100  Biso   1.000  H
  H857     1.0000 0.15280  0.84300  0.62390  Biso   1.000  H
  H858     1.0000 0.84720  0.15700  0.12390  Biso   1.000  H
  H859     1.0000 0.65280  0.15700  0.62390  Biso   1.000  H
  H860     1.0000 0.34720  0.84300  0.12390  Biso   1.000  H
  H861     1.0000 0.12490  0.81890  0.59210  Biso   1.000  H
  H862     1.0000 0.87510  0.18110  0.09210  Biso   1.000  H
  H863     1.0000 0.62490  0.18110  0.59210  Biso   1.000  H
  H864     1.0000 0.37510  0.81890  0.09210  Biso   1.000  H
  O257     1.0000 0.80230  0.85340  0.45660  Biso   1.000  O
  O258     1.0000 0.19770  0.14660  0.95660  Biso   1.000  O
  O259     1.0000 0.30230  0.14660  0.45660  Biso   1.000  O
  O260     1.0000 0.69770  0.85340  0.95660  Biso   1.000  O
  H865     1.0000 0.81810  0.87180  0.45960  Biso   1.000  H
  H866     1.0000 0.18190  0.12820  0.95960  Biso   1.000  H
  H867     1.0000 0.31810  0.12820  0.45960  Biso   1.000  H
  H868     1.0000 0.68190  0.87180  0.95960  Biso   1.000  H
  C873     1.0000 0.81850  0.81070  0.44760  Biso   1.000  C
  C874     1.0000 0.18150  0.18930  0.94760  Biso   1.000  C
  C875     1.0000 0.31850  0.18930  0.44760  Biso   1.000  C
  C876     1.0000 0.68150  0.81070  0.94760  Biso   1.000  C
  H869     1.0000 0.84380  0.81230  0.45290  Biso   1.000  H
  H870     1.0000 0.15620  0.18770  0.95290  Biso   1.000  H
  H871     1.0000 0.34380  0.18770  0.45290  Biso   1.000  H
  H872     1.0000 0.65620  0.81230  0.95290  Biso   1.000  H
  H873     1.0000 0.81410  0.80230  0.41570  Biso   1.000  H
  H874     1.0000 0.18590  0.19770  0.91570  Biso   1.000  H
  H875     1.0000 0.31410  0.19770  0.41570  Biso   1.000  H
  H876     1.0000 0.68590  0.80230  0.91570  Biso   1.000  H
  H877     1.0000 0.80820  0.78940  0.46830  Biso   1.000  H
  H878     1.0000 0.19180  0.21060  0.96830  Biso   1.000  H
  H879     1.0000 0.30820  0.21060  0.46830  Biso   1.000  H
  H880     1.0000 0.69180  0.78940  0.96830  Biso   1.000  H
  O261     1.0000 0.47000  0.62440  0.10860  Biso   1.000  O
  O262     1.0000 0.53000  0.37560  0.60860  Biso   1.000  O
  O263     1.0000 0.97000  0.37560  0.10860  Biso   1.000  O
  O264     1.0000 0.03000  0.62440  0.60860  Biso   1.000  O
  H881     1.0000 0.47790  0.59940  0.10760  Biso   1.000  H
  H882     1.0000 0.52210  0.40060  0.60760  Biso   1.000  H
  H883     1.0000 0.97790  0.40060  0.10760  Biso   1.000  H
  H884     1.0000 0.02210  0.59940  0.60760  Biso   1.000  H
  C877     1.0000 0.49340  0.65000  0.12910  Biso   1.000  C
  C878     1.0000 0.50660  0.35000  0.62910  Biso   1.000  C
  C879     1.0000 0.99340  0.35000  0.12910  Biso   1.000  C
  C880     1.0000 0.00660  0.65000  0.62910  Biso   1.000  C
  H885     1.0000 0.50020  0.63760  0.15880  Biso   1.000  H
  H886     1.0000 0.49980  0.36240  0.65880  Biso   1.000  H
  H887     1.0000 0.00020  0.36240  0.15880  Biso   1.000  H
  H888     1.0000 0.99980  0.63760  0.65880  Biso   1.000  H
  H889     1.0000 0.48290  0.67810  0.13410  Biso   1.000  H
  H890     1.0000 0.51710  0.32190  0.63410  Biso   1.000  H
  H891     1.0000 0.98290  0.32190  0.13410  Biso   1.000  H
  H892     1.0000 0.01710  0.67810  0.63410  Biso   1.000  H
  H893     1.0000 0.51410  0.65280  0.10960  Biso   1.000  H
  H894     1.0000 0.48590  0.34720  0.60960  Biso   1.000  H
  H895     1.0000 0.01410  0.34720  0.10960  Biso   1.000  H
  H896     1.0000 0.98590  0.65280  0.60960  Biso   1.000  H
  O265     1.0000 0.67740  0.53720  0.18630  Biso   1.000  O
  O266     1.0000 0.32260  0.46280  0.68630  Biso   1.000  O
  O267     1.0000 0.17740  0.46280  0.18630  Biso   1.000  O
  O268     1.0000 0.82260  0.53720  0.68630  Biso   1.000  O
  H897     1.0000 0.68850  0.51550  0.19490  Biso   1.000  H
  H898     1.0000 0.31150  0.48450  0.69490  Biso   1.000  H
  H899     1.0000 0.18850  0.48450  0.19490  Biso   1.000  H
  H900     1.0000 0.81150  0.51550  0.69490  Biso   1.000  H
  C881     1.0000 0.65100  0.54790  0.22030  Biso   1.000  C
  C882     1.0000 0.34900  0.45210  0.72030  Biso   1.000  C
  C883     1.0000 0.15100  0.45210  0.22030  Biso   1.000  C
  C884     1.0000 0.84900  0.54790  0.72030  Biso   1.000  C
  H901     1.0000 0.66190  0.56360  0.24560  Biso   1.000  H
  H902     1.0000 0.33810  0.43640  0.74560  Biso   1.000  H
  H903     1.0000 0.16190  0.43640  0.24560  Biso   1.000  H
  H904     1.0000 0.83810  0.56360  0.74560  Biso   1.000  H
  H905     1.0000 0.64030  0.52170  0.23200  Biso   1.000  H
  H906     1.0000 0.35970  0.47830  0.73200  Biso   1.000  H
  H907     1.0000 0.14030  0.47830  0.23200  Biso   1.000  H
  H908     1.0000 0.85970  0.52170  0.73200  Biso   1.000  H
  H909     1.0000 0.63290  0.56570  0.20600  Biso   1.000  H
  H910     1.0000 0.36710  0.43430  0.70600  Biso   1.000  H
  H911     1.0000 0.13290  0.43430  0.20600  Biso   1.000  H
  H912     1.0000 0.86710  0.56570  0.70600  Biso   1.000  H
  O269     1.0000 0.19710  0.76730  0.52590  Biso   1.000  O
  O270     1.0000 0.80290  0.23270  0.02590  Biso   1.000  O
  O271     1.0000 0.69710  0.23270  0.52590  Biso   1.000  O
  O272     1.0000 0.30290  0.76730  0.02590  Biso   1.000  O
  H913     1.0000 0.20030  0.76680  0.49740  Biso   1.000  H
  H914     1.0000 0.79970  0.23320  0.99740  Biso   1.000  H
  H915     1.0000 0.70030  0.23320  0.49740  Biso   1.000  H
  H916     1.0000 0.29970  0.76680  0.99740  Biso   1.000  H
  C885     1.0000 0.17420  0.73330  0.53860  Biso   1.000  C
  C886     1.0000 0.82580  0.26670  0.03860  Biso   1.000  C
  C887     1.0000 0.67420  0.26670  0.53860  Biso   1.000  C
  C888     1.0000 0.32580  0.73330  0.03860  Biso   1.000  C
  H917     1.0000 0.18380  0.71840  0.56540  Biso   1.000  H
  H918     1.0000 0.81620  0.28160  0.06540  Biso   1.000  H
  H919     1.0000 0.68380  0.28160  0.56540  Biso   1.000  H
  H920     1.0000 0.31620  0.71840  0.06540  Biso   1.000  H
  H921     1.0000 0.17200  0.71320  0.51300  Biso   1.000  H
  H922     1.0000 0.82800  0.28680  0.01300  Biso   1.000  H
  H923     1.0000 0.67200  0.28680  0.51300  Biso   1.000  H
  H924     1.0000 0.32800  0.71320  0.01300  Biso   1.000  H
  H925     1.0000 0.15110  0.74480  0.54630  Biso   1.000  H
  H926     1.0000 0.84890  0.25520  0.04630  Biso   1.000  H
  H927     1.0000 0.65110  0.25520  0.54630  Biso   1.000  H
  H928     1.0000 0.34890  0.74480  0.04630  Biso   1.000  H
  O273     1.0000 0.77890  0.60580  0.66510  Biso   1.000  O
  O274     1.0000 0.22110  0.39420  0.16510  Biso   1.000  O
  O275     1.0000 0.27890  0.39420  0.66510  Biso   1.000  O
  O276     1.0000 0.72110  0.60580  0.16510  Biso   1.000  O
  H929     1.0000 0.76810  0.60470  0.64000  Biso   1.000  H
  H930     1.0000 0.23190  0.39530  0.14000  Biso   1.000  H
  H931     1.0000 0.26810  0.39530  0.64000  Biso   1.000  H
  H932     1.0000 0.73190  0.60470  0.14000  Biso   1.000  H
  C889     1.0000 0.80150  0.63900  0.66450  Biso   1.000  C
  C890     1.0000 0.19850  0.36100  0.16450  Biso   1.000  C
  C891     1.0000 0.30150  0.36100  0.66450  Biso   1.000  C
  C892     1.0000 0.69850  0.63900  0.16450  Biso   1.000  C
  H933     1.0000 0.80470  0.64880  0.63280  Biso   1.000  H
  H934     1.0000 0.19530  0.35120  0.13280  Biso   1.000  H
  H935     1.0000 0.30470  0.35120  0.63280  Biso   1.000  H
  H936     1.0000 0.69530  0.64880  0.13280  Biso   1.000  H
  H937     1.0000 0.82420  0.62980  0.67700  Biso   1.000  H
  H938     1.0000 0.17580  0.37020  0.17700  Biso   1.000  H
  H939     1.0000 0.32420  0.37020  0.67700  Biso   1.000  H
  H940     1.0000 0.67580  0.62980  0.17700  Biso   1.000  H
  H941     1.0000 0.79210  0.66230  0.68330  Biso   1.000  H
  H942     1.0000 0.20790  0.33770  0.18330  Biso   1.000  H
  H943     1.0000 0.29210  0.33770  0.68330  Biso   1.000  H
  H944     1.0000 0.70790  0.66230  0.18330  Biso   1.000  H
  O277     1.0000 0.32890  0.89950  0.23830  Biso   1.000  O
  O278     1.0000 0.67110  0.10050  0.73830  Biso   1.000  O
  O279     1.0000 0.82890  0.10050  0.23830  Biso   1.000  O
  O280     1.0000 0.17110  0.89950  0.73830  Biso   1.000  O
  H945     1.0000 0.31560  0.87990  0.22930  Biso   1.000  H
  H946     1.0000 0.68440  0.12010  0.72930  Biso   1.000  H
  H947     1.0000 0.81560  0.12010  0.22930  Biso   1.000  H
  H948     1.0000 0.18440  0.87990  0.72930  Biso   1.000  H
  C893     1.0000 0.36360  0.89350  0.21880  Biso   1.000  C
  C894     1.0000 0.63640  0.10650  0.71880  Biso   1.000  C
  C895     1.0000 0.86360  0.10650  0.21880  Biso   1.000  C
  C896     1.0000 0.13640  0.89350  0.71880  Biso   1.000  C
  H949     1.0000 0.38080  0.89060  0.24360  Biso   1.000  H
  H950     1.0000 0.61920  0.10940  0.74360  Biso   1.000  H
  H951     1.0000 0.88080  0.10940  0.24360  Biso   1.000  H
  H952     1.0000 0.11920  0.89060  0.74360  Biso   1.000  H
  H953     1.0000 0.36970  0.91810  0.19970  Biso   1.000  H
  H954     1.0000 0.63030  0.08190  0.69970  Biso   1.000  H
  H955     1.0000 0.86970  0.08190  0.19970  Biso   1.000  H
  H956     1.0000 0.13030  0.91810  0.69970  Biso   1.000  H
  H957     1.0000 0.36380  0.86760  0.19990  Biso   1.000  H
  H958     1.0000 0.63620  0.13240  0.69990  Biso   1.000  H
  H959     1.0000 0.86380  0.13240  0.19990  Biso   1.000  H
  H960     1.0000 0.13620  0.86760  0.69990  Biso   1.000  H
  O281     1.0000 0.49390  0.62610  0.86120  Biso   1.000  O
  O282     1.0000 0.50610  0.37390  0.36120  Biso   1.000  O
  O283     1.0000 0.99390  0.37390  0.86120  Biso   1.000  O
  O284     1.0000 0.00610  0.62610  0.36120  Biso   1.000  O
  H961     1.0000 0.48130  0.61820  0.88330  Biso   1.000  H
  H962     1.0000 0.51870  0.38180  0.38330  Biso   1.000  H
  H963     1.0000 0.98130  0.38180  0.88330  Biso   1.000  H
  H964     1.0000 0.01870  0.61820  0.38330  Biso   1.000  H
  C897     1.0000 0.50190  0.66960  0.86580  Biso   1.000  C
  C898     1.0000 0.49810  0.33040  0.36580  Biso   1.000  C
  C899     1.0000 0.00190  0.33040  0.86580  Biso   1.000  C
  C900     1.0000 0.99810  0.66960  0.36580  Biso   1.000  C
  H965     1.0000 0.52290  0.67280  0.88490  Biso   1.000  H
  H966     1.0000 0.47710  0.32720  0.38490  Biso   1.000  H
  H967     1.0000 0.02290  0.32720  0.88490  Biso   1.000  H
  H968     1.0000 0.97710  0.67280  0.38490  Biso   1.000  H
  H969     1.0000 0.48220  0.68430  0.88040  Biso   1.000  H
  H970     1.0000 0.51780  0.31570  0.38040  Biso   1.000  H
  H971     1.0000 0.98220  0.31570  0.88040  Biso   1.000  H
  H972     1.0000 0.01780  0.68430  0.38040  Biso   1.000  H
  H973     1.0000 0.50620  0.68190  0.83540  Biso   1.000  H
  H974     1.0000 0.49380  0.31810  0.33540  Biso   1.000  H
  H975     1.0000 0.00620  0.31810  0.83540  Biso   1.000  H
  H976     1.0000 0.99380  0.68190  0.33540  Biso   1.000  H
  O285     1.0000 0.21070  0.83140  0.39900  Biso   1.000  O
  O286     1.0000 0.78930  0.16860  0.89900  Biso   1.000  O
  O287     1.0000 0.71070  0.16860  0.39900  Biso   1.000  O
  O288     1.0000 0.28930  0.83140  0.89900  Biso   1.000  O
  H977     1.0000 0.21410  0.80550  0.40510  Biso   1.000  H
  H978     1.0000 0.78590  0.19450  0.90510  Biso   1.000  H
  H979     1.0000 0.71410  0.19450  0.40510  Biso   1.000  H
  H980     1.0000 0.28590  0.80550  0.90510  Biso   1.000  H
  C901     1.0000 0.18660  0.84790  0.42900  Biso   1.000  C
  C902     1.0000 0.81340  0.15210  0.92900  Biso   1.000  C
  C903     1.0000 0.68660  0.15210  0.42900  Biso   1.000  C
  C904     1.0000 0.31340  0.84790  0.92900  Biso   1.000  C
  H981     1.0000 0.19740  0.87100  0.44670  Biso   1.000  H
  H982     1.0000 0.80260  0.12900  0.94670  Biso   1.000  H
  H983     1.0000 0.69740  0.12900  0.44670  Biso   1.000  H
  H984     1.0000 0.30260  0.87100  0.94670  Biso   1.000  H
  H985     1.0000 0.17860  0.82540  0.44990  Biso   1.000  H
  H986     1.0000 0.82140  0.17460  0.94990  Biso   1.000  H
  H987     1.0000 0.67860  0.17460  0.44990  Biso   1.000  H
  H988     1.0000 0.32140  0.82540  0.94990  Biso   1.000  H
  H989     1.0000 0.16660  0.85910  0.41170  Biso   1.000  H
  H990     1.0000 0.83340  0.14090  0.91170  Biso   1.000  H
  H991     1.0000 0.66660  0.14090  0.41170  Biso   1.000  H
  H992     1.0000 0.33340  0.85910  0.91170  Biso   1.000  H
  Cl1      1.0000 0.63327  0.88868  0.86360  Biso   1.000  Cl
  Cl2      1.0000 0.36673  0.11132  0.36360  Biso   1.000  Cl
  Cl3      1.0000 0.13327  0.11132  0.86360  Biso   1.000  Cl
  Cl4      1.0000 0.86673  0.88868  0.36360  Biso   1.000  Cl
  Cl5      1.0000 0.59426  0.92781  0.78930  Biso   1.000  Cl
  Cl6      1.0000 0.40574  0.07219  0.28930  Biso   1.000  Cl
  Cl7      1.0000 0.09426  0.07219  0.78930  Biso   1.000  Cl
  Cl8      1.0000 0.90574  0.92781  0.28930  Biso   1.000  Cl
  C905     1.0000 0.62940  0.89740  0.80320  Biso   1.000  C
  C906     1.0000 0.37060  0.10260  0.30320  Biso   1.000  C
  C907     1.0000 0.12940  0.10260  0.80320  Biso   1.000  C
  C908     1.0000 0.87060  0.89740  0.30320  Biso   1.000  C
  H993     1.0000 0.65090  0.91160  0.79190  Biso   1.000  H
  H994     1.0000 0.34910  0.08840  0.29190  Biso   1.000  H
  H995     1.0000 0.15090  0.08840  0.79190  Biso   1.000  H
  H996     1.0000 0.84910  0.91160  0.29190  Biso   1.000  H
  H997     1.0000 0.62740  0.86950  0.78740  Biso   1.000  H
  H998     1.0000 0.37260  0.13050  0.28740  Biso   1.000  H
  H999     1.0000 0.12740  0.13050  0.78740  Biso   1.000  H
  H1000    1.0000 0.87260  0.86950  0.28740  Biso   1.000  H
  Cl9      1.0000 0.29186  0.88590  0.63560  Biso   1.000  Cl
  Cl10     1.0000 0.70814  0.11410  0.13560  Biso   1.000  Cl
  Cl11     1.0000 0.79186  0.11410  0.63560  Biso   1.000  Cl
  Cl12     1.0000 0.20814  0.88590  0.13560  Biso   1.000  Cl
  Cl13     1.0000 0.36100  0.86648  0.60140  Biso   1.000  Cl
  Cl14     1.0000 0.63900  0.13352  0.10140  Biso   1.000  Cl
  Cl15     1.0000 0.86100  0.13352  0.60140  Biso   1.000  Cl
  Cl16     1.0000 0.13900  0.86648  0.10140  Biso   1.000  Cl
  C909     1.0000 0.33110  0.90620  0.61650  Biso   1.000  C
  C910     1.0000 0.66890  0.09380  0.11650  Biso   1.000  C
  C911     1.0000 0.83110  0.09380  0.61650  Biso   1.000  C
  C912     1.0000 0.16890  0.90620  0.11650  Biso   1.000  C
  H1001    1.0000 0.34150  0.92420  0.64090  Biso   1.000  H
  H1002    1.0000 0.65850  0.07580  0.14090  Biso   1.000  H
  H1003    1.0000 0.84150  0.07580  0.64090  Biso   1.000  H
  H1004    1.0000 0.15850  0.92420  0.14090  Biso   1.000  H
  H1005    1.0000 0.32680  0.92460  0.58940  Biso   1.000  H
  H1006    1.0000 0.67320  0.07540  0.08940  Biso   1.000  H
  H1007    1.0000 0.82680  0.07540  0.58940  Biso   1.000  H
  H1008    1.0000 0.17320  0.92460  0.08940  Biso   1.000  H
  Cl17     1.0000 0.69810  0.89940  0.35440  Biso   1.000  Cl
  Cl18     1.0000 0.30190  0.10060  0.85440  Biso   1.000  Cl
  Cl19     1.0000 0.19810  0.10060  0.35440  Biso   1.000  Cl
  Cl20     1.0000 0.80190  0.89940  0.85440  Biso   1.000  Cl
  Cl21     1.0000 0.63323  0.87340  0.39700  Biso   1.000  Cl
  Cl22     1.0000 0.36677  0.12660  0.89700  Biso   1.000  Cl
  Cl23     1.0000 0.13323  0.12660  0.39700  Biso   1.000  Cl
  Cl24     1.0000 0.86677  0.87340  0.89700  Biso   1.000  Cl
  C913     1.0000 0.65630  0.91500  0.36730  Biso   1.000  C
  C914     1.0000 0.34370  0.08500  0.86730  Biso   1.000  C
  C915     1.0000 0.15630  0.08500  0.36730  Biso   1.000  C
  C916     1.0000 0.84370  0.91500  0.86730  Biso   1.000  C
  H1009    1.0000 0.64370  0.92220  0.33860  Biso   1.000  H
  H1010    1.0000 0.35630  0.07780  0.83860  Biso   1.000  H
  H1011    1.0000 0.14370  0.07780  0.33860  Biso   1.000  H
  H1012    1.0000 0.85630  0.92220  0.83860  Biso   1.000  H
  H1013    1.0000 0.65710  0.94080  0.38680  Biso   1.000  H
  H1014    1.0000 0.34290  0.05920  0.88680  Biso   1.000  H
  H1015    1.0000 0.15710  0.05920  0.38680  Biso   1.000  H
  H1016    1.0000 0.84290  0.94080  0.88680  Biso   1.000  H
  Cl25     1.0000 0.68422  0.91931  0.63452  Biso   1.000  Cl
  Cl26     1.0000 0.31578  0.08069  0.13452  Biso   1.000  Cl
  Cl27     1.0000 0.18422  0.08069  0.63452  Biso   1.000  Cl
  Cl28     1.0000 0.81578  0.91931  0.13452  Biso   1.000  Cl
  Cl29     1.0000 0.62193  0.86875  0.63660  Biso   1.000  Cl
  Cl30     1.0000 0.37807  0.13125  0.13660  Biso   1.000  Cl
  Cl31     1.0000 0.12193  0.13125  0.63660  Biso   1.000  Cl
  Cl32     1.0000 0.87807  0.86875  0.13660  Biso   1.000  Cl
  C917     1.0000 0.65250  0.89740  0.66820  Biso   1.000  C
  C918     1.0000 0.34750  0.10260  0.16820  Biso   1.000  C
  C919     1.0000 0.15250  0.10260  0.66820  Biso   1.000  C
  C920     1.0000 0.84750  0.89740  0.16820  Biso   1.000  C
  H1017    1.0000 0.64040  0.92050  0.68520  Biso   1.000  H
  H1018    1.0000 0.35960  0.07950  0.18520  Biso   1.000  H
  H1019    1.0000 0.14040  0.07950  0.68520  Biso   1.000  H
  H1020    1.0000 0.85960  0.92050  0.18520  Biso   1.000  H
  H1021    1.0000 0.66360  0.87830  0.69100  Biso   1.000  H
  H1022    1.0000 0.33640  0.12170  0.19100  Biso   1.000  H
  H1023    1.0000 0.16360  0.12170  0.69100  Biso   1.000  H
  H1024    1.0000 0.83640  0.87830  0.19100  Biso   1.000  H
  Cl33     1.0000 0.67560  0.58590  0.72660  Biso   1.000  Cl
  Cl34     1.0000 0.32440  0.41410  0.22660  Biso   1.000  Cl
  Cl35     1.0000 0.17560  0.41410  0.72660  Biso   1.000  Cl
  Cl36     1.0000 0.82440  0.58590  0.22660  Biso   1.000  Cl
  Cl37     1.0000 0.62880  0.63280  0.66830  Biso   1.000  Cl
  Cl38     1.0000 0.37120  0.36720  0.16830  Biso   1.000  Cl
  Cl39     1.0000 0.12880  0.36720  0.66830  Biso   1.000  Cl
  Cl40     1.0000 0.87120  0.63280  0.16830  Biso   1.000  Cl
  C921     1.0000 0.63190  0.59060  0.70770  Biso   1.000  C
  C922     1.0000 0.36810  0.40940  0.20770  Biso   1.000  C
  C923     1.0000 0.13190  0.40940  0.70770  Biso   1.000  C
  C924     1.0000 0.86810  0.59060  0.20770  Biso   1.000  C
  H1025    1.0000 0.62440  0.56370  0.69290  Biso   1.000  H
  H1026    1.0000 0.37560  0.43630  0.19290  Biso   1.000  H
  H1027    1.0000 0.12440  0.43630  0.69290  Biso   1.000  H
  H1028    1.0000 0.87560  0.56370  0.19290  Biso   1.000  H
  H1029    1.0000 0.61630  0.59610  0.73420  Biso   1.000  H
  H1030    1.0000 0.38370  0.40390  0.23420  Biso   1.000  H
  H1031    1.0000 0.11630  0.40390  0.73420  Biso   1.000  H
  H1032    1.0000 0.88370  0.59610  0.23420  Biso   1.000  H
  O289     1.0000 0.69330  0.95790  0.74000  Biso   1.000  O
  O290     1.0000 0.30670  0.04210  0.24000  Biso   1.000  O
  O291     1.0000 0.19330  0.04210  0.74000  Biso   1.000  O
  O292     1.0000 0.80670  0.95790  0.24000  Biso   1.000  O
  O293     1.0000 0.69940  0.02700  0.75270  Biso   1.000  O
  O294     1.0000 0.30060  0.97300  0.25270  Biso   1.000  O
  O295     1.0000 0.19940  0.97300  0.75270  Biso   1.000  O
  O296     1.0000 0.80060  0.02700  0.25270  Biso   1.000  O
  O297     1.0000 0.64940  0.99850  0.72880  Biso   1.000  O
  O298     1.0000 0.35060  0.00150  0.22880  Biso   1.000  O
  O299     1.0000 0.14940  0.00150  0.72880  Biso   1.000  O
  O300     1.0000 0.85060  0.99850  0.22880  Biso   1.000  O
  N105     1.0000 0.68060  0.99510  0.74240  Biso   1.000  N
  N106     1.0000 0.31940  0.00490  0.24240  Biso   1.000  N
  N107     1.0000 0.18060  0.00490  0.74240  Biso   1.000  N
  N108     1.0000 0.81940  0.99510  0.24240  Biso   1.000  N
