data_image0
_cell_length_a       17.9946
_cell_length_b       17.9946
_cell_length_c       37.768
_cell_angle_alpha    90
_cell_angle_beta     90
_cell_angle_gamma    90

_symmetry_space_group_name_H-M    "P 1"
_symmetry_int_tables_number       1

loop_
  _symmetry_equiv_pos_as_xyz
  'x, y, z'

loop_
  _atom_site_label
  _atom_site_occupancy
  _atom_site_fract_x
  _atom_site_fract_y
  _atom_site_fract_z
  _atom_site_thermal_displace_type
  _atom_site_B_iso_or_equiv
  _atom_site_type_symbol
  Cu1      1.0000 0.25000  0.25000  0.31515  Biso   1.000  Cu
  Cu2      1.0000 0.75000  0.75000  0.18485  Biso   1.000  Cu
  Cu3      1.0000 0.75000  0.75000  0.68485  Biso   1.000  Cu
  Cu4      1.0000 0.25000  0.25000  0.81515  Biso   1.000  Cu
  Cu5      1.0000 0.75000  0.75000  0.33448  Biso   1.000  Cu
  Cu6      1.0000 0.25000  0.25000  0.16552  Biso   1.000  Cu
  Cu7      1.0000 0.25000  0.25000  0.66552  Biso   1.000  Cu
  Cu8      1.0000 0.75000  0.75000  0.83448  Biso   1.000  Cu
  Cl1      1.0000 0.25000  0.25000  0.38531  Biso   1.000  Cl
  Cl2      1.0000 0.75000  0.75000  0.11469  Biso   1.000  Cl
  Cl3      1.0000 0.75000  0.75000  0.61469  Biso   1.000  Cl
  Cl4      1.0000 0.25000  0.25000  0.88531  Biso   1.000  Cl
  Cl5      1.0000 0.75000  0.75000  0.40614  Biso   1.000  Cl
  Cl6      1.0000 0.25000  0.25000  0.09386  Biso   1.000  Cl
  Cl7      1.0000 0.25000  0.25000  0.59386  Biso   1.000  Cl
  Cl8      1.0000 0.75000  0.75000  0.90614  Biso   1.000  Cl
  N1       1.0000 0.31880  0.34040  0.31423  Biso   1.000  N
  N2       1.0000 0.15960  0.31880  0.31423  Biso   1.000  N
  N3       1.0000 0.34040  0.18120  0.31423  Biso   1.000  N
  N4       1.0000 0.84040  0.81880  0.18577  Biso   1.000  N
  N5       1.0000 0.81880  0.84040  0.68577  Biso   1.000  N
  N6       1.0000 0.31880  0.15960  0.81423  Biso   1.000  N
  N7       1.0000 0.18120  0.34040  0.81423  Biso   1.000  N
  N8       1.0000 0.34040  0.31880  0.81423  Biso   1.000  N
  N9       1.0000 0.68120  0.65960  0.68577  Biso   1.000  N
  N10      1.0000 0.84040  0.68120  0.68577  Biso   1.000  N
  N11      1.0000 0.65960  0.81880  0.68577  Biso   1.000  N
  N12      1.0000 0.15960  0.18120  0.81423  Biso   1.000  N
  N13      1.0000 0.18120  0.15960  0.31423  Biso   1.000  N
  N14      1.0000 0.68120  0.84040  0.18577  Biso   1.000  N
  N15      1.0000 0.81880  0.65960  0.18577  Biso   1.000  N
  N16      1.0000 0.65960  0.68120  0.18577  Biso   1.000  N
  C1       1.0000 0.37320  0.34570  0.33804  Biso   1.000  C
  C2       1.0000 0.15430  0.37320  0.33804  Biso   1.000  C
  C3       1.0000 0.34570  0.12680  0.33804  Biso   1.000  C
  C4       1.0000 0.84570  0.87320  0.16196  Biso   1.000  C
  C5       1.0000 0.87320  0.84570  0.66196  Biso   1.000  C
  C6       1.0000 0.37320  0.15430  0.83804  Biso   1.000  C
  C7       1.0000 0.12680  0.34570  0.83804  Biso   1.000  C
  C8       1.0000 0.34570  0.37320  0.83804  Biso   1.000  C
  C9       1.0000 0.62680  0.65430  0.66196  Biso   1.000  C
  C10      1.0000 0.84570  0.62680  0.66196  Biso   1.000  C
  C11      1.0000 0.65430  0.87320  0.66196  Biso   1.000  C
  C12      1.0000 0.15430  0.12680  0.83804  Biso   1.000  C
  C13      1.0000 0.12680  0.15430  0.33804  Biso   1.000  C
  C14      1.0000 0.62680  0.84570  0.16196  Biso   1.000  C
  C15      1.0000 0.87320  0.65430  0.16196  Biso   1.000  C
  C16      1.0000 0.65430  0.62680  0.16196  Biso   1.000  C
  H1       1.0000 0.37850  0.30730  0.35507  Biso   1.000  H
  H2       1.0000 0.19270  0.37850  0.35507  Biso   1.000  H
  H3       1.0000 0.30730  0.12150  0.35507  Biso   1.000  H
  H4       1.0000 0.80730  0.87850  0.14493  Biso   1.000  H
  H5       1.0000 0.87850  0.80730  0.64493  Biso   1.000  H
  H6       1.0000 0.37850  0.19270  0.85507  Biso   1.000  H
  H7       1.0000 0.12150  0.30730  0.85507  Biso   1.000  H
  H8       1.0000 0.30730  0.37850  0.85507  Biso   1.000  H
  H9       1.0000 0.62150  0.69270  0.64493  Biso   1.000  H
  H10      1.0000 0.80730  0.62150  0.64493  Biso   1.000  H
  H11      1.0000 0.69270  0.87850  0.64493  Biso   1.000  H
  H12      1.0000 0.19270  0.12150  0.85507  Biso   1.000  H
  H13      1.0000 0.12150  0.19270  0.35507  Biso   1.000  H
  H14      1.0000 0.62150  0.80730  0.14493  Biso   1.000  H
  H15      1.0000 0.87850  0.69270  0.14493  Biso   1.000  H
  H16      1.0000 0.69270  0.62150  0.14493  Biso   1.000  H
  C17      1.0000 0.42210  0.40480  0.33903  Biso   1.000  C
  C18      1.0000 0.09520  0.42210  0.33903  Biso   1.000  C
  C19      1.0000 0.40480  0.07790  0.33903  Biso   1.000  C
  C20      1.0000 0.90480  0.92210  0.16097  Biso   1.000  C
  C21      1.0000 0.92210  0.90480  0.66097  Biso   1.000  C
  C22      1.0000 0.42210  0.09520  0.83903  Biso   1.000  C
  C23      1.0000 0.07790  0.40480  0.83903  Biso   1.000  C
  C24      1.0000 0.40480  0.42210  0.83903  Biso   1.000  C
  C25      1.0000 0.57790  0.59520  0.66097  Biso   1.000  C
  C26      1.0000 0.90480  0.57790  0.66097  Biso   1.000  C
  C27      1.0000 0.59520  0.92210  0.66097  Biso   1.000  C
  C28      1.0000 0.09520  0.07790  0.83903  Biso   1.000  C
  C29      1.0000 0.07790  0.09520  0.33903  Biso   1.000  C
  C30      1.0000 0.57790  0.90480  0.16097  Biso   1.000  C
  C31      1.0000 0.92210  0.59520  0.16097  Biso   1.000  C
  C32      1.0000 0.59520  0.57790  0.16097  Biso   1.000  C
  C33      1.0000 0.41310  0.46210  0.31470  Biso   1.000  C
  C34      1.0000 0.03790  0.41310  0.31470  Biso   1.000  C
  C35      1.0000 0.46210  0.08690  0.31470  Biso   1.000  C
  C36      1.0000 0.96210  0.91310  0.18530  Biso   1.000  C
  C37      1.0000 0.91310  0.96210  0.68530  Biso   1.000  C
  C38      1.0000 0.41310  0.03790  0.81470  Biso   1.000  C
  C39      1.0000 0.08690  0.46210  0.81470  Biso   1.000  C
  C40      1.0000 0.46210  0.41310  0.81470  Biso   1.000  C
  C41      1.0000 0.58690  0.53790  0.68530  Biso   1.000  C
  C42      1.0000 0.96210  0.58690  0.68530  Biso   1.000  C
  C43      1.0000 0.53790  0.91310  0.68530  Biso   1.000  C
  C44      1.0000 0.03790  0.08690  0.81470  Biso   1.000  C
  C45      1.0000 0.08690  0.03790  0.31470  Biso   1.000  C
  C46      1.0000 0.58690  0.96210  0.18530  Biso   1.000  C
  C47      1.0000 0.91310  0.53790  0.18530  Biso   1.000  C
  C48      1.0000 0.53790  0.58690  0.18530  Biso   1.000  C
  H17      1.0000 0.44510  0.50400  0.31490  Biso   1.000  H
  H18      1.0000 0.99600  0.44510  0.31490  Biso   1.000  H
  H19      1.0000 0.50400  0.05490  0.31490  Biso   1.000  H
  H20      1.0000 0.00400  0.94510  0.18510  Biso   1.000  H
  H21      1.0000 0.94510  0.00400  0.68510  Biso   1.000  H
  H22      1.0000 0.44510  0.99600  0.81490  Biso   1.000  H
  H23      1.0000 0.05490  0.50400  0.81490  Biso   1.000  H
  H24      1.0000 0.50400  0.44510  0.81490  Biso   1.000  H
  H25      1.0000 0.55490  0.49600  0.68510  Biso   1.000  H
  H26      1.0000 0.00400  0.55490  0.68510  Biso   1.000  H
  H27      1.0000 0.49600  0.94510  0.68510  Biso   1.000  H
  H28      1.0000 0.99600  0.05490  0.81490  Biso   1.000  H
  H29      1.0000 0.05490  0.99600  0.31490  Biso   1.000  H
  H30      1.0000 0.55490  0.00400  0.18510  Biso   1.000  H
  H31      1.0000 0.94510  0.49600  0.18510  Biso   1.000  H
  H32      1.0000 0.49600  0.55490  0.18510  Biso   1.000  H
  C49      1.0000 0.35670  0.45640  0.29030  Biso   1.000  C
  C50      1.0000 0.04360  0.35670  0.29030  Biso   1.000  C
  C51      1.0000 0.45640  0.14330  0.29030  Biso   1.000  C
  C52      1.0000 0.95640  0.85670  0.20970  Biso   1.000  C
  C53      1.0000 0.85670  0.95640  0.70970  Biso   1.000  C
  C54      1.0000 0.35670  0.04360  0.79030  Biso   1.000  C
  C55      1.0000 0.14330  0.45640  0.79030  Biso   1.000  C
  C56      1.0000 0.45640  0.35670  0.79030  Biso   1.000  C
  C57      1.0000 0.64330  0.54360  0.70970  Biso   1.000  C
  C58      1.0000 0.95640  0.64330  0.70970  Biso   1.000  C
  C59      1.0000 0.54360  0.85670  0.70970  Biso   1.000  C
  C60      1.0000 0.04360  0.14330  0.79030  Biso   1.000  C
  C61      1.0000 0.14330  0.04360  0.29030  Biso   1.000  C
  C62      1.0000 0.64330  0.95640  0.20970  Biso   1.000  C
  C63      1.0000 0.85670  0.54360  0.20970  Biso   1.000  C
  C64      1.0000 0.54360  0.64330  0.20970  Biso   1.000  C
  H33      1.0000 0.34940  0.49490  0.27340  Biso   1.000  H
  H34      1.0000 0.00510  0.34940  0.27340  Biso   1.000  H
  H35      1.0000 0.49490  0.15060  0.27340  Biso   1.000  H
  H36      1.0000 0.99490  0.84940  0.22660  Biso   1.000  H
  H37      1.0000 0.84940  0.99490  0.72660  Biso   1.000  H
  H38      1.0000 0.34940  0.00510  0.77340  Biso   1.000  H
  H39      1.0000 0.15060  0.49490  0.77340  Biso   1.000  H
  H40      1.0000 0.49490  0.34940  0.77340  Biso   1.000  H
  H41      1.0000 0.65060  0.50510  0.72660  Biso   1.000  H
  H42      1.0000 0.99490  0.65060  0.72660  Biso   1.000  H
  H43      1.0000 0.50510  0.84940  0.72660  Biso   1.000  H
  H44      1.0000 0.00510  0.15060  0.77340  Biso   1.000  H
  H45      1.0000 0.15060  0.00510  0.27340  Biso   1.000  H
  H46      1.0000 0.65060  0.99490  0.22660  Biso   1.000  H
  H47      1.0000 0.84940  0.50510  0.22660  Biso   1.000  H
  H48      1.0000 0.50510  0.65060  0.22660  Biso   1.000  H
  C65      1.0000 0.31090  0.39520  0.29026  Biso   1.000  C
  C66      1.0000 0.10480  0.31090  0.29026  Biso   1.000  C
  C67      1.0000 0.39520  0.18910  0.29026  Biso   1.000  C
  C68      1.0000 0.89520  0.81090  0.20974  Biso   1.000  C
  C69      1.0000 0.81090  0.89520  0.70974  Biso   1.000  C
  C70      1.0000 0.31090  0.10480  0.79026  Biso   1.000  C
  C71      1.0000 0.18910  0.39520  0.79026  Biso   1.000  C
  C72      1.0000 0.39520  0.31090  0.79026  Biso   1.000  C
  C73      1.0000 0.68910  0.60480  0.70974  Biso   1.000  C
  C74      1.0000 0.89520  0.68910  0.70974  Biso   1.000  C
  C75      1.0000 0.60480  0.81090  0.70974  Biso   1.000  C
  C76      1.0000 0.10480  0.18910  0.79026  Biso   1.000  C
  C77      1.0000 0.18910  0.10480  0.29026  Biso   1.000  C
  C78      1.0000 0.68910  0.89520  0.20974  Biso   1.000  C
  C79      1.0000 0.81090  0.60480  0.20974  Biso   1.000  C
  C80      1.0000 0.60480  0.68910  0.20974  Biso   1.000  C
  H49      1.0000 0.27290  0.39150  0.27292  Biso   1.000  H
  H50      1.0000 0.10850  0.27290  0.27292  Biso   1.000  H
  H51      1.0000 0.39150  0.22710  0.27292  Biso   1.000  H
  H52      1.0000 0.89150  0.77290  0.22708  Biso   1.000  H
  H53      1.0000 0.77290  0.89150  0.72708  Biso   1.000  H
  H54      1.0000 0.27290  0.10850  0.77292  Biso   1.000  H
  H55      1.0000 0.22710  0.39150  0.77292  Biso   1.000  H
  H56      1.0000 0.39150  0.27290  0.77292  Biso   1.000  H
  H57      1.0000 0.72710  0.60850  0.72708  Biso   1.000  H
  H58      1.0000 0.89150  0.72710  0.72708  Biso   1.000  H
  H59      1.0000 0.60850  0.77290  0.72708  Biso   1.000  H
  H60      1.0000 0.10850  0.22710  0.77292  Biso   1.000  H
  H61      1.0000 0.22710  0.10850  0.27292  Biso   1.000  H
  H62      1.0000 0.72710  0.89150  0.22708  Biso   1.000  H
  H63      1.0000 0.77290  0.60850  0.22708  Biso   1.000  H
  H64      1.0000 0.60850  0.72710  0.22708  Biso   1.000  H
  O1       1.0000 0.47820  0.40900  0.36303  Biso   1.000  O
  O2       1.0000 0.09100  0.47820  0.36303  Biso   1.000  O
  O3       1.0000 0.40900  0.02180  0.36303  Biso   1.000  O
  O4       1.0000 0.90900  0.97820  0.13697  Biso   1.000  O
  O5       1.0000 0.97820  0.90900  0.63697  Biso   1.000  O
  O6       1.0000 0.47820  0.09100  0.86303  Biso   1.000  O
  O7       1.0000 0.02180  0.40900  0.86303  Biso   1.000  O
  O8       1.0000 0.40900  0.47820  0.86303  Biso   1.000  O
  O9       1.0000 0.52180  0.59100  0.63697  Biso   1.000  O
  O10      1.0000 0.90900  0.52180  0.63697  Biso   1.000  O
  O11      1.0000 0.59100  0.97820  0.63697  Biso   1.000  O
  O12      1.0000 0.09100  0.02180  0.86303  Biso   1.000  O
  O13      1.0000 0.02180  0.09100  0.36303  Biso   1.000  O
  O14      1.0000 0.52180  0.90900  0.13697  Biso   1.000  O
  O15      1.0000 0.97820  0.59100  0.13697  Biso   1.000  O
  O16      1.0000 0.59100  0.52180  0.13697  Biso   1.000  O
  Si1      1.0000 0.51160  0.35075  0.39343  Biso   1.000  Si
  Si2      1.0000 0.14925  0.51160  0.39343  Biso   1.000  Si
  Si3      1.0000 0.35075  0.98840  0.39343  Biso   1.000  Si
  Si4      1.0000 0.85075  0.01160  0.10657  Biso   1.000  Si
  Si5      1.0000 0.01160  0.85075  0.60657  Biso   1.000  Si
  Si6      1.0000 0.51160  0.14925  0.89343  Biso   1.000  Si
  Si7      1.0000 0.98840  0.35075  0.89343  Biso   1.000  Si
  Si8      1.0000 0.35075  0.51160  0.89343  Biso   1.000  Si
  Si9      1.0000 0.48840  0.64925  0.60657  Biso   1.000  Si
  Si10     1.0000 0.85075  0.48840  0.60657  Biso   1.000  Si
  Si11     1.0000 0.64925  0.01160  0.60657  Biso   1.000  Si
  Si12     1.0000 0.14925  0.98840  0.89343  Biso   1.000  Si
  Si13     1.0000 0.98840  0.14925  0.39343  Biso   1.000  Si
  Si14     1.0000 0.48840  0.85075  0.10657  Biso   1.000  Si
  Si15     1.0000 0.01160  0.64925  0.10657  Biso   1.000  Si
  Si16     1.0000 0.64925  0.48840  0.10657  Biso   1.000  Si
  O17      1.0000 0.57450  0.40050  0.41233  Biso   1.000  O
  O18      1.0000 0.09950  0.57450  0.41233  Biso   1.000  O
  O19      1.0000 0.40050  0.92550  0.41233  Biso   1.000  O
  O20      1.0000 0.90050  0.07450  0.08767  Biso   1.000  O
  O21      1.0000 0.07450  0.90050  0.58767  Biso   1.000  O
  O22      1.0000 0.57450  0.09950  0.91233  Biso   1.000  O
  O23      1.0000 0.92550  0.40050  0.91233  Biso   1.000  O
  O24      1.0000 0.40050  0.57450  0.91233  Biso   1.000  O
  O25      1.0000 0.42550  0.59950  0.58767  Biso   1.000  O
  O26      1.0000 0.90050  0.42550  0.58767  Biso   1.000  O
  O27      1.0000 0.59950  0.07450  0.58767  Biso   1.000  O
  O28      1.0000 0.09950  0.92550  0.91233  Biso   1.000  O
  O29      1.0000 0.92550  0.09950  0.41233  Biso   1.000  O
  O30      1.0000 0.42550  0.90050  0.08767  Biso   1.000  O
  O31      1.0000 0.07450  0.59950  0.08767  Biso   1.000  O
  O32      1.0000 0.59950  0.42550  0.08767  Biso   1.000  O
  Si17     1.0000 0.63124  0.46556  0.42282  Biso   1.000  Si
  Si18     1.0000 0.03444  0.63124  0.42282  Biso   1.000  Si
  Si19     1.0000 0.46556  0.86876  0.42282  Biso   1.000  Si
  Si20     1.0000 0.96556  0.13124  0.07718  Biso   1.000  Si
  Si21     1.0000 0.13124  0.96556  0.57718  Biso   1.000  Si
  Si22     1.0000 0.63124  0.03444  0.92282  Biso   1.000  Si
  Si23     1.0000 0.86876  0.46556  0.92282  Biso   1.000  Si
  Si24     1.0000 0.46556  0.63124  0.92282  Biso   1.000  Si
  Si25     1.0000 0.36876  0.53444  0.57718  Biso   1.000  Si
  Si26     1.0000 0.96556  0.36876  0.57718  Biso   1.000  Si
  Si27     1.0000 0.53444  0.13124  0.57718  Biso   1.000  Si
  Si28     1.0000 0.03444  0.86876  0.92282  Biso   1.000  Si
  Si29     1.0000 0.86876  0.03444  0.42282  Biso   1.000  Si
  Si30     1.0000 0.36876  0.96556  0.07718  Biso   1.000  Si
  Si31     1.0000 0.13124  0.53444  0.07718  Biso   1.000  Si
  Si32     1.0000 0.53444  0.36876  0.07718  Biso   1.000  Si
  O33      1.0000 0.68220  0.48900  0.38876  Biso   1.000  O
  O34      1.0000 0.01100  0.68220  0.38876  Biso   1.000  O
  O35      1.0000 0.48900  0.81780  0.38876  Biso   1.000  O
  O36      1.0000 0.98900  0.18220  0.11124  Biso   1.000  O
  O37      1.0000 0.18220  0.98900  0.61124  Biso   1.000  O
  O38      1.0000 0.68220  0.01100  0.88876  Biso   1.000  O
  O39      1.0000 0.81780  0.48900  0.88876  Biso   1.000  O
  O40      1.0000 0.48900  0.68220  0.88876  Biso   1.000  O
  O41      1.0000 0.31780  0.51100  0.61124  Biso   1.000  O
  O42      1.0000 0.98900  0.31780  0.61124  Biso   1.000  O
  O43      1.0000 0.51100  0.18220  0.61124  Biso   1.000  O
  O44      1.0000 0.01100  0.81780  0.88876  Biso   1.000  O
  O45      1.0000 0.81780  0.01100  0.38876  Biso   1.000  O
  O46      1.0000 0.31780  0.98900  0.11124  Biso   1.000  O
  O47      1.0000 0.18220  0.51100  0.11124  Biso   1.000  O
  O48      1.0000 0.51100  0.31780  0.11124  Biso   1.000  O
  C81      1.0000 0.66690  0.53600  0.36110  Biso   1.000  C
  C82      1.0000 0.96400  0.66690  0.36110  Biso   1.000  C
  C83      1.0000 0.53600  0.83310  0.36110  Biso   1.000  C
  C84      1.0000 0.03600  0.16690  0.13890  Biso   1.000  C
  C85      1.0000 0.16690  0.03600  0.63890  Biso   1.000  C
  C86      1.0000 0.66690  0.96400  0.86110  Biso   1.000  C
  C87      1.0000 0.83310  0.53600  0.86110  Biso   1.000  C
  C88      1.0000 0.53600  0.66690  0.86110  Biso   1.000  C
  C89      1.0000 0.33310  0.46400  0.63890  Biso   1.000  C
  C90      1.0000 0.03600  0.33310  0.63890  Biso   1.000  C
  C91      1.0000 0.46400  0.16690  0.63890  Biso   1.000  C
  C92      1.0000 0.96400  0.83310  0.86110  Biso   1.000  C
  C93      1.0000 0.83310  0.96400  0.36110  Biso   1.000  C
  C94      1.0000 0.33310  0.03600  0.13890  Biso   1.000  C
  C95      1.0000 0.16690  0.46400  0.13890  Biso   1.000  C
  C96      1.0000 0.46400  0.33310  0.13890  Biso   1.000  C
  C97      1.0000 0.70570  0.60220  0.35955  Biso   1.000  C
  C98      1.0000 0.89780  0.70570  0.35955  Biso   1.000  C
  C99      1.0000 0.60220  0.79430  0.35955  Biso   1.000  C
  C100     1.0000 0.10220  0.20570  0.14045  Biso   1.000  C
  C101     1.0000 0.20570  0.10220  0.64045  Biso   1.000  C
  C102     1.0000 0.70570  0.89780  0.85955  Biso   1.000  C
  C103     1.0000 0.79430  0.60220  0.85955  Biso   1.000  C
  C104     1.0000 0.60220  0.70570  0.85955  Biso   1.000  C
  C105     1.0000 0.29430  0.39780  0.64045  Biso   1.000  C
  C106     1.0000 0.10220  0.29430  0.64045  Biso   1.000  C
  C107     1.0000 0.39780  0.20570  0.64045  Biso   1.000  C
  C108     1.0000 0.89780  0.79430  0.85955  Biso   1.000  C
  C109     1.0000 0.79430  0.89780  0.35955  Biso   1.000  C
  C110     1.0000 0.29430  0.10220  0.14045  Biso   1.000  C
  C111     1.0000 0.20570  0.39780  0.14045  Biso   1.000  C
  C112     1.0000 0.39780  0.29430  0.14045  Biso   1.000  C
  H65      1.0000 0.74130  0.61290  0.37737  Biso   1.000  H
  H66      1.0000 0.88710  0.74130  0.37737  Biso   1.000  H
  H67      1.0000 0.61290  0.75870  0.37737  Biso   1.000  H
  H68      1.0000 0.11290  0.24130  0.12263  Biso   1.000  H
  H69      1.0000 0.24130  0.11290  0.62263  Biso   1.000  H
  H70      1.0000 0.74130  0.88710  0.87737  Biso   1.000  H
  H71      1.0000 0.75870  0.61290  0.87737  Biso   1.000  H
  H72      1.0000 0.61290  0.74130  0.87737  Biso   1.000  H
  H73      1.0000 0.25870  0.38710  0.62263  Biso   1.000  H
  H74      1.0000 0.11290  0.25870  0.62263  Biso   1.000  H
  H75      1.0000 0.38710  0.24130  0.62263  Biso   1.000  H
  H76      1.0000 0.88710  0.75870  0.87737  Biso   1.000  H
  H77      1.0000 0.75870  0.88710  0.37737  Biso   1.000  H
  H78      1.0000 0.25870  0.11290  0.12263  Biso   1.000  H
  H79      1.0000 0.24130  0.38710  0.12263  Biso   1.000  H
  H80      1.0000 0.38710  0.25870  0.12263  Biso   1.000  H
  N17      1.0000 0.69430  0.65170  0.33356  Biso   1.000  N
  N18      1.0000 0.84830  0.69430  0.33356  Biso   1.000  N
  N19      1.0000 0.65170  0.80570  0.33356  Biso   1.000  N
  N20      1.0000 0.15170  0.19430  0.16644  Biso   1.000  N
  N21      1.0000 0.19430  0.15170  0.66644  Biso   1.000  N
  N22      1.0000 0.69430  0.84830  0.83356  Biso   1.000  N
  N23      1.0000 0.80570  0.65170  0.83356  Biso   1.000  N
  N24      1.0000 0.65170  0.69430  0.83356  Biso   1.000  N
  N25      1.0000 0.30570  0.34830  0.66644  Biso   1.000  N
  N26      1.0000 0.15170  0.30570  0.66644  Biso   1.000  N
  N27      1.0000 0.34830  0.19430  0.66644  Biso   1.000  N
  N28      1.0000 0.84830  0.80570  0.83356  Biso   1.000  N
  N29      1.0000 0.80570  0.84830  0.33356  Biso   1.000  N
  N30      1.0000 0.30570  0.15170  0.16644  Biso   1.000  N
  N31      1.0000 0.19430  0.34830  0.16644  Biso   1.000  N
  N32      1.0000 0.34830  0.30570  0.16644  Biso   1.000  N
  C113     1.0000 0.64430  0.63620  0.30866  Biso   1.000  C
  C114     1.0000 0.86380  0.64430  0.30866  Biso   1.000  C
  C115     1.0000 0.63620  0.85570  0.30866  Biso   1.000  C
  C116     1.0000 0.13620  0.14430  0.19134  Biso   1.000  C
  C117     1.0000 0.14430  0.13620  0.69134  Biso   1.000  C
  C118     1.0000 0.64430  0.86380  0.80866  Biso   1.000  C
  C119     1.0000 0.85570  0.63620  0.80866  Biso   1.000  C
  C120     1.0000 0.63620  0.64430  0.80866  Biso   1.000  C
  C121     1.0000 0.35570  0.36380  0.69134  Biso   1.000  C
  C122     1.0000 0.13620  0.35570  0.69134  Biso   1.000  C
  C123     1.0000 0.36380  0.14430  0.69134  Biso   1.000  C
  C124     1.0000 0.86380  0.85570  0.80866  Biso   1.000  C
  C125     1.0000 0.85570  0.86380  0.30866  Biso   1.000  C
  C126     1.0000 0.35570  0.13620  0.19134  Biso   1.000  C
  C127     1.0000 0.14430  0.36380  0.19134  Biso   1.000  C
  C128     1.0000 0.36380  0.35570  0.19134  Biso   1.000  C
  H81      1.0000 0.63520  0.67150  0.29048  Biso   1.000  H
  H82      1.0000 0.82850  0.63520  0.29048  Biso   1.000  H
  H83      1.0000 0.67150  0.86480  0.29048  Biso   1.000  H
  H84      1.0000 0.17150  0.13520  0.20952  Biso   1.000  H
  H85      1.0000 0.13520  0.17150  0.70952  Biso   1.000  H
  H86      1.0000 0.63520  0.82850  0.79048  Biso   1.000  H
  H87      1.0000 0.86480  0.67150  0.79048  Biso   1.000  H
  H88      1.0000 0.67150  0.63520  0.79048  Biso   1.000  H
  H89      1.0000 0.36480  0.32850  0.70952  Biso   1.000  H
  H90      1.0000 0.17150  0.36480  0.70952  Biso   1.000  H
  H91      1.0000 0.32850  0.13520  0.70952  Biso   1.000  H
  H92      1.0000 0.82850  0.86480  0.79048  Biso   1.000  H
  H93      1.0000 0.86480  0.82850  0.29048  Biso   1.000  H
  H94      1.0000 0.36480  0.17150  0.20952  Biso   1.000  H
  H95      1.0000 0.13520  0.32850  0.20952  Biso   1.000  H
  H96      1.0000 0.32850  0.36480  0.20952  Biso   1.000  H
  C129     1.0000 0.60550  0.57010  0.30860  Biso   1.000  C
  C130     1.0000 0.92990  0.60550  0.30860  Biso   1.000  C
  C131     1.0000 0.57010  0.89450  0.30860  Biso   1.000  C
  C132     1.0000 0.07010  0.10550  0.19140  Biso   1.000  C
  C133     1.0000 0.10550  0.07010  0.69140  Biso   1.000  C
  C134     1.0000 0.60550  0.92990  0.80860  Biso   1.000  C
  C135     1.0000 0.89450  0.57010  0.80860  Biso   1.000  C
  C136     1.0000 0.57010  0.60550  0.80860  Biso   1.000  C
  C137     1.0000 0.39450  0.42990  0.69140  Biso   1.000  C
  C138     1.0000 0.07010  0.39450  0.69140  Biso   1.000  C
  C139     1.0000 0.42990  0.10550  0.69140  Biso   1.000  C
  C140     1.0000 0.92990  0.89450  0.80860  Biso   1.000  C
  C141     1.0000 0.89450  0.92990  0.30860  Biso   1.000  C
  C142     1.0000 0.39450  0.07010  0.19140  Biso   1.000  C
  C143     1.0000 0.10550  0.42990  0.19140  Biso   1.000  C
  C144     1.0000 0.42990  0.39450  0.19140  Biso   1.000  C
  H97      1.0000 0.57060  0.55980  0.29040  Biso   1.000  H
  H98      1.0000 0.94020  0.57060  0.29040  Biso   1.000  H
  H99      1.0000 0.55980  0.92940  0.29040  Biso   1.000  H
  H100     1.0000 0.05980  0.07060  0.20960  Biso   1.000  H
  H101     1.0000 0.07060  0.05980  0.70960  Biso   1.000  H
  H102     1.0000 0.57060  0.94020  0.79040  Biso   1.000  H
  H103     1.0000 0.92940  0.55980  0.79040  Biso   1.000  H
  H104     1.0000 0.55980  0.57060  0.79040  Biso   1.000  H
  H105     1.0000 0.42940  0.44020  0.70960  Biso   1.000  H
  H106     1.0000 0.05980  0.42940  0.70960  Biso   1.000  H
  H107     1.0000 0.44020  0.07060  0.70960  Biso   1.000  H
  H108     1.0000 0.94020  0.92940  0.79040  Biso   1.000  H
  H109     1.0000 0.92940  0.94020  0.29040  Biso   1.000  H
  H110     1.0000 0.42940  0.05980  0.20960  Biso   1.000  H
  H111     1.0000 0.07060  0.44020  0.20960  Biso   1.000  H
  H112     1.0000 0.44020  0.42940  0.20960  Biso   1.000  H
  C145     1.0000 0.61770  0.51960  0.33500  Biso   1.000  C
  C146     1.0000 0.98040  0.61770  0.33500  Biso   1.000  C
  C147     1.0000 0.51960  0.88230  0.33500  Biso   1.000  C
  C148     1.0000 0.01960  0.11770  0.16500  Biso   1.000  C
  C149     1.0000 0.11770  0.01960  0.66500  Biso   1.000  C
  C150     1.0000 0.61770  0.98040  0.83500  Biso   1.000  C
  C151     1.0000 0.88230  0.51960  0.83500  Biso   1.000  C
  C152     1.0000 0.51960  0.61770  0.83500  Biso   1.000  C
  C153     1.0000 0.38230  0.48040  0.66500  Biso   1.000  C
  C154     1.0000 0.01960  0.38230  0.66500  Biso   1.000  C
  C155     1.0000 0.48040  0.11770  0.66500  Biso   1.000  C
  C156     1.0000 0.98040  0.88230  0.83500  Biso   1.000  C
  C157     1.0000 0.88230  0.98040  0.33500  Biso   1.000  C
  C158     1.0000 0.38230  0.01960  0.16500  Biso   1.000  C
  C159     1.0000 0.11770  0.48040  0.16500  Biso   1.000  C
  C160     1.0000 0.48040  0.38230  0.16500  Biso   1.000  C
  H113     1.0000 0.59210  0.47340  0.33510  Biso   1.000  H
  H114     1.0000 0.02660  0.59210  0.33510  Biso   1.000  H
  H115     1.0000 0.47340  0.90790  0.33510  Biso   1.000  H
  H116     1.0000 0.97340  0.09210  0.16490  Biso   1.000  H
  H117     1.0000 0.09210  0.97340  0.66490  Biso   1.000  H
  H118     1.0000 0.59210  0.02660  0.83510  Biso   1.000  H
  H119     1.0000 0.90790  0.47340  0.83510  Biso   1.000  H
  H120     1.0000 0.47340  0.59210  0.83510  Biso   1.000  H
  H121     1.0000 0.40790  0.52660  0.66490  Biso   1.000  H
  H122     1.0000 0.97340  0.40790  0.66490  Biso   1.000  H
  H123     1.0000 0.52660  0.09210  0.66490  Biso   1.000  H
  H124     1.0000 0.02660  0.90790  0.83510  Biso   1.000  H
  H125     1.0000 0.90790  0.02660  0.33510  Biso   1.000  H
  H126     1.0000 0.40790  0.97340  0.16490  Biso   1.000  H
  H127     1.0000 0.09210  0.52660  0.16490  Biso   1.000  H
  H128     1.0000 0.52660  0.40790  0.16490  Biso   1.000  H
  C161     1.0000 0.54900  0.27190  0.36830  Biso   1.000  C
  C162     1.0000 0.22810  0.54900  0.36830  Biso   1.000  C
  C163     1.0000 0.27190  0.95100  0.36830  Biso   1.000  C
  C164     1.0000 0.77190  0.04900  0.13170  Biso   1.000  C
  C165     1.0000 0.04900  0.77190  0.63170  Biso   1.000  C
  C166     1.0000 0.54900  0.22810  0.86830  Biso   1.000  C
  C167     1.0000 0.95100  0.27190  0.86830  Biso   1.000  C
  C168     1.0000 0.27190  0.54900  0.86830  Biso   1.000  C
  C169     1.0000 0.45100  0.72810  0.63170  Biso   1.000  C
  C170     1.0000 0.77190  0.45100  0.63170  Biso   1.000  C
  C171     1.0000 0.72810  0.04900  0.63170  Biso   1.000  C
  C172     1.0000 0.22810  0.95100  0.86830  Biso   1.000  C
  C173     1.0000 0.95100  0.22810  0.36830  Biso   1.000  C
  C174     1.0000 0.45100  0.77190  0.13170  Biso   1.000  C
  C175     1.0000 0.04900  0.72810  0.13170  Biso   1.000  C
  C176     1.0000 0.72810  0.45100  0.13170  Biso   1.000  C
  H129     1.0000 0.50570  0.24990  0.35550  Biso   1.000  H
  H130     1.0000 0.25010  0.50570  0.35550  Biso   1.000  H
  H131     1.0000 0.24990  0.99430  0.35550  Biso   1.000  H
  H132     1.0000 0.74990  0.00570  0.14450  Biso   1.000  H
  H133     1.0000 0.00570  0.74990  0.64450  Biso   1.000  H
  H134     1.0000 0.50570  0.25010  0.85550  Biso   1.000  H
  H135     1.0000 0.99430  0.24990  0.85550  Biso   1.000  H
  H136     1.0000 0.24990  0.50570  0.85550  Biso   1.000  H
  H137     1.0000 0.49430  0.75010  0.64450  Biso   1.000  H
  H138     1.0000 0.74990  0.49430  0.64450  Biso   1.000  H
  H139     1.0000 0.75010  0.00570  0.64450  Biso   1.000  H
  H140     1.0000 0.25010  0.99430  0.85550  Biso   1.000  H
  H141     1.0000 0.99430  0.25010  0.35550  Biso   1.000  H
  H142     1.0000 0.49430  0.74990  0.14450  Biso   1.000  H
  H143     1.0000 0.00570  0.75010  0.14450  Biso   1.000  H
  H144     1.0000 0.75010  0.49430  0.14450  Biso   1.000  H
  H145     1.0000 0.52440  0.27720  0.34590  Biso   1.000  H
  H146     1.0000 0.22280  0.52440  0.34590  Biso   1.000  H
  H147     1.0000 0.27720  0.97560  0.34590  Biso   1.000  H
  H148     1.0000 0.77720  0.02440  0.15410  Biso   1.000  H
  H149     1.0000 0.02440  0.77720  0.65410  Biso   1.000  H
  H150     1.0000 0.52440  0.22280  0.84590  Biso   1.000  H
  H151     1.0000 0.97560  0.27720  0.84590  Biso   1.000  H
  H152     1.0000 0.27720  0.52440  0.84590  Biso   1.000  H
  H153     1.0000 0.47560  0.72280  0.65410  Biso   1.000  H
  H154     1.0000 0.77720  0.47560  0.65410  Biso   1.000  H
  H155     1.0000 0.72280  0.02440  0.65410  Biso   1.000  H
  H156     1.0000 0.22280  0.97560  0.84590  Biso   1.000  H
  H157     1.0000 0.97560  0.22280  0.34590  Biso   1.000  H
  H158     1.0000 0.47560  0.77720  0.15410  Biso   1.000  H
  H159     1.0000 0.02440  0.72280  0.15410  Biso   1.000  H
  H160     1.0000 0.72280  0.47560  0.15410  Biso   1.000  H
  C177     1.0000 0.60250  0.29600  0.34000  Biso   1.000  C
  C178     1.0000 0.20400  0.60250  0.34000  Biso   1.000  C
  C179     1.0000 0.29600  0.89750  0.34000  Biso   1.000  C
  C180     1.0000 0.79600  0.10250  0.16000  Biso   1.000  C
  C181     1.0000 0.10250  0.79600  0.66000  Biso   1.000  C
  C182     1.0000 0.60250  0.20400  0.84000  Biso   1.000  C
  C183     1.0000 0.89750  0.29600  0.84000  Biso   1.000  C
  C184     1.0000 0.29600  0.60250  0.84000  Biso   1.000  C
  C185     1.0000 0.39750  0.70400  0.66000  Biso   1.000  C
  C186     1.0000 0.79600  0.39750  0.66000  Biso   1.000  C
  C187     1.0000 0.70400  0.10250  0.66000  Biso   1.000  C
  C188     1.0000 0.20400  0.89750  0.84000  Biso   1.000  C
  C189     1.0000 0.89750  0.20400  0.34000  Biso   1.000  C
  C190     1.0000 0.39750  0.79600  0.16000  Biso   1.000  C
  C191     1.0000 0.10250  0.70400  0.16000  Biso   1.000  C
  C192     1.0000 0.70400  0.39750  0.16000  Biso   1.000  C
  H161     1.0000 0.58030  0.33620  0.32600  Biso   1.000  H
  H162     1.0000 0.16380  0.58030  0.32600  Biso   1.000  H
  H163     1.0000 0.33620  0.91970  0.32600  Biso   1.000  H
  H164     1.0000 0.83620  0.08030  0.17400  Biso   1.000  H
  H165     1.0000 0.08030  0.83620  0.67400  Biso   1.000  H
  H166     1.0000 0.58030  0.16380  0.82600  Biso   1.000  H
  H167     1.0000 0.91970  0.33620  0.82600  Biso   1.000  H
  H168     1.0000 0.33620  0.58030  0.82600  Biso   1.000  H
  H169     1.0000 0.41970  0.66380  0.67400  Biso   1.000  H
  H170     1.0000 0.83620  0.41970  0.67400  Biso   1.000  H
  H171     1.0000 0.66380  0.08030  0.67400  Biso   1.000  H
  H172     1.0000 0.16380  0.91970  0.82600  Biso   1.000  H
  H173     1.0000 0.91970  0.16380  0.32600  Biso   1.000  H
  H174     1.0000 0.41970  0.83620  0.17400  Biso   1.000  H
  H175     1.0000 0.08030  0.66380  0.17400  Biso   1.000  H
  H176     1.0000 0.66380  0.41970  0.17400  Biso   1.000  H
  H177     1.0000 0.61370  0.25390  0.32440  Biso   1.000  H
  H178     1.0000 0.24610  0.61370  0.32440  Biso   1.000  H
  H179     1.0000 0.25390  0.88630  0.32440  Biso   1.000  H
  H180     1.0000 0.75390  0.11370  0.17560  Biso   1.000  H
  H181     1.0000 0.11370  0.75390  0.67560  Biso   1.000  H
  H182     1.0000 0.61370  0.24610  0.82440  Biso   1.000  H
  H183     1.0000 0.88630  0.25390  0.82440  Biso   1.000  H
  H184     1.0000 0.25390  0.61370  0.82440  Biso   1.000  H
  H185     1.0000 0.38630  0.74610  0.67560  Biso   1.000  H
  H186     1.0000 0.75390  0.38630  0.67560  Biso   1.000  H
  H187     1.0000 0.74610  0.11370  0.67560  Biso   1.000  H
  H188     1.0000 0.24610  0.88630  0.82440  Biso   1.000  H
  H189     1.0000 0.88630  0.24610  0.32440  Biso   1.000  H
  H190     1.0000 0.38630  0.75390  0.17560  Biso   1.000  H
  H191     1.0000 0.11370  0.74610  0.17560  Biso   1.000  H
  H192     1.0000 0.74610  0.38630  0.17560  Biso   1.000  H
  H193     1.0000 0.64850  0.31380  0.35100  Biso   1.000  H
  H194     1.0000 0.18620  0.64850  0.35100  Biso   1.000  H
  H195     1.0000 0.31380  0.85150  0.35100  Biso   1.000  H
  H196     1.0000 0.81380  0.14850  0.14900  Biso   1.000  H
  H197     1.0000 0.14850  0.81380  0.64900  Biso   1.000  H
  H198     1.0000 0.64850  0.18620  0.85100  Biso   1.000  H
  H199     1.0000 0.85150  0.31380  0.85100  Biso   1.000  H
  H200     1.0000 0.31380  0.64850  0.85100  Biso   1.000  H
  H201     1.0000 0.35150  0.68620  0.64900  Biso   1.000  H
  H202     1.0000 0.81380  0.35150  0.64900  Biso   1.000  H
  H203     1.0000 0.68620  0.14850  0.64900  Biso   1.000  H
  H204     1.0000 0.18620  0.85150  0.85100  Biso   1.000  H
  H205     1.0000 0.85150  0.18620  0.35100  Biso   1.000  H
  H206     1.0000 0.35150  0.81380  0.14900  Biso   1.000  H
  H207     1.0000 0.14850  0.68620  0.14900  Biso   1.000  H
  H208     1.0000 0.68620  0.35150  0.14900  Biso   1.000  H
  C193     1.0000 0.57970  0.21140  0.39010  Biso   1.000  C
  C194     1.0000 0.28860  0.57970  0.39010  Biso   1.000  C
  C195     1.0000 0.21140  0.92030  0.39010  Biso   1.000  C
  C196     1.0000 0.71140  0.07970  0.10990  Biso   1.000  C
  C197     1.0000 0.07970  0.71140  0.60990  Biso   1.000  C
  C198     1.0000 0.57970  0.28860  0.89010  Biso   1.000  C
  C199     1.0000 0.92030  0.21140  0.89010  Biso   1.000  C
  C200     1.0000 0.21140  0.57970  0.89010  Biso   1.000  C
  C201     1.0000 0.42030  0.78860  0.60990  Biso   1.000  C
  C202     1.0000 0.71140  0.42030  0.60990  Biso   1.000  C
  C203     1.0000 0.78860  0.07970  0.60990  Biso   1.000  C
  C204     1.0000 0.28860  0.92030  0.89010  Biso   1.000  C
  C205     1.0000 0.92030  0.28860  0.39010  Biso   1.000  C
  C206     1.0000 0.42030  0.71140  0.10990  Biso   1.000  C
  C207     1.0000 0.07970  0.78860  0.10990  Biso   1.000  C
  C208     1.0000 0.78860  0.42030  0.10990  Biso   1.000  C
  H209     1.0000 0.54340  0.19720  0.40820  Biso   1.000  H
  H210     1.0000 0.30280  0.54340  0.40820  Biso   1.000  H
  H211     1.0000 0.19720  0.95660  0.40820  Biso   1.000  H
  H212     1.0000 0.69720  0.04340  0.09180  Biso   1.000  H
  H213     1.0000 0.04340  0.69720  0.59180  Biso   1.000  H
  H214     1.0000 0.54340  0.30280  0.90820  Biso   1.000  H
  H215     1.0000 0.95660  0.19720  0.90820  Biso   1.000  H
  H216     1.0000 0.19720  0.54340  0.90820  Biso   1.000  H
  H217     1.0000 0.45660  0.80280  0.59180  Biso   1.000  H
  H218     1.0000 0.69720  0.45660  0.59180  Biso   1.000  H
  H219     1.0000 0.80280  0.04340  0.59180  Biso   1.000  H
  H220     1.0000 0.30280  0.95660  0.90820  Biso   1.000  H
  H221     1.0000 0.95660  0.30280  0.40820  Biso   1.000  H
  H222     1.0000 0.45660  0.69720  0.09180  Biso   1.000  H
  H223     1.0000 0.04340  0.80280  0.09180  Biso   1.000  H
  H224     1.0000 0.80280  0.45660  0.09180  Biso   1.000  H
  H225     1.0000 0.62550  0.22840  0.40160  Biso   1.000  H
  H226     1.0000 0.27160  0.62550  0.40160  Biso   1.000  H
  H227     1.0000 0.22840  0.87450  0.40160  Biso   1.000  H
  H228     1.0000 0.72840  0.12550  0.09840  Biso   1.000  H
  H229     1.0000 0.12550  0.72840  0.59840  Biso   1.000  H
  H230     1.0000 0.62550  0.27160  0.90160  Biso   1.000  H
  H231     1.0000 0.87450  0.22840  0.90160  Biso   1.000  H
  H232     1.0000 0.22840  0.62550  0.90160  Biso   1.000  H
  H233     1.0000 0.37450  0.77160  0.59840  Biso   1.000  H
  H234     1.0000 0.72840  0.37450  0.59840  Biso   1.000  H
  H235     1.0000 0.77160  0.12550  0.59840  Biso   1.000  H
  H236     1.0000 0.27160  0.87450  0.90160  Biso   1.000  H
  H237     1.0000 0.87450  0.27160  0.40160  Biso   1.000  H
  H238     1.0000 0.37450  0.72840  0.09840  Biso   1.000  H
  H239     1.0000 0.12550  0.77160  0.09840  Biso   1.000  H
  H240     1.0000 0.77160  0.37450  0.09840  Biso   1.000  H
  H241     1.0000 0.59070  0.16850  0.37500  Biso   1.000  H
  H242     1.0000 0.33150  0.59070  0.37500  Biso   1.000  H
  H243     1.0000 0.16850  0.90930  0.37500  Biso   1.000  H
  H244     1.0000 0.66850  0.09070  0.12500  Biso   1.000  H
  H245     1.0000 0.09070  0.66850  0.62500  Biso   1.000  H
  H246     1.0000 0.59070  0.33150  0.87500  Biso   1.000  H
  H247     1.0000 0.90930  0.16850  0.87500  Biso   1.000  H
  H248     1.0000 0.16850  0.59070  0.87500  Biso   1.000  H
  H249     1.0000 0.40930  0.83150  0.62500  Biso   1.000  H
  H250     1.0000 0.66850  0.40930  0.62500  Biso   1.000  H
  H251     1.0000 0.83150  0.09070  0.62500  Biso   1.000  H
  H252     1.0000 0.33150  0.90930  0.87500  Biso   1.000  H
  H253     1.0000 0.90930  0.33150  0.37500  Biso   1.000  H
  H254     1.0000 0.40930  0.66850  0.12500  Biso   1.000  H
  H255     1.0000 0.09070  0.83150  0.12500  Biso   1.000  H
  H256     1.0000 0.83150  0.40930  0.12500  Biso   1.000  H
  C209     1.0000 0.63440  0.28960  0.36140  Biso   1.000  C
  C210     1.0000 0.21040  0.63440  0.36140  Biso   1.000  C
  C211     1.0000 0.28960  0.86560  0.36140  Biso   1.000  C
  C212     1.0000 0.78960  0.13440  0.13860  Biso   1.000  C
  C213     1.0000 0.13440  0.78960  0.63860  Biso   1.000  C
  C214     1.0000 0.63440  0.21040  0.86140  Biso   1.000  C
  C215     1.0000 0.86560  0.28960  0.86140  Biso   1.000  C
  C216     1.0000 0.28960  0.63440  0.86140  Biso   1.000  C
  C217     1.0000 0.36560  0.71040  0.63860  Biso   1.000  C
  C218     1.0000 0.78960  0.36560  0.63860  Biso   1.000  C
  C219     1.0000 0.71040  0.13440  0.63860  Biso   1.000  C
  C220     1.0000 0.21040  0.86560  0.86140  Biso   1.000  C
  C221     1.0000 0.86560  0.21040  0.36140  Biso   1.000  C
  C222     1.0000 0.36560  0.78960  0.13860  Biso   1.000  C
  C223     1.0000 0.13440  0.71040  0.13860  Biso   1.000  C
  C224     1.0000 0.71040  0.36560  0.13860  Biso   1.000  C
  H257     1.0000 0.64300  0.34310  0.36420  Biso   1.000  H
  H258     1.0000 0.15690  0.64300  0.36420  Biso   1.000  H
  H259     1.0000 0.34310  0.85700  0.36420  Biso   1.000  H
  H260     1.0000 0.84310  0.14300  0.13580  Biso   1.000  H
  H261     1.0000 0.14300  0.84310  0.63580  Biso   1.000  H
  H262     1.0000 0.64300  0.15690  0.86420  Biso   1.000  H
  H263     1.0000 0.85700  0.34310  0.86420  Biso   1.000  H
  H264     1.0000 0.34310  0.64300  0.86420  Biso   1.000  H
  H265     1.0000 0.35700  0.65690  0.63580  Biso   1.000  H
  H266     1.0000 0.84310  0.35700  0.63580  Biso   1.000  H
  H267     1.0000 0.65690  0.14300  0.63580  Biso   1.000  H
  H268     1.0000 0.15690  0.85700  0.86420  Biso   1.000  H
  H269     1.0000 0.85700  0.15690  0.36420  Biso   1.000  H
  H270     1.0000 0.35700  0.84310  0.13580  Biso   1.000  H
  H271     1.0000 0.14300  0.65690  0.13580  Biso   1.000  H
  H272     1.0000 0.65690  0.35700  0.13580  Biso   1.000  H
  H273     1.0000 0.64780  0.27440  0.33730  Biso   1.000  H
  H274     1.0000 0.22560  0.64780  0.33730  Biso   1.000  H
  H275     1.0000 0.27440  0.85220  0.33730  Biso   1.000  H
  H276     1.0000 0.77440  0.14780  0.16270  Biso   1.000  H
  H277     1.0000 0.14780  0.77440  0.66270  Biso   1.000  H
  H278     1.0000 0.64780  0.22560  0.83730  Biso   1.000  H
  H279     1.0000 0.85220  0.27440  0.83730  Biso   1.000  H
  H280     1.0000 0.27440  0.64780  0.83730  Biso   1.000  H
  H281     1.0000 0.35220  0.72560  0.66270  Biso   1.000  H
  H282     1.0000 0.77440  0.35220  0.66270  Biso   1.000  H
  H283     1.0000 0.72560  0.14780  0.66270  Biso   1.000  H
  H284     1.0000 0.22560  0.85220  0.83730  Biso   1.000  H
  H285     1.0000 0.85220  0.22560  0.33730  Biso   1.000  H
  H286     1.0000 0.35220  0.77440  0.16270  Biso   1.000  H
  H287     1.0000 0.14780  0.72560  0.16270  Biso   1.000  H
  H288     1.0000 0.72560  0.35220  0.16270  Biso   1.000  H
  H289     1.0000 0.66490  0.26230  0.37850  Biso   1.000  H
  H290     1.0000 0.23770  0.66490  0.37850  Biso   1.000  H
  H291     1.0000 0.26230  0.83510  0.37850  Biso   1.000  H
  H292     1.0000 0.76230  0.16490  0.12150  Biso   1.000  H
  H293     1.0000 0.16490  0.76230  0.62150  Biso   1.000  H
  H294     1.0000 0.66490  0.23770  0.87850  Biso   1.000  H
  H295     1.0000 0.83510  0.26230  0.87850  Biso   1.000  H
  H296     1.0000 0.26230  0.66490  0.87850  Biso   1.000  H
  H297     1.0000 0.33510  0.73770  0.62150  Biso   1.000  H
  H298     1.0000 0.76230  0.33510  0.62150  Biso   1.000  H
  H299     1.0000 0.73770  0.16490  0.62150  Biso   1.000  H
  H300     1.0000 0.23770  0.83510  0.87850  Biso   1.000  H
  H301     1.0000 0.83510  0.23770  0.37850  Biso   1.000  H
  H302     1.0000 0.33510  0.76230  0.12150  Biso   1.000  H
  H303     1.0000 0.16490  0.73770  0.12150  Biso   1.000  H
  H304     1.0000 0.73770  0.33510  0.12150  Biso   1.000  H
  C225     1.0000 0.53680  0.19550  0.36430  Biso   1.000  C
  C226     1.0000 0.30450  0.53680  0.36430  Biso   1.000  C
  C227     1.0000 0.19550  0.96320  0.36430  Biso   1.000  C
  C228     1.0000 0.69550  0.03680  0.13570  Biso   1.000  C
  C229     1.0000 0.03680  0.69550  0.63570  Biso   1.000  C
  C230     1.0000 0.53680  0.30450  0.86430  Biso   1.000  C
  C231     1.0000 0.96320  0.19550  0.86430  Biso   1.000  C
  C232     1.0000 0.19550  0.53680  0.86430  Biso   1.000  C
  C233     1.0000 0.46320  0.80450  0.63570  Biso   1.000  C
  C234     1.0000 0.69550  0.46320  0.63570  Biso   1.000  C
  C235     1.0000 0.80450  0.03680  0.63570  Biso   1.000  C
  C236     1.0000 0.30450  0.96320  0.86430  Biso   1.000  C
  C237     1.0000 0.96320  0.30450  0.36430  Biso   1.000  C
  C238     1.0000 0.46320  0.69550  0.13570  Biso   1.000  C
  C239     1.0000 0.03680  0.80450  0.13570  Biso   1.000  C
  C240     1.0000 0.80450  0.46320  0.13570  Biso   1.000  C
  H305     1.0000 0.48420  0.18450  0.36850  Biso   1.000  H
  H306     1.0000 0.31550  0.48420  0.36850  Biso   1.000  H
  H307     1.0000 0.18450  0.01580  0.36850  Biso   1.000  H
  H308     1.0000 0.68450  0.98420  0.13150  Biso   1.000  H
  H309     1.0000 0.98420  0.68450  0.63150  Biso   1.000  H
  H310     1.0000 0.48420  0.31550  0.86850  Biso   1.000  H
  H311     1.0000 0.01580  0.18450  0.86850  Biso   1.000  H
  H312     1.0000 0.18450  0.48420  0.86850  Biso   1.000  H
  H313     1.0000 0.51580  0.81550  0.63150  Biso   1.000  H
  H314     1.0000 0.68450  0.51580  0.63150  Biso   1.000  H
  H315     1.0000 0.81550  0.98420  0.63150  Biso   1.000  H
  H316     1.0000 0.31550  0.01580  0.86850  Biso   1.000  H
  H317     1.0000 0.01580  0.31550  0.36850  Biso   1.000  H
  H318     1.0000 0.51580  0.68450  0.13150  Biso   1.000  H
  H319     1.0000 0.98420  0.81550  0.13150  Biso   1.000  H
  H320     1.0000 0.81550  0.51580  0.13150  Biso   1.000  H
  H321     1.0000 0.56730  0.16820  0.38140  Biso   1.000  H
  H322     1.0000 0.33180  0.56730  0.38140  Biso   1.000  H
  H323     1.0000 0.16820  0.93270  0.38140  Biso   1.000  H
  H324     1.0000 0.66820  0.06730  0.11860  Biso   1.000  H
  H325     1.0000 0.06730  0.66820  0.61860  Biso   1.000  H
  H326     1.0000 0.56730  0.33180  0.88140  Biso   1.000  H
  H327     1.0000 0.93270  0.16820  0.88140  Biso   1.000  H
  H328     1.0000 0.16820  0.56730  0.88140  Biso   1.000  H
  H329     1.0000 0.43270  0.83180  0.61860  Biso   1.000  H
  H330     1.0000 0.66820  0.43270  0.61860  Biso   1.000  H
  H331     1.0000 0.83180  0.06730  0.61860  Biso   1.000  H
  H332     1.0000 0.33180  0.93270  0.88140  Biso   1.000  H
  H333     1.0000 0.93270  0.33180  0.38140  Biso   1.000  H
  H334     1.0000 0.43270  0.66820  0.11860  Biso   1.000  H
  H335     1.0000 0.06730  0.83180  0.11860  Biso   1.000  H
  H336     1.0000 0.83180  0.43270  0.11860  Biso   1.000  H
  H337     1.0000 0.55020  0.18030  0.34020  Biso   1.000  H
  H338     1.0000 0.31970  0.55020  0.34020  Biso   1.000  H
  H339     1.0000 0.18030  0.94980  0.34020  Biso   1.000  H
  H340     1.0000 0.68030  0.05020  0.15980  Biso   1.000  H
  H341     1.0000 0.05020  0.68030  0.65980  Biso   1.000  H
  H342     1.0000 0.55020  0.31970  0.84020  Biso   1.000  H
  H343     1.0000 0.94980  0.18030  0.84020  Biso   1.000  H
  H344     1.0000 0.18030  0.55020  0.84020  Biso   1.000  H
  H345     1.0000 0.44980  0.81970  0.65980  Biso   1.000  H
  H346     1.0000 0.68030  0.44980  0.65980  Biso   1.000  H
  H347     1.0000 0.81970  0.05020  0.65980  Biso   1.000  H
  H348     1.0000 0.31970  0.94980  0.84020  Biso   1.000  H
  H349     1.0000 0.94980  0.31970  0.34020  Biso   1.000  H
  H350     1.0000 0.44980  0.68030  0.15980  Biso   1.000  H
  H351     1.0000 0.05020  0.81970  0.15980  Biso   1.000  H
  H352     1.0000 0.81970  0.44980  0.15980  Biso   1.000  H
  C241     1.0000 0.43840  0.32560  0.42627  Biso   1.000  C
  C242     1.0000 0.17440  0.43840  0.42627  Biso   1.000  C
  C243     1.0000 0.32560  0.06160  0.42627  Biso   1.000  C
  C244     1.0000 0.82560  0.93840  0.07373  Biso   1.000  C
  C245     1.0000 0.93840  0.82560  0.57373  Biso   1.000  C
  C246     1.0000 0.43840  0.17440  0.92627  Biso   1.000  C
  C247     1.0000 0.06160  0.32560  0.92627  Biso   1.000  C
  C248     1.0000 0.32560  0.43840  0.92627  Biso   1.000  C
  C249     1.0000 0.56160  0.67440  0.57373  Biso   1.000  C
  C250     1.0000 0.82560  0.56160  0.57373  Biso   1.000  C
  C251     1.0000 0.67440  0.93840  0.57373  Biso   1.000  C
  C252     1.0000 0.17440  0.06160  0.92627  Biso   1.000  C
  C253     1.0000 0.06160  0.17440  0.42627  Biso   1.000  C
  C254     1.0000 0.56160  0.82560  0.07373  Biso   1.000  C
  C255     1.0000 0.93840  0.67440  0.07373  Biso   1.000  C
  C256     1.0000 0.67440  0.56160  0.07373  Biso   1.000  C
  H353     1.0000 0.40730  0.28550  0.41550  Biso   1.000  H
  H354     1.0000 0.21450  0.40730  0.41550  Biso   1.000  H
  H355     1.0000 0.28550  0.09270  0.41550  Biso   1.000  H
  H356     1.0000 0.78550  0.90730  0.08450  Biso   1.000  H
  H357     1.0000 0.90730  0.78550  0.58450  Biso   1.000  H
  H358     1.0000 0.40730  0.21450  0.91550  Biso   1.000  H
  H359     1.0000 0.09270  0.28550  0.91550  Biso   1.000  H
  H360     1.0000 0.28550  0.40730  0.91550  Biso   1.000  H
  H361     1.0000 0.59270  0.71450  0.58450  Biso   1.000  H
  H362     1.0000 0.78550  0.59270  0.58450  Biso   1.000  H
  H363     1.0000 0.71450  0.90730  0.58450  Biso   1.000  H
  H364     1.0000 0.21450  0.09270  0.91550  Biso   1.000  H
  H365     1.0000 0.09270  0.21450  0.41550  Biso   1.000  H
  H366     1.0000 0.59270  0.78550  0.08450  Biso   1.000  H
  H367     1.0000 0.90730  0.71450  0.08450  Biso   1.000  H
  H368     1.0000 0.71450  0.59270  0.08450  Biso   1.000  H
  C257     1.0000 0.47230  0.29440  0.46020  Biso   1.000  C
  C258     1.0000 0.20560  0.47230  0.46020  Biso   1.000  C
  C259     1.0000 0.29440  0.02770  0.46020  Biso   1.000  C
  C260     1.0000 0.79440  0.97230  0.03980  Biso   1.000  C
  C261     1.0000 0.97230  0.79440  0.53980  Biso   1.000  C
  C262     1.0000 0.47230  0.20560  0.96020  Biso   1.000  C
  C263     1.0000 0.02770  0.29440  0.96020  Biso   1.000  C
  C264     1.0000 0.29440  0.47230  0.96020  Biso   1.000  C
  C265     1.0000 0.52770  0.70560  0.53980  Biso   1.000  C
  C266     1.0000 0.79440  0.52770  0.53980  Biso   1.000  C
  C267     1.0000 0.70560  0.97230  0.53980  Biso   1.000  C
  C268     1.0000 0.20560  0.02770  0.96020  Biso   1.000  C
  C269     1.0000 0.02770  0.20560  0.46020  Biso   1.000  C
  C270     1.0000 0.52770  0.79440  0.03980  Biso   1.000  C
  C271     1.0000 0.97230  0.70560  0.03980  Biso   1.000  C
  C272     1.0000 0.70560  0.52770  0.03980  Biso   1.000  C
  H369     1.0000 0.50500  0.25260  0.45430  Biso   1.000  H
  H370     1.0000 0.24740  0.50500  0.45430  Biso   1.000  H
  H371     1.0000 0.25260  0.99500  0.45430  Biso   1.000  H
  H372     1.0000 0.75260  0.00500  0.04570  Biso   1.000  H
  H373     1.0000 0.00500  0.75260  0.54570  Biso   1.000  H
  H374     1.0000 0.50500  0.24740  0.95430  Biso   1.000  H
  H375     1.0000 0.99500  0.25260  0.95430  Biso   1.000  H
  H376     1.0000 0.25260  0.50500  0.95430  Biso   1.000  H
  H377     1.0000 0.49500  0.74740  0.54570  Biso   1.000  H
  H378     1.0000 0.75260  0.49500  0.54570  Biso   1.000  H
  H379     1.0000 0.74740  0.00500  0.54570  Biso   1.000  H
  H380     1.0000 0.24740  0.99500  0.95430  Biso   1.000  H
  H381     1.0000 0.99500  0.24740  0.45430  Biso   1.000  H
  H382     1.0000 0.49500  0.75260  0.04570  Biso   1.000  H
  H383     1.0000 0.00500  0.74740  0.04570  Biso   1.000  H
  H384     1.0000 0.74740  0.49500  0.04570  Biso   1.000  H
  H385     1.0000 0.43260  0.27740  0.47590  Biso   1.000  H
  H386     1.0000 0.22260  0.43260  0.47590  Biso   1.000  H
  H387     1.0000 0.27740  0.06740  0.47590  Biso   1.000  H
  H388     1.0000 0.77740  0.93260  0.02410  Biso   1.000  H
  H389     1.0000 0.93260  0.77740  0.52410  Biso   1.000  H
  H390     1.0000 0.43260  0.22260  0.97590  Biso   1.000  H
  H391     1.0000 0.06740  0.27740  0.97590  Biso   1.000  H
  H392     1.0000 0.27740  0.43260  0.97590  Biso   1.000  H
  H393     1.0000 0.56740  0.72260  0.52410  Biso   1.000  H
  H394     1.0000 0.77740  0.56740  0.52410  Biso   1.000  H
  H395     1.0000 0.72260  0.93260  0.52410  Biso   1.000  H
  H396     1.0000 0.22260  0.06740  0.97590  Biso   1.000  H
  H397     1.0000 0.06740  0.22260  0.47590  Biso   1.000  H
  H398     1.0000 0.56740  0.77740  0.02410  Biso   1.000  H
  H399     1.0000 0.93260  0.72260  0.02410  Biso   1.000  H
  H400     1.0000 0.72260  0.56740  0.02410  Biso   1.000  H
  H401     1.0000 0.50120  0.33330  0.47200  Biso   1.000  H
  H402     1.0000 0.16670  0.50120  0.47200  Biso   1.000  H
  H403     1.0000 0.33330  0.99880  0.47200  Biso   1.000  H
  H404     1.0000 0.83330  0.00120  0.02800  Biso   1.000  H
  H405     1.0000 0.00120  0.83330  0.52800  Biso   1.000  H
  H406     1.0000 0.50120  0.16670  0.97200  Biso   1.000  H
  H407     1.0000 0.99880  0.33330  0.97200  Biso   1.000  H
  H408     1.0000 0.33330  0.50120  0.97200  Biso   1.000  H
  H409     1.0000 0.49880  0.66670  0.52800  Biso   1.000  H
  H410     1.0000 0.83330  0.49880  0.52800  Biso   1.000  H
  H411     1.0000 0.66670  0.00120  0.52800  Biso   1.000  H
  H412     1.0000 0.16670  0.99880  0.97200  Biso   1.000  H
  H413     1.0000 0.99880  0.16670  0.47200  Biso   1.000  H
  H414     1.0000 0.49880  0.83330  0.02800  Biso   1.000  H
  H415     1.0000 0.00120  0.66670  0.02800  Biso   1.000  H
  H416     1.0000 0.66670  0.49880  0.02800  Biso   1.000  H
  C273     1.0000 0.38800  0.38990  0.43410  Biso   1.000  C
  C274     1.0000 0.11010  0.38800  0.43410  Biso   1.000  C
  C275     1.0000 0.38990  0.11200  0.43410  Biso   1.000  C
  C276     1.0000 0.88990  0.88800  0.06590  Biso   1.000  C
  C277     1.0000 0.88800  0.88990  0.56590  Biso   1.000  C
  C278     1.0000 0.38800  0.11010  0.93410  Biso   1.000  C
  C279     1.0000 0.11200  0.38990  0.93410  Biso   1.000  C
  C280     1.0000 0.38990  0.38800  0.93410  Biso   1.000  C
  C281     1.0000 0.61200  0.61010  0.56590  Biso   1.000  C
  C282     1.0000 0.88990  0.61200  0.56590  Biso   1.000  C
  C283     1.0000 0.61010  0.88800  0.56590  Biso   1.000  C
  C284     1.0000 0.11010  0.11200  0.93410  Biso   1.000  C
  C285     1.0000 0.11200  0.11010  0.43410  Biso   1.000  C
  C286     1.0000 0.61200  0.88990  0.06590  Biso   1.000  C
  C287     1.0000 0.88800  0.61010  0.06590  Biso   1.000  C
  C288     1.0000 0.61010  0.61200  0.06590  Biso   1.000  C
  H417     1.0000 0.36700  0.40890  0.41200  Biso   1.000  H
  H418     1.0000 0.09110  0.36700  0.41200  Biso   1.000  H
  H419     1.0000 0.40890  0.13300  0.41200  Biso   1.000  H
  H420     1.0000 0.90890  0.86700  0.08800  Biso   1.000  H
  H421     1.0000 0.86700  0.90890  0.58800  Biso   1.000  H
  H422     1.0000 0.36700  0.09110  0.91200  Biso   1.000  H
  H423     1.0000 0.13300  0.40890  0.91200  Biso   1.000  H
  H424     1.0000 0.40890  0.36700  0.91200  Biso   1.000  H
  H425     1.0000 0.63300  0.59110  0.58800  Biso   1.000  H
  H426     1.0000 0.90890  0.63300  0.58800  Biso   1.000  H
  H427     1.0000 0.59110  0.86700  0.58800  Biso   1.000  H
  H428     1.0000 0.09110  0.13300  0.91200  Biso   1.000  H
  H429     1.0000 0.13300  0.09110  0.41200  Biso   1.000  H
  H430     1.0000 0.63300  0.90890  0.08800  Biso   1.000  H
  H431     1.0000 0.86700  0.59110  0.08800  Biso   1.000  H
  H432     1.0000 0.59110  0.63300  0.08800  Biso   1.000  H
  H433     1.0000 0.41640  0.42930  0.44590  Biso   1.000  H
  H434     1.0000 0.07070  0.41640  0.44590  Biso   1.000  H
  H435     1.0000 0.42930  0.08360  0.44590  Biso   1.000  H
  H436     1.0000 0.92930  0.91640  0.05410  Biso   1.000  H
  H437     1.0000 0.91640  0.92930  0.55410  Biso   1.000  H
  H438     1.0000 0.41640  0.07070  0.94590  Biso   1.000  H
  H439     1.0000 0.08360  0.42930  0.94590  Biso   1.000  H
  H440     1.0000 0.42930  0.41640  0.94590  Biso   1.000  H
  H441     1.0000 0.58360  0.57070  0.55410  Biso   1.000  H
  H442     1.0000 0.92930  0.58360  0.55410  Biso   1.000  H
  H443     1.0000 0.57070  0.91640  0.55410  Biso   1.000  H
  H444     1.0000 0.07070  0.08360  0.94590  Biso   1.000  H
  H445     1.0000 0.08360  0.07070  0.44590  Biso   1.000  H
  H446     1.0000 0.58360  0.92930  0.05410  Biso   1.000  H
  H447     1.0000 0.91640  0.57070  0.05410  Biso   1.000  H
  H448     1.0000 0.57070  0.58360  0.05410  Biso   1.000  H
  H449     1.0000 0.34780  0.37340  0.44970  Biso   1.000  H
  H450     1.0000 0.12660  0.34780  0.44970  Biso   1.000  H
  H451     1.0000 0.37340  0.15220  0.44970  Biso   1.000  H
  H452     1.0000 0.87340  0.84780  0.05030  Biso   1.000  H
  H453     1.0000 0.84780  0.87340  0.55030  Biso   1.000  H
  H454     1.0000 0.34780  0.12660  0.94970  Biso   1.000  H
  H455     1.0000 0.15220  0.37340  0.94970  Biso   1.000  H
  H456     1.0000 0.37340  0.34780  0.94970  Biso   1.000  H
  H457     1.0000 0.65220  0.62660  0.55030  Biso   1.000  H
  H458     1.0000 0.87340  0.65220  0.55030  Biso   1.000  H
  H459     1.0000 0.62660  0.84780  0.55030  Biso   1.000  H
  H460     1.0000 0.12660  0.15220  0.94970  Biso   1.000  H
  H461     1.0000 0.15220  0.12660  0.44970  Biso   1.000  H
  H462     1.0000 0.65220  0.87340  0.05030  Biso   1.000  H
  H463     1.0000 0.84780  0.62660  0.05030  Biso   1.000  H
  H464     1.0000 0.62660  0.65220  0.05030  Biso   1.000  H
  C289     1.0000 0.70950  0.41950  0.44900  Biso   1.000  C
  C290     1.0000 0.08050  0.70950  0.44900  Biso   1.000  C
  C291     1.0000 0.41950  0.79050  0.44900  Biso   1.000  C
  C292     1.0000 0.91950  0.20950  0.05100  Biso   1.000  C
  C293     1.0000 0.20950  0.91950  0.55100  Biso   1.000  C
  C294     1.0000 0.70950  0.08050  0.94900  Biso   1.000  C
  C295     1.0000 0.79050  0.41950  0.94900  Biso   1.000  C
  C296     1.0000 0.41950  0.70950  0.94900  Biso   1.000  C
  C297     1.0000 0.29050  0.58050  0.55100  Biso   1.000  C
  C298     1.0000 0.91950  0.29050  0.55100  Biso   1.000  C
  C299     1.0000 0.58050  0.20950  0.55100  Biso   1.000  C
  C300     1.0000 0.08050  0.79050  0.94900  Biso   1.000  C
  C301     1.0000 0.79050  0.08050  0.44900  Biso   1.000  C
  C302     1.0000 0.29050  0.91950  0.05100  Biso   1.000  C
  C303     1.0000 0.20950  0.58050  0.05100  Biso   1.000  C
  C304     1.0000 0.58050  0.29050  0.05100  Biso   1.000  C
  H465     1.0000 0.74280  0.46040  0.45730  Biso   1.000  H
  H466     1.0000 0.03960  0.74280  0.45730  Biso   1.000  H
  H467     1.0000 0.46040  0.75720  0.45730  Biso   1.000  H
  H468     1.0000 0.96040  0.24280  0.04270  Biso   1.000  H
  H469     1.0000 0.24280  0.96040  0.54270  Biso   1.000  H
  H470     1.0000 0.74280  0.03960  0.95730  Biso   1.000  H
  H471     1.0000 0.75720  0.46040  0.95730  Biso   1.000  H
  H472     1.0000 0.46040  0.74280  0.95730  Biso   1.000  H
  H473     1.0000 0.25720  0.53960  0.54270  Biso   1.000  H
  H474     1.0000 0.96040  0.25720  0.54270  Biso   1.000  H
  H475     1.0000 0.53960  0.24280  0.54270  Biso   1.000  H
  H476     1.0000 0.03960  0.75720  0.95730  Biso   1.000  H
  H477     1.0000 0.75720  0.03960  0.45730  Biso   1.000  H
  H478     1.0000 0.25720  0.96040  0.04270  Biso   1.000  H
  H479     1.0000 0.24280  0.53960  0.04270  Biso   1.000  H
  H480     1.0000 0.53960  0.25720  0.04270  Biso   1.000  H
  C305     1.0000 0.75810  0.36450  0.43000  Biso   1.000  C
  C306     1.0000 0.13550  0.75810  0.43000  Biso   1.000  C
  C307     1.0000 0.36450  0.74190  0.43000  Biso   1.000  C
  C308     1.0000 0.86450  0.25810  0.07000  Biso   1.000  C
  C309     1.0000 0.25810  0.86450  0.57000  Biso   1.000  C
  C310     1.0000 0.75810  0.13550  0.93000  Biso   1.000  C
  C311     1.0000 0.74190  0.36450  0.93000  Biso   1.000  C
  C312     1.0000 0.36450  0.75810  0.93000  Biso   1.000  C
  C313     1.0000 0.24190  0.63550  0.57000  Biso   1.000  C
  C314     1.0000 0.86450  0.24190  0.57000  Biso   1.000  C
  C315     1.0000 0.63550  0.25810  0.57000  Biso   1.000  C
  C316     1.0000 0.13550  0.74190  0.93000  Biso   1.000  C
  C317     1.0000 0.74190  0.13550  0.43000  Biso   1.000  C
  C318     1.0000 0.24190  0.86450  0.07000  Biso   1.000  C
  C319     1.0000 0.25810  0.63550  0.07000  Biso   1.000  C
  C320     1.0000 0.63550  0.24190  0.07000  Biso   1.000  C
  H481     1.0000 0.77820  0.38740  0.40850  Biso   1.000  H
  H482     1.0000 0.11260  0.77820  0.40850  Biso   1.000  H
  H483     1.0000 0.38740  0.72180  0.40850  Biso   1.000  H
  H484     1.0000 0.88740  0.27820  0.09150  Biso   1.000  H
  H485     1.0000 0.27820  0.88740  0.59150  Biso   1.000  H
  H486     1.0000 0.77820  0.11260  0.90850  Biso   1.000  H
  H487     1.0000 0.72180  0.38740  0.90850  Biso   1.000  H
  H488     1.0000 0.38740  0.77820  0.90850  Biso   1.000  H
  H489     1.0000 0.22180  0.61260  0.59150  Biso   1.000  H
  H490     1.0000 0.88740  0.22180  0.59150  Biso   1.000  H
  H491     1.0000 0.61260  0.27820  0.59150  Biso   1.000  H
  H492     1.0000 0.11260  0.72180  0.90850  Biso   1.000  H
  H493     1.0000 0.72180  0.11260  0.40850  Biso   1.000  H
  H494     1.0000 0.22180  0.88740  0.09150  Biso   1.000  H
  H495     1.0000 0.27820  0.61260  0.09150  Biso   1.000  H
  H496     1.0000 0.61260  0.22180  0.09150  Biso   1.000  H
  H497     1.0000 0.72870  0.32070  0.42360  Biso   1.000  H
  H498     1.0000 0.17930  0.72870  0.42360  Biso   1.000  H
  H499     1.0000 0.32070  0.77130  0.42360  Biso   1.000  H
  H500     1.0000 0.82070  0.22870  0.07640  Biso   1.000  H
  H501     1.0000 0.22870  0.82070  0.57640  Biso   1.000  H
  H502     1.0000 0.72870  0.17930  0.92360  Biso   1.000  H
  H503     1.0000 0.77130  0.32070  0.92360  Biso   1.000  H
  H504     1.0000 0.32070  0.72870  0.92360  Biso   1.000  H
  H505     1.0000 0.27130  0.67930  0.57640  Biso   1.000  H
  H506     1.0000 0.82070  0.27130  0.57640  Biso   1.000  H
  H507     1.0000 0.67930  0.22870  0.57640  Biso   1.000  H
  H508     1.0000 0.17930  0.77130  0.92360  Biso   1.000  H
  H509     1.0000 0.77130  0.17930  0.42360  Biso   1.000  H
  H510     1.0000 0.27130  0.82070  0.07640  Biso   1.000  H
  H511     1.0000 0.22870  0.67930  0.07640  Biso   1.000  H
  H512     1.0000 0.67930  0.27130  0.07640  Biso   1.000  H
  H513     1.0000 0.79910  0.34950  0.44550  Biso   1.000  H
  H514     1.0000 0.15050  0.79910  0.44550  Biso   1.000  H
  H515     1.0000 0.34950  0.70090  0.44550  Biso   1.000  H
  H516     1.0000 0.84950  0.29910  0.05450  Biso   1.000  H
  H517     1.0000 0.29910  0.84950  0.55450  Biso   1.000  H
  H518     1.0000 0.79910  0.15050  0.94550  Biso   1.000  H
  H519     1.0000 0.70090  0.34950  0.94550  Biso   1.000  H
  H520     1.0000 0.34950  0.79910  0.94550  Biso   1.000  H
  H521     1.0000 0.20090  0.65050  0.55450  Biso   1.000  H
  H522     1.0000 0.84950  0.20090  0.55450  Biso   1.000  H
  H523     1.0000 0.65050  0.29910  0.55450  Biso   1.000  H
  H524     1.0000 0.15050  0.70090  0.94550  Biso   1.000  H
  H525     1.0000 0.70090  0.15050  0.44550  Biso   1.000  H
  H526     1.0000 0.20090  0.84950  0.05450  Biso   1.000  H
  H527     1.0000 0.29910  0.65050  0.05450  Biso   1.000  H
  H528     1.0000 0.65050  0.20090  0.05450  Biso   1.000  H
  C321     1.0000 0.68010  0.38260  0.48150  Biso   1.000  C
  C322     1.0000 0.11740  0.68010  0.48150  Biso   1.000  C
  C323     1.0000 0.38260  0.81990  0.48150  Biso   1.000  C
  C324     1.0000 0.88260  0.18010  0.01850  Biso   1.000  C
  C325     1.0000 0.18010  0.88260  0.51850  Biso   1.000  C
  C326     1.0000 0.68010  0.11740  0.98150  Biso   1.000  C
  C327     1.0000 0.81990  0.38260  0.98150  Biso   1.000  C
  C328     1.0000 0.38260  0.68010  0.98150  Biso   1.000  C
  C329     1.0000 0.31990  0.61740  0.51850  Biso   1.000  C
  C330     1.0000 0.88260  0.31990  0.51850  Biso   1.000  C
  C331     1.0000 0.61740  0.18010  0.51850  Biso   1.000  C
  C332     1.0000 0.11740  0.81990  0.98150  Biso   1.000  C
  C333     1.0000 0.81990  0.11740  0.48150  Biso   1.000  C
  C334     1.0000 0.31990  0.88260  0.01850  Biso   1.000  C
  C335     1.0000 0.18010  0.61740  0.01850  Biso   1.000  C
  C336     1.0000 0.61740  0.31990  0.01850  Biso   1.000  C
  H529     1.0000 0.64810  0.41740  0.49440  Biso   1.000  H
  H530     1.0000 0.08260  0.64810  0.49440  Biso   1.000  H
  H531     1.0000 0.41740  0.85190  0.49440  Biso   1.000  H
  H532     1.0000 0.91740  0.14810  0.00560  Biso   1.000  H
  H533     1.0000 0.14810  0.91740  0.50560  Biso   1.000  H
  H534     1.0000 0.64810  0.08260  0.99440  Biso   1.000  H
  H535     1.0000 0.85190  0.41740  0.99440  Biso   1.000  H
  H536     1.0000 0.41740  0.64810  0.99440  Biso   1.000  H
  H537     1.0000 0.35190  0.58260  0.50560  Biso   1.000  H
  H538     1.0000 0.91740  0.35190  0.50560  Biso   1.000  H
  H539     1.0000 0.58260  0.14810  0.50560  Biso   1.000  H
  H540     1.0000 0.08260  0.85190  0.99440  Biso   1.000  H
  H541     1.0000 0.85190  0.08260  0.49440  Biso   1.000  H
  H542     1.0000 0.35190  0.91740  0.00560  Biso   1.000  H
  H543     1.0000 0.14810  0.58260  0.00560  Biso   1.000  H
  H544     1.0000 0.58260  0.35190  0.00560  Biso   1.000  H
  H545     1.0000 0.72160  0.36750  0.49660  Biso   1.000  H
  H546     1.0000 0.13250  0.72160  0.49660  Biso   1.000  H
  H547     1.0000 0.36750  0.77840  0.49660  Biso   1.000  H
  H548     1.0000 0.86750  0.22160  0.00340  Biso   1.000  H
  H549     1.0000 0.22160  0.86750  0.50340  Biso   1.000  H
  H550     1.0000 0.72160  0.13250  0.99660  Biso   1.000  H
  H551     1.0000 0.77840  0.36750  0.99660  Biso   1.000  H
  H552     1.0000 0.36750  0.72160  0.99660  Biso   1.000  H
  H553     1.0000 0.27840  0.63250  0.50340  Biso   1.000  H
  H554     1.0000 0.86750  0.27840  0.50340  Biso   1.000  H
  H555     1.0000 0.63250  0.22160  0.50340  Biso   1.000  H
  H556     1.0000 0.13250  0.77840  0.99660  Biso   1.000  H
  H557     1.0000 0.77840  0.13250  0.49660  Biso   1.000  H
  H558     1.0000 0.27840  0.86750  0.00340  Biso   1.000  H
  H559     1.0000 0.22160  0.63250  0.00340  Biso   1.000  H
  H560     1.0000 0.63250  0.27840  0.00340  Biso   1.000  H
  H561     1.0000 0.65120  0.33870  0.47470  Biso   1.000  H
  H562     1.0000 0.16130  0.65120  0.47470  Biso   1.000  H
  H563     1.0000 0.33870  0.84880  0.47470  Biso   1.000  H
  H564     1.0000 0.83870  0.15120  0.02530  Biso   1.000  H
  H565     1.0000 0.15120  0.83870  0.52530  Biso   1.000  H
  H566     1.0000 0.65120  0.16130  0.97470  Biso   1.000  H
  H567     1.0000 0.84880  0.33870  0.97470  Biso   1.000  H
  H568     1.0000 0.33870  0.65120  0.97470  Biso   1.000  H
  H569     1.0000 0.34880  0.66130  0.52530  Biso   1.000  H
  H570     1.0000 0.83870  0.34880  0.52530  Biso   1.000  H
  H571     1.0000 0.66130  0.15120  0.52530  Biso   1.000  H
  H572     1.0000 0.16130  0.84880  0.97470  Biso   1.000  H
  H573     1.0000 0.84880  0.16130  0.47470  Biso   1.000  H
  H574     1.0000 0.34880  0.83870  0.02530  Biso   1.000  H
  H575     1.0000 0.15120  0.66130  0.02530  Biso   1.000  H
  H576     1.0000 0.66130  0.34880  0.02530  Biso   1.000  H
  C337     1.0000 0.69190  0.43410  0.45950  Biso   1.000  C
  C338     1.0000 0.06590  0.69190  0.45950  Biso   1.000  C
  C339     1.0000 0.43410  0.80810  0.45950  Biso   1.000  C
  C340     1.0000 0.93410  0.19190  0.04050  Biso   1.000  C
  C341     1.0000 0.19190  0.93410  0.54050  Biso   1.000  C
  C342     1.0000 0.69190  0.06590  0.95950  Biso   1.000  C
  C343     1.0000 0.80810  0.43410  0.95950  Biso   1.000  C
  C344     1.0000 0.43410  0.69190  0.95950  Biso   1.000  C
  C345     1.0000 0.30810  0.56590  0.54050  Biso   1.000  C
  C346     1.0000 0.93410  0.30810  0.54050  Biso   1.000  C
  C347     1.0000 0.56590  0.19190  0.54050  Biso   1.000  C
  C348     1.0000 0.06590  0.80810  0.95950  Biso   1.000  C
  C349     1.0000 0.80810  0.06590  0.45950  Biso   1.000  C
  C350     1.0000 0.30810  0.93410  0.04050  Biso   1.000  C
  C351     1.0000 0.19190  0.56590  0.04050  Biso   1.000  C
  C352     1.0000 0.56590  0.30810  0.04050  Biso   1.000  C
  H577     1.0000 0.72930  0.47380  0.46460  Biso   1.000  H
  H578     1.0000 0.02620  0.72930  0.46460  Biso   1.000  H
  H579     1.0000 0.47380  0.77070  0.46460  Biso   1.000  H
  H580     1.0000 0.97380  0.22930  0.03540  Biso   1.000  H
  H581     1.0000 0.22930  0.97380  0.53540  Biso   1.000  H
  H582     1.0000 0.72930  0.02620  0.96460  Biso   1.000  H
  H583     1.0000 0.77070  0.47380  0.96460  Biso   1.000  H
  H584     1.0000 0.47380  0.72930  0.96460  Biso   1.000  H
  H585     1.0000 0.27070  0.52620  0.53540  Biso   1.000  H
  H586     1.0000 0.97380  0.27070  0.53540  Biso   1.000  H
  H587     1.0000 0.52620  0.22930  0.53540  Biso   1.000  H
  H588     1.0000 0.02620  0.77070  0.96460  Biso   1.000  H
  H589     1.0000 0.77070  0.02620  0.46460  Biso   1.000  H
  H590     1.0000 0.27070  0.97380  0.03540  Biso   1.000  H
  H591     1.0000 0.22930  0.52620  0.03540  Biso   1.000  H
  H592     1.0000 0.52620  0.27070  0.03540  Biso   1.000  H
  C353     1.0000 0.73160  0.36740  0.44510  Biso   1.000  C
  C354     1.0000 0.13260  0.73160  0.44510  Biso   1.000  C
  C355     1.0000 0.36740  0.76840  0.44510  Biso   1.000  C
  C356     1.0000 0.86740  0.23160  0.05490  Biso   1.000  C
  C357     1.0000 0.23160  0.86740  0.55490  Biso   1.000  C
  C358     1.0000 0.73160  0.13260  0.94510  Biso   1.000  C
  C359     1.0000 0.76840  0.36740  0.94510  Biso   1.000  C
  C360     1.0000 0.36740  0.73160  0.94510  Biso   1.000  C
  C361     1.0000 0.26840  0.63260  0.55490  Biso   1.000  C
  C362     1.0000 0.86740  0.26840  0.55490  Biso   1.000  C
  C363     1.0000 0.63260  0.23160  0.55490  Biso   1.000  C
  C364     1.0000 0.13260  0.76840  0.94510  Biso   1.000  C
  C365     1.0000 0.76840  0.13260  0.44510  Biso   1.000  C
  C366     1.0000 0.26840  0.86740  0.05490  Biso   1.000  C
  C367     1.0000 0.23160  0.63260  0.05490  Biso   1.000  C
  C368     1.0000 0.63260  0.26840  0.05490  Biso   1.000  C
  H593     1.0000 0.75680  0.38070  0.42300  Biso   1.000  H
  H594     1.0000 0.11930  0.75680  0.42300  Biso   1.000  H
  H595     1.0000 0.38070  0.74320  0.42300  Biso   1.000  H
  H596     1.0000 0.88070  0.25680  0.07700  Biso   1.000  H
  H597     1.0000 0.25680  0.88070  0.57700  Biso   1.000  H
  H598     1.0000 0.75680  0.11930  0.92300  Biso   1.000  H
  H599     1.0000 0.74320  0.38070  0.92300  Biso   1.000  H
  H600     1.0000 0.38070  0.75680  0.92300  Biso   1.000  H
  H601     1.0000 0.24320  0.61930  0.57700  Biso   1.000  H
  H602     1.0000 0.88070  0.24320  0.57700  Biso   1.000  H
  H603     1.0000 0.61930  0.25680  0.57700  Biso   1.000  H
  H604     1.0000 0.11930  0.74320  0.92300  Biso   1.000  H
  H605     1.0000 0.74320  0.11930  0.42300  Biso   1.000  H
  H606     1.0000 0.24320  0.88070  0.07700  Biso   1.000  H
  H607     1.0000 0.25680  0.61930  0.07700  Biso   1.000  H
  H608     1.0000 0.61930  0.24320  0.07700  Biso   1.000  H
  H609     1.0000 0.69570  0.32760  0.44050  Biso   1.000  H
  H610     1.0000 0.17240  0.69570  0.44050  Biso   1.000  H
  H611     1.0000 0.32760  0.80430  0.44050  Biso   1.000  H
  H612     1.0000 0.82760  0.19570  0.05950  Biso   1.000  H
  H613     1.0000 0.19570  0.82760  0.55950  Biso   1.000  H
  H614     1.0000 0.69570  0.17240  0.94050  Biso   1.000  H
  H615     1.0000 0.80430  0.32760  0.94050  Biso   1.000  H
  H616     1.0000 0.32760  0.69570  0.94050  Biso   1.000  H
  H617     1.0000 0.30430  0.67240  0.55950  Biso   1.000  H
  H618     1.0000 0.82760  0.30430  0.55950  Biso   1.000  H
  H619     1.0000 0.67240  0.19570  0.55950  Biso   1.000  H
  H620     1.0000 0.17240  0.80430  0.94050  Biso   1.000  H
  H621     1.0000 0.80430  0.17240  0.44050  Biso   1.000  H
  H622     1.0000 0.30430  0.82760  0.05950  Biso   1.000  H
  H623     1.0000 0.19570  0.67240  0.05950  Biso   1.000  H
  H624     1.0000 0.67240  0.30430  0.05950  Biso   1.000  H
  H625     1.0000 0.76840  0.35010  0.46240  Biso   1.000  H
  H626     1.0000 0.14990  0.76840  0.46240  Biso   1.000  H
  H627     1.0000 0.35010  0.73160  0.46240  Biso   1.000  H
  H628     1.0000 0.85010  0.26840  0.03760  Biso   1.000  H
  H629     1.0000 0.26840  0.85010  0.53760  Biso   1.000  H
  H630     1.0000 0.76840  0.14990  0.96240  Biso   1.000  H
  H631     1.0000 0.73160  0.35010  0.96240  Biso   1.000  H
  H632     1.0000 0.35010  0.76840  0.96240  Biso   1.000  H
  H633     1.0000 0.23160  0.64990  0.53760  Biso   1.000  H
  H634     1.0000 0.85010  0.23160  0.53760  Biso   1.000  H
  H635     1.0000 0.64990  0.26840  0.53760  Biso   1.000  H
  H636     1.0000 0.14990  0.73160  0.96240  Biso   1.000  H
  H637     1.0000 0.73160  0.14990  0.46240  Biso   1.000  H
  H638     1.0000 0.23160  0.85010  0.03760  Biso   1.000  H
  H639     1.0000 0.26840  0.64990  0.03760  Biso   1.000  H
  H640     1.0000 0.64990  0.23160  0.03760  Biso   1.000  H
  C369     1.0000 0.65370  0.41350  0.49320  Biso   1.000  C
  C370     1.0000 0.08650  0.65370  0.49320  Biso   1.000  C
  C371     1.0000 0.41350  0.84630  0.49320  Biso   1.000  C
  C372     1.0000 0.91350  0.15370  0.00680  Biso   1.000  C
  C373     1.0000 0.15370  0.91350  0.50680  Biso   1.000  C
  C374     1.0000 0.65370  0.08650  0.99320  Biso   1.000  C
  C375     1.0000 0.84630  0.41350  0.99320  Biso   1.000  C
  C376     1.0000 0.41350  0.65370  0.99320  Biso   1.000  C
  C377     1.0000 0.34630  0.58650  0.50680  Biso   1.000  C
  C378     1.0000 0.91350  0.34630  0.50680  Biso   1.000  C
  C379     1.0000 0.58650  0.15370  0.50680  Biso   1.000  C
  C380     1.0000 0.08650  0.84630  0.99320  Biso   1.000  C
  C381     1.0000 0.84630  0.08650  0.49320  Biso   1.000  C
  C382     1.0000 0.34630  0.91350  0.00680  Biso   1.000  C
  C383     1.0000 0.15370  0.58650  0.00680  Biso   1.000  C
  C384     1.0000 0.58650  0.34630  0.00680  Biso   1.000  C
  H641     1.0000 0.62770  0.45700  0.50270  Biso   1.000  H
  H642     1.0000 0.04300  0.62770  0.50270  Biso   1.000  H
  H643     1.0000 0.45700  0.87230  0.50270  Biso   1.000  H
  H644     1.0000 0.95700  0.12770  0.99730  Biso   1.000  H
  H645     1.0000 0.12770  0.95700  0.49730  Biso   1.000  H
  H646     1.0000 0.62770  0.04300  0.00270  Biso   1.000  H
  H647     1.0000 0.87230  0.45700  0.00270  Biso   1.000  H
  H648     1.0000 0.45700  0.62770  0.00270  Biso   1.000  H
  H649     1.0000 0.37230  0.54300  0.49730  Biso   1.000  H
  H650     1.0000 0.95700  0.37230  0.49730  Biso   1.000  H
  H651     1.0000 0.54300  0.12770  0.49730  Biso   1.000  H
  H652     1.0000 0.04300  0.87230  0.00270  Biso   1.000  H
  H653     1.0000 0.87230  0.04300  0.50270  Biso   1.000  H
  H654     1.0000 0.37230  0.95700  0.99730  Biso   1.000  H
  H655     1.0000 0.12770  0.54300  0.99730  Biso   1.000  H
  H656     1.0000 0.54300  0.37230  0.99730  Biso   1.000  H
  H657     1.0000 0.69060  0.39620  0.51050  Biso   1.000  H
  H658     1.0000 0.10380  0.69060  0.51050  Biso   1.000  H
  H659     1.0000 0.39620  0.80940  0.51050  Biso   1.000  H
  H660     1.0000 0.89620  0.19060  0.98950  Biso   1.000  H
  H661     1.0000 0.19060  0.89620  0.48950  Biso   1.000  H
  H662     1.0000 0.69060  0.10380  0.01050  Biso   1.000  H
  H663     1.0000 0.80940  0.39620  0.01050  Biso   1.000  H
  H664     1.0000 0.39620  0.69060  0.01050  Biso   1.000  H
  H665     1.0000 0.30940  0.60380  0.48950  Biso   1.000  H
  H666     1.0000 0.89620  0.30940  0.48950  Biso   1.000  H
  H667     1.0000 0.60380  0.19060  0.48950  Biso   1.000  H
  H668     1.0000 0.10380  0.80940  0.01050  Biso   1.000  H
  H669     1.0000 0.80940  0.10380  0.51050  Biso   1.000  H
  H670     1.0000 0.30940  0.89620  0.98950  Biso   1.000  H
  H671     1.0000 0.19060  0.60380  0.98950  Biso   1.000  H
  H672     1.0000 0.60380  0.30940  0.98950  Biso   1.000  H
  H673     1.0000 0.61780  0.37370  0.48860  Biso   1.000  H
  H674     1.0000 0.12630  0.61780  0.48860  Biso   1.000  H
  H675     1.0000 0.37370  0.88220  0.48860  Biso   1.000  H
  H676     1.0000 0.87370  0.11780  0.01140  Biso   1.000  H
  H677     1.0000 0.11780  0.87370  0.51140  Biso   1.000  H
  H678     1.0000 0.61780  0.12630  0.98860  Biso   1.000  H
  H679     1.0000 0.88220  0.37370  0.98860  Biso   1.000  H
  H680     1.0000 0.37370  0.61780  0.98860  Biso   1.000  H
  H681     1.0000 0.38220  0.62630  0.51140  Biso   1.000  H
  H682     1.0000 0.87370  0.38220  0.51140  Biso   1.000  H
  H683     1.0000 0.62630  0.11780  0.51140  Biso   1.000  H
  H684     1.0000 0.12630  0.88220  0.98860  Biso   1.000  H
  H685     1.0000 0.88220  0.12630  0.48860  Biso   1.000  H
  H686     1.0000 0.38220  0.87370  0.01140  Biso   1.000  H
  H687     1.0000 0.11780  0.62630  0.01140  Biso   1.000  H
  H688     1.0000 0.62630  0.38220  0.01140  Biso   1.000  H
  C385     1.0000 0.57820  0.54490  0.44120  Biso   1.000  C
  C386     1.0000 0.95510  0.57820  0.44120  Biso   1.000  C
  C387     1.0000 0.54490  0.92180  0.44120  Biso   1.000  C
  C388     1.0000 0.04490  0.07820  0.05880  Biso   1.000  C
  C389     1.0000 0.07820  0.04490  0.55880  Biso   1.000  C
  C390     1.0000 0.57820  0.95510  0.94120  Biso   1.000  C
  C391     1.0000 0.92180  0.54490  0.94120  Biso   1.000  C
  C392     1.0000 0.54490  0.57820  0.94120  Biso   1.000  C
  C393     1.0000 0.42180  0.45510  0.55880  Biso   1.000  C
  C394     1.0000 0.04490  0.42180  0.55880  Biso   1.000  C
  C395     1.0000 0.45510  0.07820  0.55880  Biso   1.000  C
  C396     1.0000 0.95510  0.92180  0.94120  Biso   1.000  C
  C397     1.0000 0.92180  0.95510  0.44120  Biso   1.000  C
  C398     1.0000 0.42180  0.04490  0.05880  Biso   1.000  C
  C399     1.0000 0.07820  0.45510  0.05880  Biso   1.000  C
  C400     1.0000 0.45510  0.42180  0.05880  Biso   1.000  C
  H689     1.0000 0.54930  0.52470  0.46160  Biso   1.000  H
  H690     1.0000 0.97530  0.54930  0.46160  Biso   1.000  H
  H691     1.0000 0.52470  0.95070  0.46160  Biso   1.000  H
  H692     1.0000 0.02470  0.04930  0.03840  Biso   1.000  H
  H693     1.0000 0.04930  0.02470  0.53840  Biso   1.000  H
  H694     1.0000 0.54930  0.97530  0.96160  Biso   1.000  H
  H695     1.0000 0.95070  0.52470  0.96160  Biso   1.000  H
  H696     1.0000 0.52470  0.54930  0.96160  Biso   1.000  H
  H697     1.0000 0.45070  0.47530  0.53840  Biso   1.000  H
  H698     1.0000 0.02470  0.45070  0.53840  Biso   1.000  H
  H699     1.0000 0.47530  0.04930  0.53840  Biso   1.000  H
  H700     1.0000 0.97530  0.95070  0.96160  Biso   1.000  H
  H701     1.0000 0.95070  0.97530  0.46160  Biso   1.000  H
  H702     1.0000 0.45070  0.02470  0.03840  Biso   1.000  H
  H703     1.0000 0.04930  0.47530  0.03840  Biso   1.000  H
  H704     1.0000 0.47530  0.45070  0.03840  Biso   1.000  H
  C401     1.0000 0.62650  0.60720  0.45620  Biso   1.000  C
  C402     1.0000 0.89280  0.62650  0.45620  Biso   1.000  C
  C403     1.0000 0.60720  0.87350  0.45620  Biso   1.000  C
  C404     1.0000 0.10720  0.12650  0.04380  Biso   1.000  C
  C405     1.0000 0.12650  0.10720  0.54380  Biso   1.000  C
  C406     1.0000 0.62650  0.89280  0.95620  Biso   1.000  C
  C407     1.0000 0.87350  0.60720  0.95620  Biso   1.000  C
  C408     1.0000 0.60720  0.62650  0.95620  Biso   1.000  C
  C409     1.0000 0.37350  0.39280  0.54380  Biso   1.000  C
  C410     1.0000 0.10720  0.37350  0.54380  Biso   1.000  C
  C411     1.0000 0.39280  0.12650  0.54380  Biso   1.000  C
  C412     1.0000 0.89280  0.87350  0.95620  Biso   1.000  C
  C413     1.0000 0.87350  0.89280  0.45620  Biso   1.000  C
  C414     1.0000 0.37350  0.10720  0.04380  Biso   1.000  C
  C415     1.0000 0.12650  0.39280  0.04380  Biso   1.000  C
  C416     1.0000 0.39280  0.37350  0.04380  Biso   1.000  C
  H705     1.0000 0.66320  0.58610  0.47250  Biso   1.000  H
  H706     1.0000 0.91390  0.66320  0.47250  Biso   1.000  H
  H707     1.0000 0.58610  0.83680  0.47250  Biso   1.000  H
  H708     1.0000 0.08610  0.16320  0.02750  Biso   1.000  H
  H709     1.0000 0.16320  0.08610  0.52750  Biso   1.000  H
  H710     1.0000 0.66320  0.91390  0.97250  Biso   1.000  H
  H711     1.0000 0.83680  0.58610  0.97250  Biso   1.000  H
  H712     1.0000 0.58610  0.66320  0.97250  Biso   1.000  H
  H713     1.0000 0.33680  0.41390  0.52750  Biso   1.000  H
  H714     1.0000 0.08610  0.33680  0.52750  Biso   1.000  H
  H715     1.0000 0.41390  0.16320  0.52750  Biso   1.000  H
  H716     1.0000 0.91390  0.83680  0.97250  Biso   1.000  H
  H717     1.0000 0.83680  0.91390  0.47250  Biso   1.000  H
  H718     1.0000 0.33680  0.08610  0.02750  Biso   1.000  H
  H719     1.0000 0.16320  0.41390  0.02750  Biso   1.000  H
  H720     1.0000 0.41390  0.33680  0.02750  Biso   1.000  H
  H721     1.0000 0.59510  0.64280  0.46890  Biso   1.000  H
  H722     1.0000 0.85720  0.59510  0.46890  Biso   1.000  H
  H723     1.0000 0.64280  0.90490  0.46890  Biso   1.000  H
  H724     1.0000 0.14280  0.09510  0.03110  Biso   1.000  H
  H725     1.0000 0.09510  0.14280  0.53110  Biso   1.000  H
  H726     1.0000 0.59510  0.85720  0.96890  Biso   1.000  H
  H727     1.0000 0.90490  0.64280  0.96890  Biso   1.000  H
  H728     1.0000 0.64280  0.59510  0.96890  Biso   1.000  H
  H729     1.0000 0.40490  0.35720  0.53110  Biso   1.000  H
  H730     1.0000 0.14280  0.40490  0.53110  Biso   1.000  H
  H731     1.0000 0.35720  0.09510  0.53110  Biso   1.000  H
  H732     1.0000 0.85720  0.90490  0.96890  Biso   1.000  H
  H733     1.0000 0.90490  0.85720  0.46890  Biso   1.000  H
  H734     1.0000 0.40490  0.14280  0.03110  Biso   1.000  H
  H735     1.0000 0.09510  0.35720  0.03110  Biso   1.000  H
  H736     1.0000 0.35720  0.40490  0.03110  Biso   1.000  H
  H737     1.0000 0.65220  0.63260  0.43680  Biso   1.000  H
  H738     1.0000 0.86740  0.65220  0.43680  Biso   1.000  H
  H739     1.0000 0.63260  0.84780  0.43680  Biso   1.000  H
  H740     1.0000 0.13260  0.15220  0.06320  Biso   1.000  H
  H741     1.0000 0.15220  0.13260  0.56320  Biso   1.000  H
  H742     1.0000 0.65220  0.86740  0.93680  Biso   1.000  H
  H743     1.0000 0.84780  0.63260  0.93680  Biso   1.000  H
  H744     1.0000 0.63260  0.65220  0.93680  Biso   1.000  H
  H745     1.0000 0.34780  0.36740  0.56320  Biso   1.000  H
  H746     1.0000 0.13260  0.34780  0.56320  Biso   1.000  H
  H747     1.0000 0.36740  0.15220  0.56320  Biso   1.000  H
  H748     1.0000 0.86740  0.84780  0.93680  Biso   1.000  H
  H749     1.0000 0.84780  0.86740  0.43680  Biso   1.000  H
  H750     1.0000 0.34780  0.13260  0.06320  Biso   1.000  H
  H751     1.0000 0.15220  0.36740  0.06320  Biso   1.000  H
  H752     1.0000 0.36740  0.34780  0.06320  Biso   1.000  H
  C417     1.0000 0.51980  0.57870  0.41520  Biso   1.000  C
  C418     1.0000 0.92130  0.51980  0.41520  Biso   1.000  C
  C419     1.0000 0.57870  0.98020  0.41520  Biso   1.000  C
  C420     1.0000 0.07870  0.01980  0.08480  Biso   1.000  C
  C421     1.0000 0.01980  0.07870  0.58480  Biso   1.000  C
  C422     1.0000 0.51980  0.92130  0.91520  Biso   1.000  C
  C423     1.0000 0.98020  0.57870  0.91520  Biso   1.000  C
  C424     1.0000 0.57870  0.51980  0.91520  Biso   1.000  C
  C425     1.0000 0.48020  0.42130  0.58480  Biso   1.000  C
  C426     1.0000 0.07870  0.48020  0.58480  Biso   1.000  C
  C427     1.0000 0.42130  0.01980  0.58480  Biso   1.000  C
  C428     1.0000 0.92130  0.98020  0.91520  Biso   1.000  C
  C429     1.0000 0.98020  0.92130  0.41520  Biso   1.000  C
  C430     1.0000 0.48020  0.07870  0.08480  Biso   1.000  C
  C431     1.0000 0.01980  0.42130  0.08480  Biso   1.000  C
  C432     1.0000 0.42130  0.48020  0.08480  Biso   1.000  C
  H753     1.0000 0.48870  0.53880  0.40550  Biso   1.000  H
  H754     1.0000 0.96120  0.48870  0.40550  Biso   1.000  H
  H755     1.0000 0.53880  0.01130  0.40550  Biso   1.000  H
  H756     1.0000 0.03880  0.98870  0.09450  Biso   1.000  H
  H757     1.0000 0.98870  0.03880  0.59450  Biso   1.000  H
  H758     1.0000 0.48870  0.96120  0.90550  Biso   1.000  H
  H759     1.0000 0.01130  0.53880  0.90550  Biso   1.000  H
  H760     1.0000 0.53880  0.48870  0.90550  Biso   1.000  H
  H761     1.0000 0.51130  0.46120  0.59450  Biso   1.000  H
  H762     1.0000 0.03880  0.51130  0.59450  Biso   1.000  H
  H763     1.0000 0.46120  0.98870  0.59450  Biso   1.000  H
  H764     1.0000 0.96120  0.01130  0.90550  Biso   1.000  H
  H765     1.0000 0.01130  0.96120  0.40550  Biso   1.000  H
  H766     1.0000 0.51130  0.03880  0.09450  Biso   1.000  H
  H767     1.0000 0.98870  0.46120  0.09450  Biso   1.000  H
  H768     1.0000 0.46120  0.51130  0.09450  Biso   1.000  H
  H769     1.0000 0.54550  0.60410  0.39580  Biso   1.000  H
  H770     1.0000 0.89590  0.54550  0.39580  Biso   1.000  H
  H771     1.0000 0.60410  0.95450  0.39580  Biso   1.000  H
  H772     1.0000 0.10410  0.04550  0.10420  Biso   1.000  H
  H773     1.0000 0.04550  0.10410  0.60420  Biso   1.000  H
  H774     1.0000 0.54550  0.89590  0.89580  Biso   1.000  H
  H775     1.0000 0.95450  0.60410  0.89580  Biso   1.000  H
  H776     1.0000 0.60410  0.54550  0.89580  Biso   1.000  H
  H777     1.0000 0.45450  0.39590  0.60420  Biso   1.000  H
  H778     1.0000 0.10410  0.45450  0.60420  Biso   1.000  H
  H779     1.0000 0.39590  0.04550  0.60420  Biso   1.000  H
  H780     1.0000 0.89590  0.95450  0.89580  Biso   1.000  H
  H781     1.0000 0.95450  0.89590  0.39580  Biso   1.000  H
  H782     1.0000 0.45450  0.10410  0.10420  Biso   1.000  H
  H783     1.0000 0.04550  0.39590  0.10420  Biso   1.000  H
  H784     1.0000 0.39590  0.45450  0.10420  Biso   1.000  H
  H785     1.0000 0.48840  0.61430  0.42790  Biso   1.000  H
  H786     1.0000 0.88570  0.48840  0.42790  Biso   1.000  H
  H787     1.0000 0.61430  0.01160  0.42790  Biso   1.000  H
  H788     1.0000 0.11430  0.98840  0.07210  Biso   1.000  H
  H789     1.0000 0.98840  0.11430  0.57210  Biso   1.000  H
  H790     1.0000 0.48840  0.88570  0.92790  Biso   1.000  H
  H791     1.0000 0.01160  0.61430  0.92790  Biso   1.000  H
  H792     1.0000 0.61430  0.48840  0.92790  Biso   1.000  H
  H793     1.0000 0.51160  0.38570  0.57210  Biso   1.000  H
  H794     1.0000 0.11430  0.51160  0.57210  Biso   1.000  H
  H795     1.0000 0.38570  0.98840  0.57210  Biso   1.000  H
  H796     1.0000 0.88570  0.01160  0.92790  Biso   1.000  H
  H797     1.0000 0.01160  0.88570  0.42790  Biso   1.000  H
  H798     1.0000 0.51160  0.11430  0.07210  Biso   1.000  H
  H799     1.0000 0.98840  0.38570  0.07210  Biso   1.000  H
  H800     1.0000 0.38570  0.51160  0.07210  Biso   1.000  H
  Cl9      1.0000 0.25000  0.25000  0.24112  Biso   1.000  Cl
  Cl10     1.0000 0.75000  0.75000  0.25888  Biso   1.000  Cl
  Cl11     1.0000 0.75000  0.75000  0.75888  Biso   1.000  Cl
  Cl12     1.0000 0.25000  0.25000  0.74112  Biso   1.000  Cl
  O49      1.0000 0.35650  0.57180  0.20940  Biso   1.000  O
  O50      1.0000 0.92820  0.35650  0.20940  Biso   1.000  O
  O51      1.0000 0.57180  0.14350  0.20940  Biso   1.000  O
  O52      1.0000 0.07180  0.85650  0.29060  Biso   1.000  O
  O53      1.0000 0.85650  0.07180  0.79060  Biso   1.000  O
  O54      1.0000 0.35650  0.92820  0.70940  Biso   1.000  O
  O55      1.0000 0.14350  0.57180  0.70940  Biso   1.000  O
  O56      1.0000 0.57180  0.35650  0.70940  Biso   1.000  O
  O57      1.0000 0.64350  0.42820  0.79060  Biso   1.000  O
  O58      1.0000 0.07180  0.64350  0.79060  Biso   1.000  O
  O59      1.0000 0.42820  0.85650  0.79060  Biso   1.000  O
  O60      1.0000 0.92820  0.14350  0.70940  Biso   1.000  O
  O61      1.0000 0.14350  0.92820  0.20940  Biso   1.000  O
  O62      1.0000 0.64350  0.07180  0.29060  Biso   1.000  O
  O63      1.0000 0.85650  0.42820  0.29060  Biso   1.000  O
  O64      1.0000 0.42820  0.64350  0.29060  Biso   1.000  O
  H801     1.0000 0.33410  0.59020  0.22680  Biso   1.000  H
  H802     1.0000 0.90980  0.33410  0.22680  Biso   1.000  H
  H803     1.0000 0.59020  0.16590  0.22680  Biso   1.000  H
  H804     1.0000 0.09020  0.83410  0.27320  Biso   1.000  H
  H805     1.0000 0.83410  0.09020  0.77320  Biso   1.000  H
  H806     1.0000 0.33410  0.90980  0.72680  Biso   1.000  H
  H807     1.0000 0.16590  0.59020  0.72680  Biso   1.000  H
  H808     1.0000 0.59020  0.33410  0.72680  Biso   1.000  H
  H809     1.0000 0.66590  0.40980  0.77320  Biso   1.000  H
  H810     1.0000 0.09020  0.66590  0.77320  Biso   1.000  H
  H811     1.0000 0.40980  0.83410  0.77320  Biso   1.000  H
  H812     1.0000 0.90980  0.16590  0.72680  Biso   1.000  H
  H813     1.0000 0.16590  0.90980  0.22680  Biso   1.000  H
  H814     1.0000 0.66590  0.09020  0.27320  Biso   1.000  H
  H815     1.0000 0.83410  0.40980  0.27320  Biso   1.000  H
  H816     1.0000 0.40980  0.66590  0.27320  Biso   1.000  H
  C433     1.0000 0.30930  0.56650  0.18190  Biso   1.000  C
  C434     1.0000 0.93350  0.30930  0.18190  Biso   1.000  C
  C435     1.0000 0.56650  0.19070  0.18190  Biso   1.000  C
  C436     1.0000 0.06650  0.80930  0.31810  Biso   1.000  C
  C437     1.0000 0.80930  0.06650  0.81810  Biso   1.000  C
  C438     1.0000 0.30930  0.93350  0.68190  Biso   1.000  C
  C439     1.0000 0.19070  0.56650  0.68190  Biso   1.000  C
  C440     1.0000 0.56650  0.30930  0.68190  Biso   1.000  C
  C441     1.0000 0.69070  0.43350  0.81810  Biso   1.000  C
  C442     1.0000 0.06650  0.69070  0.81810  Biso   1.000  C
  C443     1.0000 0.43350  0.80930  0.81810  Biso   1.000  C
  C444     1.0000 0.93350  0.19070  0.68190  Biso   1.000  C
  C445     1.0000 0.19070  0.93350  0.18190  Biso   1.000  C
  C446     1.0000 0.69070  0.06650  0.31810  Biso   1.000  C
  C447     1.0000 0.80930  0.43350  0.31810  Biso   1.000  C
  C448     1.0000 0.43350  0.69070  0.31810  Biso   1.000  C
  H817     1.0000 0.26600  0.53710  0.18910  Biso   1.000  H
  H818     1.0000 0.96290  0.26600  0.18910  Biso   1.000  H
  H819     1.0000 0.53710  0.23400  0.18910  Biso   1.000  H
  H820     1.0000 0.03710  0.76600  0.31090  Biso   1.000  H
  H821     1.0000 0.76600  0.03710  0.81090  Biso   1.000  H
  H822     1.0000 0.26600  0.96290  0.68910  Biso   1.000  H
  H823     1.0000 0.23400  0.53710  0.68910  Biso   1.000  H
  H824     1.0000 0.53710  0.26600  0.68910  Biso   1.000  H
  H825     1.0000 0.73400  0.46290  0.81090  Biso   1.000  H
  H826     1.0000 0.03710  0.73400  0.81090  Biso   1.000  H
  H827     1.0000 0.46290  0.76600  0.81090  Biso   1.000  H
  H828     1.0000 0.96290  0.23400  0.68910  Biso   1.000  H
  H829     1.0000 0.23400  0.96290  0.18910  Biso   1.000  H
  H830     1.0000 0.73400  0.03710  0.31090  Biso   1.000  H
  H831     1.0000 0.76600  0.46290  0.31090  Biso   1.000  H
  H832     1.0000 0.46290  0.73400  0.31090  Biso   1.000  H
  H833     1.0000 0.33440  0.54180  0.16210  Biso   1.000  H
  H834     1.0000 0.95820  0.33440  0.16210  Biso   1.000  H
  H835     1.0000 0.54180  0.16560  0.16210  Biso   1.000  H
  H836     1.0000 0.04180  0.83440  0.33790  Biso   1.000  H
  H837     1.0000 0.83440  0.04180  0.83790  Biso   1.000  H
  H838     1.0000 0.33440  0.95820  0.66210  Biso   1.000  H
  H839     1.0000 0.16560  0.54180  0.66210  Biso   1.000  H
  H840     1.0000 0.54180  0.33440  0.66210  Biso   1.000  H
  H841     1.0000 0.66560  0.45820  0.83790  Biso   1.000  H
  H842     1.0000 0.04180  0.66560  0.83790  Biso   1.000  H
  H843     1.0000 0.45820  0.83440  0.83790  Biso   1.000  H
  H844     1.0000 0.95820  0.16560  0.66210  Biso   1.000  H
  H845     1.0000 0.16560  0.95820  0.16210  Biso   1.000  H
  H846     1.0000 0.66560  0.04180  0.33790  Biso   1.000  H
  H847     1.0000 0.83440  0.45820  0.33790  Biso   1.000  H
  H848     1.0000 0.45820  0.66560  0.33790  Biso   1.000  H
  H849     1.0000 0.29310  0.61610  0.17450  Biso   1.000  H
  H850     1.0000 0.88390  0.29310  0.17450  Biso   1.000  H
  H851     1.0000 0.61610  0.20690  0.17450  Biso   1.000  H
  H852     1.0000 0.11610  0.79310  0.32550  Biso   1.000  H
  H853     1.0000 0.79310  0.11610  0.82550  Biso   1.000  H
  H854     1.0000 0.29310  0.88390  0.67450  Biso   1.000  H
  H855     1.0000 0.20690  0.61610  0.67450  Biso   1.000  H
  H856     1.0000 0.61610  0.29310  0.67450  Biso   1.000  H
  H857     1.0000 0.70690  0.38390  0.82550  Biso   1.000  H
  H858     1.0000 0.11610  0.70690  0.82550  Biso   1.000  H
  H859     1.0000 0.38390  0.79310  0.82550  Biso   1.000  H
  H860     1.0000 0.88390  0.20690  0.67450  Biso   1.000  H
  H861     1.0000 0.20690  0.88390  0.17450  Biso   1.000  H
  H862     1.0000 0.70690  0.11610  0.32550  Biso   1.000  H
  H863     1.0000 0.79310  0.38390  0.32550  Biso   1.000  H
  H864     1.0000 0.38390  0.70690  0.32550  Biso   1.000  H
  O65      1.0000 0.30150  0.71580  0.25000  Biso   1.000  O
  O66      1.0000 0.78420  0.30150  0.25000  Biso   1.000  O
  O67      1.0000 0.71580  0.19850  0.25000  Biso   1.000  O
  O68      1.0000 0.21580  0.80150  0.25000  Biso   1.000  O
  O69      1.0000 0.80150  0.21580  0.75000  Biso   1.000  O
  O70      1.0000 0.30150  0.78420  0.75000  Biso   1.000  O
  O71      1.0000 0.19850  0.71580  0.75000  Biso   1.000  O
  O72      1.0000 0.71580  0.30150  0.75000  Biso   1.000  O
  O73      1.0000 0.69850  0.28420  0.75000  Biso   1.000  O
  O74      1.0000 0.21580  0.69850  0.75000  Biso   1.000  O
  O75      1.0000 0.28420  0.80150  0.75000  Biso   1.000  O
  O76      1.0000 0.78420  0.19850  0.75000  Biso   1.000  O
  O77      1.0000 0.19850  0.78420  0.25000  Biso   1.000  O
  O78      1.0000 0.69850  0.21580  0.25000  Biso   1.000  O
  O79      1.0000 0.80150  0.28420  0.25000  Biso   1.000  O
  O80      1.0000 0.28420  0.69850  0.25000  Biso   1.000  O
  H865     1.0000 0.26440  0.73820  0.25820  Biso   1.000  H
  H866     1.0000 0.76180  0.26440  0.25820  Biso   1.000  H
  H867     1.0000 0.73820  0.23560  0.25820  Biso   1.000  H
  H868     1.0000 0.23820  0.76440  0.24180  Biso   1.000  H
  H869     1.0000 0.76440  0.23820  0.74180  Biso   1.000  H
  H870     1.0000 0.26440  0.76180  0.75820  Biso   1.000  H
  H871     1.0000 0.23560  0.73820  0.75820  Biso   1.000  H
  H872     1.0000 0.73820  0.26440  0.75820  Biso   1.000  H
  H873     1.0000 0.73560  0.26180  0.74180  Biso   1.000  H
  H874     1.0000 0.23820  0.73560  0.74180  Biso   1.000  H
  H875     1.0000 0.26180  0.76440  0.74180  Biso   1.000  H
  H876     1.0000 0.76180  0.23560  0.75820  Biso   1.000  H
  H877     1.0000 0.23560  0.76180  0.25820  Biso   1.000  H
  H878     1.0000 0.73560  0.23820  0.24180  Biso   1.000  H
  H879     1.0000 0.76440  0.26180  0.24180  Biso   1.000  H
  H880     1.0000 0.26180  0.73560  0.24180  Biso   1.000  H
  C449     1.0000 0.28400  0.64660  0.25000  Biso   1.000  C
  C450     1.0000 0.85340  0.28400  0.25000  Biso   1.000  C
  C451     1.0000 0.64660  0.21600  0.25000  Biso   1.000  C
  C452     1.0000 0.14660  0.78400  0.25000  Biso   1.000  C
  C453     1.0000 0.78400  0.14660  0.75000  Biso   1.000  C
  C454     1.0000 0.28400  0.85340  0.75000  Biso   1.000  C
  C455     1.0000 0.21600  0.64660  0.75000  Biso   1.000  C
  C456     1.0000 0.64660  0.28400  0.75000  Biso   1.000  C
  C457     1.0000 0.71600  0.35340  0.75000  Biso   1.000  C
  C458     1.0000 0.14660  0.71600  0.75000  Biso   1.000  C
  C459     1.0000 0.35340  0.78400  0.75000  Biso   1.000  C
  C460     1.0000 0.85340  0.21600  0.75000  Biso   1.000  C
  C461     1.0000 0.21600  0.85340  0.25000  Biso   1.000  C
  C462     1.0000 0.71600  0.14660  0.25000  Biso   1.000  C
  C463     1.0000 0.78400  0.35340  0.25000  Biso   1.000  C
  C464     1.0000 0.35340  0.71600  0.25000  Biso   1.000  C
  H881     1.0000 0.23000  0.63960  0.24880  Biso   1.000  H
  H882     1.0000 0.86040  0.23000  0.24880  Biso   1.000  H
  H883     1.0000 0.63960  0.27000  0.24880  Biso   1.000  H
  H884     1.0000 0.13960  0.73000  0.25120  Biso   1.000  H
  H885     1.0000 0.73000  0.13960  0.75120  Biso   1.000  H
  H886     1.0000 0.23000  0.86040  0.74880  Biso   1.000  H
  H887     1.0000 0.27000  0.63960  0.74880  Biso   1.000  H
  H888     1.0000 0.63960  0.23000  0.74880  Biso   1.000  H
  H889     1.0000 0.77000  0.36040  0.75120  Biso   1.000  H
  H890     1.0000 0.13960  0.77000  0.75120  Biso   1.000  H
  H891     1.0000 0.36040  0.73000  0.75120  Biso   1.000  H
  H892     1.0000 0.86040  0.27000  0.74880  Biso   1.000  H
  H893     1.0000 0.27000  0.86040  0.24880  Biso   1.000  H
  H894     1.0000 0.77000  0.13960  0.25120  Biso   1.000  H
  H895     1.0000 0.73000  0.36040  0.25120  Biso   1.000  H
  H896     1.0000 0.36040  0.77000  0.25120  Biso   1.000  H
  H897     1.0000 0.30360  0.62050  0.27080  Biso   1.000  H
  H898     1.0000 0.87950  0.30360  0.27080  Biso   1.000  H
  H899     1.0000 0.62050  0.19640  0.27080  Biso   1.000  H
  H900     1.0000 0.12050  0.80360  0.22920  Biso   1.000  H
  H901     1.0000 0.80360  0.12050  0.72920  Biso   1.000  H
  H902     1.0000 0.30360  0.87950  0.77080  Biso   1.000  H
  H903     1.0000 0.19640  0.62050  0.77080  Biso   1.000  H
  H904     1.0000 0.62050  0.30360  0.77080  Biso   1.000  H
  H905     1.0000 0.69640  0.37950  0.72920  Biso   1.000  H
  H906     1.0000 0.12050  0.69640  0.72920  Biso   1.000  H
  H907     1.0000 0.37950  0.80360  0.72920  Biso   1.000  H
  H908     1.0000 0.87950  0.19640  0.77080  Biso   1.000  H
  H909     1.0000 0.19640  0.87950  0.27080  Biso   1.000  H
  H910     1.0000 0.69640  0.12050  0.22920  Biso   1.000  H
  H911     1.0000 0.80360  0.37950  0.22920  Biso   1.000  H
  H912     1.0000 0.37950  0.69640  0.22920  Biso   1.000  H
  H913     1.0000 0.30710  0.62660  0.22860  Biso   1.000  H
  H914     1.0000 0.87340  0.30710  0.22860  Biso   1.000  H
  H915     1.0000 0.62660  0.19290  0.22860  Biso   1.000  H
  H916     1.0000 0.12660  0.80710  0.27140  Biso   1.000  H
  H917     1.0000 0.80710  0.12660  0.77140  Biso   1.000  H
  H918     1.0000 0.30710  0.87340  0.72860  Biso   1.000  H
  H919     1.0000 0.19290  0.62660  0.72860  Biso   1.000  H
  H920     1.0000 0.62660  0.30710  0.72860  Biso   1.000  H
  H921     1.0000 0.69290  0.37340  0.77140  Biso   1.000  H
  H922     1.0000 0.12660  0.69290  0.77140  Biso   1.000  H
  H923     1.0000 0.37340  0.80710  0.77140  Biso   1.000  H
  H924     1.0000 0.87340  0.19290  0.72860  Biso   1.000  H
  H925     1.0000 0.19290  0.87340  0.22860  Biso   1.000  H
  H926     1.0000 0.69290  0.12660  0.27140  Biso   1.000  H
  H927     1.0000 0.80710  0.37340  0.27140  Biso   1.000  H
  H928     1.0000 0.37340  0.69290  0.27140  Biso   1.000  H
  O81      1.0000 0.16050  0.61550  0.24420  Biso   1.000  O
  O82      1.0000 0.88450  0.16050  0.24420  Biso   1.000  O
  O83      1.0000 0.61550  0.33950  0.24420  Biso   1.000  O
  O84      1.0000 0.11550  0.66050  0.25580  Biso   1.000  O
  O85      1.0000 0.66050  0.11550  0.75580  Biso   1.000  O
  O86      1.0000 0.16050  0.88450  0.74420  Biso   1.000  O
  O87      1.0000 0.33950  0.61550  0.74420  Biso   1.000  O
  O88      1.0000 0.61550  0.16050  0.74420  Biso   1.000  O
  O89      1.0000 0.83950  0.38450  0.75580  Biso   1.000  O
  O90      1.0000 0.11550  0.83950  0.75580  Biso   1.000  O
  O91      1.0000 0.38450  0.66050  0.75580  Biso   1.000  O
  O92      1.0000 0.88450  0.33950  0.74420  Biso   1.000  O
  O93      1.0000 0.33950  0.88450  0.24420  Biso   1.000  O
  O94      1.0000 0.83950  0.11550  0.25580  Biso   1.000  O
  O95      1.0000 0.66050  0.38450  0.25580  Biso   1.000  O
  O96      1.0000 0.38450  0.83950  0.25580  Biso   1.000  O
  H929     1.0000 0.16960  0.65500  0.23320  Biso   1.000  H
  H930     1.0000 0.84500  0.16960  0.23320  Biso   1.000  H
  H931     1.0000 0.65500  0.33040  0.23320  Biso   1.000  H
  H932     1.0000 0.15500  0.66960  0.26680  Biso   1.000  H
  H933     1.0000 0.66960  0.15500  0.76680  Biso   1.000  H
  H934     1.0000 0.16960  0.84500  0.73320  Biso   1.000  H
  H935     1.0000 0.33040  0.65500  0.73320  Biso   1.000  H
  H936     1.0000 0.65500  0.16960  0.73320  Biso   1.000  H
  H937     1.0000 0.83040  0.34500  0.76680  Biso   1.000  H
  H938     1.0000 0.15500  0.83040  0.76680  Biso   1.000  H
  H939     1.0000 0.34500  0.66960  0.76680  Biso   1.000  H
  H940     1.0000 0.84500  0.33040  0.73320  Biso   1.000  H
  H941     1.0000 0.33040  0.84500  0.23320  Biso   1.000  H
  H942     1.0000 0.83040  0.15500  0.26680  Biso   1.000  H
  H943     1.0000 0.66960  0.34500  0.26680  Biso   1.000  H
  H944     1.0000 0.34500  0.83040  0.26680  Biso   1.000  H
  C465     1.0000 0.08630  0.61830  0.25000  Biso   1.000  C
  C466     1.0000 0.88170  0.08630  0.25000  Biso   1.000  C
  C467     1.0000 0.61830  0.41370  0.25000  Biso   1.000  C
  C468     1.0000 0.11830  0.58630  0.25000  Biso   1.000  C
  C469     1.0000 0.58630  0.11830  0.75000  Biso   1.000  C
  C470     1.0000 0.08630  0.88170  0.75000  Biso   1.000  C
  C471     1.0000 0.41370  0.61830  0.75000  Biso   1.000  C
  C472     1.0000 0.61830  0.08630  0.75000  Biso   1.000  C
  C473     1.0000 0.91370  0.38170  0.75000  Biso   1.000  C
  C474     1.0000 0.11830  0.91370  0.75000  Biso   1.000  C
  C475     1.0000 0.38170  0.58630  0.75000  Biso   1.000  C
  C476     1.0000 0.88170  0.41370  0.75000  Biso   1.000  C
  C477     1.0000 0.41370  0.88170  0.25000  Biso   1.000  C
  C478     1.0000 0.91370  0.11830  0.25000  Biso   1.000  C
  C479     1.0000 0.58630  0.38170  0.25000  Biso   1.000  C
  C480     1.0000 0.38170  0.91370  0.25000  Biso   1.000  C
  H945     1.0000 0.08050  0.59860  0.27400  Biso   1.000  H
  H946     1.0000 0.90140  0.08050  0.27400  Biso   1.000  H
  H947     1.0000 0.59860  0.41950  0.27400  Biso   1.000  H
  H948     1.0000 0.09860  0.58050  0.22600  Biso   1.000  H
  H949     1.0000 0.58050  0.09860  0.72600  Biso   1.000  H
  H950     1.0000 0.08050  0.90140  0.77400  Biso   1.000  H
  H951     1.0000 0.41950  0.59860  0.77400  Biso   1.000  H
  H952     1.0000 0.59860  0.08050  0.77400  Biso   1.000  H
  H953     1.0000 0.91950  0.40140  0.72600  Biso   1.000  H
  H954     1.0000 0.09860  0.91950  0.72600  Biso   1.000  H
  H955     1.0000 0.40140  0.58050  0.72600  Biso   1.000  H
  H956     1.0000 0.90140  0.41950  0.77400  Biso   1.000  H
  H957     1.0000 0.41950  0.90140  0.27400  Biso   1.000  H
  H958     1.0000 0.91950  0.09860  0.22600  Biso   1.000  H
  H959     1.0000 0.58050  0.40140  0.22600  Biso   1.000  H
  H960     1.0000 0.40140  0.91950  0.22600  Biso   1.000  H
  H961     1.0000 0.06020  0.58610  0.23320  Biso   1.000  H
  H962     1.0000 0.91390  0.06020  0.23320  Biso   1.000  H
  H963     1.0000 0.58610  0.43980  0.23320  Biso   1.000  H
  H964     1.0000 0.08610  0.56020  0.26680  Biso   1.000  H
  H965     1.0000 0.56020  0.08610  0.76680  Biso   1.000  H
  H966     1.0000 0.06020  0.91390  0.73320  Biso   1.000  H
  H967     1.0000 0.43980  0.58610  0.73320  Biso   1.000  H
  H968     1.0000 0.58610  0.06020  0.73320  Biso   1.000  H
  H969     1.0000 0.93980  0.41390  0.76680  Biso   1.000  H
  H970     1.0000 0.08610  0.93980  0.76680  Biso   1.000  H
  H971     1.0000 0.41390  0.56020  0.76680  Biso   1.000  H
  H972     1.0000 0.91390  0.43980  0.73320  Biso   1.000  H
  H973     1.0000 0.43980  0.91390  0.23320  Biso   1.000  H
  H974     1.0000 0.93980  0.08610  0.26680  Biso   1.000  H
  H975     1.0000 0.56020  0.41390  0.26680  Biso   1.000  H
  H976     1.0000 0.41390  0.93980  0.26680  Biso   1.000  H
  H977     1.0000 0.06530  0.66850  0.24890  Biso   1.000  H
  H978     1.0000 0.83150  0.06530  0.24890  Biso   1.000  H
  H979     1.0000 0.66850  0.43470  0.24890  Biso   1.000  H
  H980     1.0000 0.16850  0.56530  0.25110  Biso   1.000  H
  H981     1.0000 0.56530  0.16850  0.75110  Biso   1.000  H
  H982     1.0000 0.06530  0.83150  0.74890  Biso   1.000  H
  H983     1.0000 0.43470  0.66850  0.74890  Biso   1.000  H
  H984     1.0000 0.66850  0.06530  0.74890  Biso   1.000  H
  H985     1.0000 0.93470  0.33150  0.75110  Biso   1.000  H
  H986     1.0000 0.16850  0.93470  0.75110  Biso   1.000  H
  H987     1.0000 0.33150  0.56530  0.75110  Biso   1.000  H
  H988     1.0000 0.83150  0.43470  0.74890  Biso   1.000  H
  H989     1.0000 0.43470  0.83150  0.24890  Biso   1.000  H
  H990     1.0000 0.93470  0.16850  0.25110  Biso   1.000  H
  H991     1.0000 0.56530  0.33150  0.25110  Biso   1.000  H
  H992     1.0000 0.33150  0.93470  0.25110  Biso   1.000  H
  O97      1.0000 0.19480  0.28250  0.51110  Biso   1.000  O
  O98      1.0000 0.21750  0.19480  0.51110  Biso   1.000  O
  O99      1.0000 0.28250  0.30520  0.51110  Biso   1.000  O
  O100     1.0000 0.78250  0.69480  0.98890  Biso   1.000  O
  O101     1.0000 0.69480  0.78250  0.48890  Biso   1.000  O
  O102     1.0000 0.19480  0.21750  0.01110  Biso   1.000  O
  O103     1.0000 0.30520  0.28250  0.01110  Biso   1.000  O
  O104     1.0000 0.28250  0.19480  0.01110  Biso   1.000  O
  O105     1.0000 0.80520  0.71750  0.48890  Biso   1.000  O
  O106     1.0000 0.78250  0.80520  0.48890  Biso   1.000  O
  O107     1.0000 0.71750  0.69480  0.48890  Biso   1.000  O
  O108     1.0000 0.21750  0.30520  0.01110  Biso   1.000  O
  O109     1.0000 0.30520  0.21750  0.51110  Biso   1.000  O
  O110     1.0000 0.80520  0.78250  0.98890  Biso   1.000  O
  O111     1.0000 0.69480  0.71750  0.98890  Biso   1.000  O
  O112     1.0000 0.71750  0.80520  0.98890  Biso   1.000  O
  H993     1.0000 0.16320  0.25030  0.51690  Biso   1.000  H
  H994     1.0000 0.24970  0.16320  0.51690  Biso   1.000  H
  H995     1.0000 0.25030  0.33680  0.51690  Biso   1.000  H
  H996     1.0000 0.75030  0.66320  0.98310  Biso   1.000  H
  H997     1.0000 0.66320  0.75030  0.48310  Biso   1.000  H
  H998     1.0000 0.16320  0.24970  0.01690  Biso   1.000  H
  H999     1.0000 0.33680  0.25030  0.01690  Biso   1.000  H
  H1000    1.0000 0.25030  0.16320  0.01690  Biso   1.000  H
  H1001    1.0000 0.83680  0.74970  0.48310  Biso   1.000  H
  H1002    1.0000 0.75030  0.83680  0.48310  Biso   1.000  H
  H1003    1.0000 0.74970  0.66320  0.48310  Biso   1.000  H
  H1004    1.0000 0.24970  0.33680  0.01690  Biso   1.000  H
  H1005    1.0000 0.33680  0.24970  0.51690  Biso   1.000  H
  H1006    1.0000 0.83680  0.75030  0.98310  Biso   1.000  H
  H1007    1.0000 0.66320  0.74970  0.98310  Biso   1.000  H
  H1008    1.0000 0.74970  0.83680  0.98310  Biso   1.000  H
  C481     1.0000 0.25000  0.25000  0.49280  Biso   1.000  C
  C482     1.0000 0.75000  0.75000  0.00720  Biso   1.000  C
  C483     1.0000 0.75000  0.75000  0.50720  Biso   1.000  C
  C484     1.0000 0.25000  0.25000  0.99280  Biso   1.000  C
  H1009    1.0000 0.27020  0.28530  0.47550  Biso   1.000  H
  H1010    1.0000 0.21470  0.27020  0.47550  Biso   1.000  H
  H1011    1.0000 0.28530  0.22980  0.47550  Biso   1.000  H
  H1012    1.0000 0.78530  0.77020  0.02450  Biso   1.000  H
  H1013    1.0000 0.77020  0.78530  0.52450  Biso   1.000  H
  H1014    1.0000 0.27020  0.21470  0.97550  Biso   1.000  H
  H1015    1.0000 0.22980  0.28530  0.97550  Biso   1.000  H
  H1016    1.0000 0.28530  0.27020  0.97550  Biso   1.000  H
  H1017    1.0000 0.72980  0.71470  0.52450  Biso   1.000  H
  H1018    1.0000 0.78530  0.72980  0.52450  Biso   1.000  H
  H1019    1.0000 0.71470  0.77020  0.52450  Biso   1.000  H
  H1020    1.0000 0.21470  0.22980  0.97550  Biso   1.000  H
  H1021    1.0000 0.22980  0.21470  0.47550  Biso   1.000  H
  H1022    1.0000 0.72980  0.78530  0.02450  Biso   1.000  H
  H1023    1.0000 0.77020  0.71470  0.02450  Biso   1.000  H
  H1024    1.0000 0.71470  0.72980  0.02450  Biso   1.000  H
  H1025    1.0000 0.23060  0.20630  0.48030  Biso   1.000  H
  H1026    1.0000 0.29370  0.23060  0.48030  Biso   1.000  H
  H1027    1.0000 0.20630  0.26940  0.48030  Biso   1.000  H
  H1028    1.0000 0.70630  0.73060  0.01970  Biso   1.000  H
  H1029    1.0000 0.73060  0.70630  0.51970  Biso   1.000  H
  H1030    1.0000 0.23060  0.29370  0.98030  Biso   1.000  H
  H1031    1.0000 0.26940  0.20630  0.98030  Biso   1.000  H
  H1032    1.0000 0.20630  0.23060  0.98030  Biso   1.000  H
  H1033    1.0000 0.76940  0.79370  0.51970  Biso   1.000  H
  H1034    1.0000 0.70630  0.76940  0.51970  Biso   1.000  H
  H1035    1.0000 0.79370  0.73060  0.51970  Biso   1.000  H
  H1036    1.0000 0.29370  0.26940  0.98030  Biso   1.000  H
  H1037    1.0000 0.26940  0.29370  0.48030  Biso   1.000  H
  H1038    1.0000 0.76940  0.70630  0.01970  Biso   1.000  H
  H1039    1.0000 0.73060  0.79370  0.01970  Biso   1.000  H
  H1040    1.0000 0.79370  0.76940  0.01970  Biso   1.000  H
  H1041    1.0000 0.28940  0.23470  0.50910  Biso   1.000  H
  H1042    1.0000 0.26530  0.28940  0.50910  Biso   1.000  H
  H1043    1.0000 0.23470  0.21060  0.50910  Biso   1.000  H
  H1044    1.0000 0.73470  0.78940  0.99090  Biso   1.000  H
  H1045    1.0000 0.78940  0.73470  0.49090  Biso   1.000  H
  H1046    1.0000 0.28940  0.26530  0.00910  Biso   1.000  H
  H1047    1.0000 0.21060  0.23470  0.00910  Biso   1.000  H
  H1048    1.0000 0.23470  0.28940  0.00910  Biso   1.000  H
  H1049    1.0000 0.71060  0.76530  0.49090  Biso   1.000  H
  H1050    1.0000 0.73470  0.71060  0.49090  Biso   1.000  H
  H1051    1.0000 0.76530  0.78940  0.49090  Biso   1.000  H
  H1052    1.0000 0.26530  0.21060  0.00910  Biso   1.000  H
  H1053    1.0000 0.21060  0.26530  0.50910  Biso   1.000  H
  H1054    1.0000 0.71060  0.73470  0.99090  Biso   1.000  H
  H1055    1.0000 0.78940  0.76530  0.99090  Biso   1.000  H
  H1056    1.0000 0.76530  0.71060  0.99090  Biso   1.000  H
