data_image0
_cell_length_a       38.052
_cell_length_b       38.052
_cell_length_c       38.052
_cell_angle_alpha    90
_cell_angle_beta     90
_cell_angle_gamma    90

_symmetry_space_group_name_H-M    "P 1"
_symmetry_int_tables_number       1

loop_
  _symmetry_equiv_pos_as_xyz
  'x, y, z'

loop_
  _atom_site_label
  _atom_site_occupancy
  _atom_site_fract_x
  _atom_site_fract_y
  _atom_site_fract_z
  _atom_site_thermal_displace_type
  _atom_site_B_iso_or_equiv
  _atom_site_type_symbol
  O1       1.0000 0.27328  0.03650  0.27737  Biso   1.000  O
  O2       1.0000 0.22672  0.96350  0.77737  Biso   1.000  O
  O3       1.0000 0.72672  0.53650  0.22263  Biso   1.000  O
  O4       1.0000 0.77328  0.46350  0.72263  Biso   1.000  O
  O5       1.0000 0.27737  0.27328  0.03650  Biso   1.000  O
  O6       1.0000 0.77737  0.22672  0.96350  Biso   1.000  O
  O7       1.0000 0.22263  0.72672  0.53650  Biso   1.000  O
  O8       1.0000 0.72263  0.77328  0.46350  Biso   1.000  O
  O9       1.0000 0.03650  0.27737  0.27328  Biso   1.000  O
  O10      1.0000 0.96350  0.77737  0.22672  Biso   1.000  O
  O11      1.0000 0.53650  0.22263  0.72672  Biso   1.000  O
  O12      1.0000 0.46350  0.72263  0.77328  Biso   1.000  O
  O13      1.0000 0.28650  0.52328  0.52737  Biso   1.000  O
  O14      1.0000 0.21350  0.47672  0.02737  Biso   1.000  O
  O15      1.0000 0.78650  0.97672  0.47263  Biso   1.000  O
  O16      1.0000 0.71350  0.02328  0.97263  Biso   1.000  O
  O17      1.0000 0.52328  0.52737  0.28650  Biso   1.000  O
  O18      1.0000 0.47672  0.02737  0.21350  Biso   1.000  O
  O19      1.0000 0.97672  0.47263  0.78650  Biso   1.000  O
  O20      1.0000 0.02328  0.97263  0.71350  Biso   1.000  O
  O21      1.0000 0.52737  0.28650  0.52328  Biso   1.000  O
  O22      1.0000 0.02737  0.21350  0.47672  Biso   1.000  O
  O23      1.0000 0.47263  0.78650  0.97672  Biso   1.000  O
  O24      1.0000 0.97263  0.71350  0.02328  Biso   1.000  O
  O25      1.0000 0.77328  0.53650  0.77737  Biso   1.000  O
  O26      1.0000 0.72672  0.46350  0.27737  Biso   1.000  O
  O27      1.0000 0.22672  0.03650  0.72263  Biso   1.000  O
  O28      1.0000 0.27328  0.96350  0.22263  Biso   1.000  O
  O29      1.0000 0.77737  0.77328  0.53650  Biso   1.000  O
  O30      1.0000 0.27737  0.72672  0.46350  Biso   1.000  O
  O31      1.0000 0.72263  0.22672  0.03650  Biso   1.000  O
  O32      1.0000 0.22263  0.27328  0.96350  Biso   1.000  O
  O33      1.0000 0.53650  0.77737  0.77328  Biso   1.000  O
  O34      1.0000 0.46350  0.27737  0.72672  Biso   1.000  O
  O35      1.0000 0.03650  0.72263  0.22672  Biso   1.000  O
  O36      1.0000 0.96350  0.22263  0.27328  Biso   1.000  O
  O37      1.0000 0.78650  0.02328  0.02737  Biso   1.000  O
  O38      1.0000 0.71350  0.97672  0.52737  Biso   1.000  O
  O39      1.0000 0.28650  0.47672  0.97263  Biso   1.000  O
  O40      1.0000 0.21350  0.52328  0.47263  Biso   1.000  O
  O41      1.0000 0.02328  0.02737  0.78650  Biso   1.000  O
  O42      1.0000 0.97672  0.52737  0.71350  Biso   1.000  O
  O43      1.0000 0.47672  0.97263  0.28650  Biso   1.000  O
  O44      1.0000 0.52328  0.47263  0.21350  Biso   1.000  O
  O45      1.0000 0.02737  0.78650  0.02328  Biso   1.000  O
  O46      1.0000 0.52737  0.71350  0.97672  Biso   1.000  O
  O47      1.0000 0.97263  0.28650  0.47672  Biso   1.000  O
  O48      1.0000 0.47263  0.21350  0.52328  Biso   1.000  O
  O49      1.0000 0.20011  0.03781  0.27678  Biso   1.000  O
  O50      1.0000 0.29989  0.96219  0.77678  Biso   1.000  O
  O51      1.0000 0.79989  0.53781  0.22322  Biso   1.000  O
  O52      1.0000 0.70011  0.46219  0.72322  Biso   1.000  O
  O53      1.0000 0.27678  0.20011  0.03781  Biso   1.000  O
  O54      1.0000 0.77678  0.29989  0.96219  Biso   1.000  O
  O55      1.0000 0.22322  0.79989  0.53781  Biso   1.000  O
  O56      1.0000 0.72322  0.70011  0.46219  Biso   1.000  O
  O57      1.0000 0.03781  0.27678  0.20011  Biso   1.000  O
  O58      1.0000 0.96219  0.77678  0.29989  Biso   1.000  O
  O59      1.0000 0.53781  0.22322  0.79989  Biso   1.000  O
  O60      1.0000 0.46219  0.72322  0.70011  Biso   1.000  O
  O61      1.0000 0.28781  0.45011  0.52678  Biso   1.000  O
  O62      1.0000 0.21219  0.54989  0.02678  Biso   1.000  O
  O63      1.0000 0.78781  0.04989  0.47322  Biso   1.000  O
  O64      1.0000 0.71219  0.95011  0.97322  Biso   1.000  O
  O65      1.0000 0.45011  0.52678  0.28781  Biso   1.000  O
  O66      1.0000 0.54989  0.02678  0.21219  Biso   1.000  O
  O67      1.0000 0.04989  0.47322  0.78781  Biso   1.000  O
  O68      1.0000 0.95011  0.97322  0.71219  Biso   1.000  O
  O69      1.0000 0.52678  0.28781  0.45011  Biso   1.000  O
  O70      1.0000 0.02678  0.21219  0.54989  Biso   1.000  O
  O71      1.0000 0.47322  0.78781  0.04989  Biso   1.000  O
  O72      1.0000 0.97322  0.71219  0.95011  Biso   1.000  O
  O73      1.0000 0.70011  0.53781  0.77678  Biso   1.000  O
  O74      1.0000 0.79989  0.46219  0.27678  Biso   1.000  O
  O75      1.0000 0.29989  0.03781  0.72322  Biso   1.000  O
  O76      1.0000 0.20011  0.96219  0.22322  Biso   1.000  O
  O77      1.0000 0.77678  0.70011  0.53781  Biso   1.000  O
  O78      1.0000 0.27678  0.79989  0.46219  Biso   1.000  O
  O79      1.0000 0.72322  0.29989  0.03781  Biso   1.000  O
  O80      1.0000 0.22322  0.20011  0.96219  Biso   1.000  O
  O81      1.0000 0.53781  0.77678  0.70011  Biso   1.000  O
  O82      1.0000 0.46219  0.27678  0.79989  Biso   1.000  O
  O83      1.0000 0.03781  0.72322  0.29989  Biso   1.000  O
  O84      1.0000 0.96219  0.22322  0.20011  Biso   1.000  O
  O85      1.0000 0.78781  0.95011  0.02678  Biso   1.000  O
  O86      1.0000 0.71219  0.04989  0.52678  Biso   1.000  O
  O87      1.0000 0.28781  0.54989  0.97322  Biso   1.000  O
  O88      1.0000 0.21219  0.45011  0.47322  Biso   1.000  O
  O89      1.0000 0.95011  0.02678  0.78781  Biso   1.000  O
  O90      1.0000 0.04989  0.52678  0.71219  Biso   1.000  O
  O91      1.0000 0.54989  0.97322  0.28781  Biso   1.000  O
  O92      1.0000 0.45011  0.47322  0.21219  Biso   1.000  O
  O93      1.0000 0.02678  0.78781  0.95011  Biso   1.000  O
  O94      1.0000 0.52678  0.71219  0.04989  Biso   1.000  O
  O95      1.0000 0.97322  0.28781  0.54989  Biso   1.000  O
  O96      1.0000 0.47322  0.21219  0.45011  Biso   1.000  O
  O97      1.0000 0.28561  0.02867  0.97397  Biso   1.000  O
  O98      1.0000 0.21439  0.97133  0.47397  Biso   1.000  O
  O99      1.0000 0.71439  0.52867  0.52603  Biso   1.000  O
  O100     1.0000 0.78561  0.47133  0.02603  Biso   1.000  O
  O101     1.0000 0.97397  0.28561  0.02867  Biso   1.000  O
  O102     1.0000 0.47397  0.21439  0.97133  Biso   1.000  O
  O103     1.0000 0.52603  0.71439  0.52867  Biso   1.000  O
  O104     1.0000 0.02603  0.78561  0.47133  Biso   1.000  O
  O105     1.0000 0.02867  0.97397  0.28561  Biso   1.000  O
  O106     1.0000 0.97133  0.47397  0.21439  Biso   1.000  O
  O107     1.0000 0.52867  0.52603  0.71439  Biso   1.000  O
  O108     1.0000 0.47133  0.02603  0.78561  Biso   1.000  O
  O109     1.0000 0.27867  0.53561  0.22397  Biso   1.000  O
  O110     1.0000 0.22133  0.46439  0.72397  Biso   1.000  O
  O111     1.0000 0.77867  0.96439  0.77603  Biso   1.000  O
  O112     1.0000 0.72133  0.03561  0.27603  Biso   1.000  O
  O113     1.0000 0.53561  0.22397  0.27867  Biso   1.000  O
  O114     1.0000 0.46439  0.72397  0.22133  Biso   1.000  O
  O115     1.0000 0.96439  0.77603  0.77867  Biso   1.000  O
  O116     1.0000 0.03561  0.27603  0.72133  Biso   1.000  O
  O117     1.0000 0.22397  0.27867  0.53561  Biso   1.000  O
  O118     1.0000 0.72397  0.22133  0.46439  Biso   1.000  O
  O119     1.0000 0.77603  0.77867  0.96439  Biso   1.000  O
  O120     1.0000 0.27603  0.72133  0.03561  Biso   1.000  O
  O121     1.0000 0.78561  0.52867  0.47397  Biso   1.000  O
  O122     1.0000 0.71439  0.47133  0.97397  Biso   1.000  O
  O123     1.0000 0.21439  0.02867  0.02603  Biso   1.000  O
  O124     1.0000 0.28561  0.97133  0.52603  Biso   1.000  O
  O125     1.0000 0.47397  0.78561  0.52867  Biso   1.000  O
  O126     1.0000 0.97397  0.71439  0.47133  Biso   1.000  O
  O127     1.0000 0.02603  0.21439  0.02867  Biso   1.000  O
  O128     1.0000 0.52603  0.28561  0.97133  Biso   1.000  O
  O129     1.0000 0.52867  0.47397  0.78561  Biso   1.000  O
  O130     1.0000 0.47133  0.97397  0.71439  Biso   1.000  O
  O131     1.0000 0.02867  0.02603  0.21439  Biso   1.000  O
  O132     1.0000 0.97133  0.52603  0.28561  Biso   1.000  O
  O133     1.0000 0.77867  0.03561  0.72397  Biso   1.000  O
  O134     1.0000 0.72133  0.96439  0.22397  Biso   1.000  O
  O135     1.0000 0.27867  0.46439  0.27603  Biso   1.000  O
  O136     1.0000 0.22133  0.53561  0.77603  Biso   1.000  O
  O137     1.0000 0.03561  0.72397  0.77867  Biso   1.000  O
  O138     1.0000 0.96439  0.22397  0.72133  Biso   1.000  O
  O139     1.0000 0.46439  0.27603  0.27867  Biso   1.000  O
  O140     1.0000 0.53561  0.77603  0.22133  Biso   1.000  O
  O141     1.0000 0.72397  0.77867  0.03561  Biso   1.000  O
  O142     1.0000 0.22397  0.72133  0.96439  Biso   1.000  O
  O143     1.0000 0.27603  0.27867  0.46439  Biso   1.000  O
  O144     1.0000 0.77603  0.22133  0.53561  Biso   1.000  O
  O145     1.0000 0.21785  0.95011  0.96988  Biso   1.000  O
  O146     1.0000 0.28215  0.04989  0.46988  Biso   1.000  O
  O147     1.0000 0.78215  0.45011  0.53012  Biso   1.000  O
  O148     1.0000 0.71785  0.54989  0.03012  Biso   1.000  O
  O149     1.0000 0.96988  0.21785  0.95011  Biso   1.000  O
  O150     1.0000 0.46988  0.28215  0.04989  Biso   1.000  O
  O151     1.0000 0.53012  0.78215  0.45011  Biso   1.000  O
  O152     1.0000 0.03012  0.71785  0.54989  Biso   1.000  O
  O153     1.0000 0.95011  0.96988  0.21785  Biso   1.000  O
  O154     1.0000 0.04989  0.46988  0.28215  Biso   1.000  O
  O155     1.0000 0.45011  0.53012  0.78215  Biso   1.000  O
  O156     1.0000 0.54989  0.03012  0.71785  Biso   1.000  O
  O157     1.0000 0.20011  0.46785  0.21988  Biso   1.000  O
  O158     1.0000 0.29989  0.53215  0.71988  Biso   1.000  O
  O159     1.0000 0.70011  0.03215  0.78012  Biso   1.000  O
  O160     1.0000 0.79989  0.96785  0.28012  Biso   1.000  O
  O161     1.0000 0.46785  0.21988  0.20011  Biso   1.000  O
  O162     1.0000 0.53215  0.71988  0.29989  Biso   1.000  O
  O163     1.0000 0.03215  0.78012  0.70011  Biso   1.000  O
  O164     1.0000 0.96785  0.28012  0.79989  Biso   1.000  O
  O165     1.0000 0.21988  0.20011  0.46785  Biso   1.000  O
  O166     1.0000 0.71988  0.29989  0.53215  Biso   1.000  O
  O167     1.0000 0.78012  0.70011  0.03215  Biso   1.000  O
  O168     1.0000 0.28012  0.79989  0.96785  Biso   1.000  O
  O169     1.0000 0.71785  0.45011  0.46988  Biso   1.000  O
  O170     1.0000 0.78215  0.54989  0.96988  Biso   1.000  O
  O171     1.0000 0.28215  0.95011  0.03012  Biso   1.000  O
  O172     1.0000 0.21785  0.04989  0.53012  Biso   1.000  O
  O173     1.0000 0.46988  0.71785  0.45011  Biso   1.000  O
  O174     1.0000 0.96988  0.78215  0.54989  Biso   1.000  O
  O175     1.0000 0.03012  0.28215  0.95011  Biso   1.000  O
  O176     1.0000 0.53012  0.21785  0.04989  Biso   1.000  O
  O177     1.0000 0.45011  0.46988  0.71785  Biso   1.000  O
  O178     1.0000 0.54989  0.96988  0.78215  Biso   1.000  O
  O179     1.0000 0.95011  0.03012  0.28215  Biso   1.000  O
  O180     1.0000 0.04989  0.53012  0.21785  Biso   1.000  O
  O181     1.0000 0.70011  0.96785  0.71988  Biso   1.000  O
  O182     1.0000 0.79989  0.03215  0.21988  Biso   1.000  O
  O183     1.0000 0.20011  0.53215  0.28012  Biso   1.000  O
  O184     1.0000 0.29989  0.46785  0.78012  Biso   1.000  O
  O185     1.0000 0.96785  0.71988  0.70011  Biso   1.000  O
  O186     1.0000 0.03215  0.21988  0.79989  Biso   1.000  O
  O187     1.0000 0.53215  0.28012  0.20011  Biso   1.000  O
  O188     1.0000 0.46785  0.78012  0.29989  Biso   1.000  O
  O189     1.0000 0.71988  0.70011  0.96785  Biso   1.000  O
  O190     1.0000 0.21988  0.79989  0.03215  Biso   1.000  O
  O191     1.0000 0.28012  0.20011  0.53215  Biso   1.000  O
  O192     1.0000 0.78012  0.29989  0.46785  Biso   1.000  O
  Cu1      1.0000 0.24804  0.98928  0.03321  Biso   1.000  Cu
  Cu2      1.0000 0.25196  0.01072  0.53321  Biso   1.000  Cu
  Cu3      1.0000 0.75196  0.48928  0.46679  Biso   1.000  Cu
  Cu4      1.0000 0.74804  0.51072  0.96679  Biso   1.000  Cu
  Cu5      1.0000 0.03321  0.24804  0.98928  Biso   1.000  Cu
  Cu6      1.0000 0.53321  0.25196  0.01072  Biso   1.000  Cu
  Cu7      1.0000 0.46679  0.75196  0.48928  Biso   1.000  Cu
  Cu8      1.0000 0.96679  0.74804  0.51072  Biso   1.000  Cu
  Cu9      1.0000 0.98928  0.03321  0.24804  Biso   1.000  Cu
  Cu10     1.0000 0.01072  0.53321  0.25196  Biso   1.000  Cu
  Cu11     1.0000 0.48928  0.46679  0.75196  Biso   1.000  Cu
  Cu12     1.0000 0.51072  0.96679  0.74804  Biso   1.000  Cu
  Cu13     1.0000 0.23928  0.49804  0.28321  Biso   1.000  Cu
  Cu14     1.0000 0.26072  0.50196  0.78321  Biso   1.000  Cu
  Cu15     1.0000 0.73928  0.00196  0.71679  Biso   1.000  Cu
  Cu16     1.0000 0.76072  0.99804  0.21679  Biso   1.000  Cu
  Cu17     1.0000 0.49804  0.28321  0.23928  Biso   1.000  Cu
  Cu18     1.0000 0.50196  0.78321  0.26072  Biso   1.000  Cu
  Cu19     1.0000 0.00196  0.71679  0.73928  Biso   1.000  Cu
  Cu20     1.0000 0.99804  0.21679  0.76072  Biso   1.000  Cu
  Cu21     1.0000 0.28321  0.23928  0.49804  Biso   1.000  Cu
  Cu22     1.0000 0.78321  0.26072  0.50196  Biso   1.000  Cu
  Cu23     1.0000 0.71679  0.73928  0.00196  Biso   1.000  Cu
  Cu24     1.0000 0.21679  0.76072  0.99804  Biso   1.000  Cu
  Cu25     1.0000 0.74804  0.48928  0.53321  Biso   1.000  Cu
  Cu26     1.0000 0.75196  0.51072  0.03321  Biso   1.000  Cu
  Cu27     1.0000 0.25196  0.98928  0.96679  Biso   1.000  Cu
  Cu28     1.0000 0.24804  0.01072  0.46679  Biso   1.000  Cu
  Cu29     1.0000 0.53321  0.74804  0.48928  Biso   1.000  Cu
  Cu30     1.0000 0.03321  0.75196  0.51072  Biso   1.000  Cu
  Cu31     1.0000 0.96679  0.25196  0.98928  Biso   1.000  Cu
  Cu32     1.0000 0.46679  0.24804  0.01072  Biso   1.000  Cu
  Cu33     1.0000 0.48928  0.53321  0.74804  Biso   1.000  Cu
  Cu34     1.0000 0.51072  0.03321  0.75196  Biso   1.000  Cu
  Cu35     1.0000 0.98928  0.96679  0.25196  Biso   1.000  Cu
  Cu36     1.0000 0.01072  0.46679  0.24804  Biso   1.000  Cu
  Cu37     1.0000 0.73928  0.99804  0.78321  Biso   1.000  Cu
  Cu38     1.0000 0.76072  0.00196  0.28321  Biso   1.000  Cu
  Cu39     1.0000 0.23928  0.50196  0.21679  Biso   1.000  Cu
  Cu40     1.0000 0.26072  0.49804  0.71679  Biso   1.000  Cu
  Cu41     1.0000 0.99804  0.78321  0.73928  Biso   1.000  Cu
  Cu42     1.0000 0.00196  0.28321  0.76072  Biso   1.000  Cu
  Cu43     1.0000 0.50196  0.21679  0.23928  Biso   1.000  Cu
  Cu44     1.0000 0.49804  0.71679  0.26072  Biso   1.000  Cu
  Cu45     1.0000 0.78321  0.73928  0.99804  Biso   1.000  Cu
  Cu46     1.0000 0.28321  0.76072  0.00196  Biso   1.000  Cu
  Cu47     1.0000 0.21679  0.23928  0.50196  Biso   1.000  Cu
  Cu48     1.0000 0.71679  0.26072  0.49804  Biso   1.000  Cu
  Cu49     1.0000 0.23608  0.99882  0.21676  Biso   1.000  Cu
  Cu50     1.0000 0.26392  0.00118  0.71676  Biso   1.000  Cu
  Cu51     1.0000 0.76392  0.49882  0.28324  Biso   1.000  Cu
  Cu52     1.0000 0.73608  0.50118  0.78324  Biso   1.000  Cu
  Cu53     1.0000 0.21676  0.23608  0.99882  Biso   1.000  Cu
  Cu54     1.0000 0.71676  0.26392  0.00118  Biso   1.000  Cu
  Cu55     1.0000 0.28324  0.76392  0.49882  Biso   1.000  Cu
  Cu56     1.0000 0.78324  0.73608  0.50118  Biso   1.000  Cu
  Cu57     1.0000 0.99882  0.21676  0.23608  Biso   1.000  Cu
  Cu58     1.0000 0.00118  0.71676  0.26392  Biso   1.000  Cu
  Cu59     1.0000 0.49882  0.28324  0.76392  Biso   1.000  Cu
  Cu60     1.0000 0.50118  0.78324  0.73608  Biso   1.000  Cu
  Cu61     1.0000 0.24882  0.48608  0.46676  Biso   1.000  Cu
  Cu62     1.0000 0.25118  0.51392  0.96676  Biso   1.000  Cu
  Cu63     1.0000 0.74882  0.01392  0.53324  Biso   1.000  Cu
  Cu64     1.0000 0.75118  0.98608  0.03324  Biso   1.000  Cu
  Cu65     1.0000 0.48608  0.46676  0.24882  Biso   1.000  Cu
  Cu66     1.0000 0.51392  0.96676  0.25118  Biso   1.000  Cu
  Cu67     1.0000 0.01392  0.53324  0.74882  Biso   1.000  Cu
  Cu68     1.0000 0.98608  0.03324  0.75118  Biso   1.000  Cu
  Cu69     1.0000 0.46676  0.24882  0.48608  Biso   1.000  Cu
  Cu70     1.0000 0.96676  0.25118  0.51392  Biso   1.000  Cu
  Cu71     1.0000 0.53324  0.74882  0.01392  Biso   1.000  Cu
  Cu72     1.0000 0.03324  0.75118  0.98608  Biso   1.000  Cu
  Cu73     1.0000 0.73608  0.49882  0.71676  Biso   1.000  Cu
  Cu74     1.0000 0.76392  0.50118  0.21676  Biso   1.000  Cu
  Cu75     1.0000 0.26392  0.99882  0.78324  Biso   1.000  Cu
  Cu76     1.0000 0.23608  0.00118  0.28324  Biso   1.000  Cu
  Cu77     1.0000 0.71676  0.73608  0.49882  Biso   1.000  Cu
  Cu78     1.0000 0.21676  0.76392  0.50118  Biso   1.000  Cu
  Cu79     1.0000 0.78324  0.26392  0.99882  Biso   1.000  Cu
  Cu80     1.0000 0.28324  0.23608  0.00118  Biso   1.000  Cu
  Cu81     1.0000 0.49882  0.71676  0.73608  Biso   1.000  Cu
  Cu82     1.0000 0.50118  0.21676  0.76392  Biso   1.000  Cu
  Cu83     1.0000 0.99882  0.78324  0.26392  Biso   1.000  Cu
  Cu84     1.0000 0.00118  0.28324  0.23608  Biso   1.000  Cu
  Cu85     1.0000 0.74882  0.98608  0.96676  Biso   1.000  Cu
  Cu86     1.0000 0.75118  0.01392  0.46676  Biso   1.000  Cu
  Cu87     1.0000 0.24882  0.51392  0.03324  Biso   1.000  Cu
  Cu88     1.0000 0.25118  0.48608  0.53324  Biso   1.000  Cu
  Cu89     1.0000 0.98608  0.96676  0.74882  Biso   1.000  Cu
  Cu90     1.0000 0.01392  0.46676  0.75118  Biso   1.000  Cu
  Cu91     1.0000 0.51392  0.03324  0.24882  Biso   1.000  Cu
  Cu92     1.0000 0.48608  0.53324  0.25118  Biso   1.000  Cu
  Cu93     1.0000 0.96676  0.74882  0.98608  Biso   1.000  Cu
  Cu94     1.0000 0.46676  0.75118  0.01392  Biso   1.000  Cu
  Cu95     1.0000 0.03324  0.24882  0.51392  Biso   1.000  Cu
  Cu96     1.0000 0.53324  0.25118  0.48608  Biso   1.000  Cu
  O193     1.0000 0.27220  0.03614  0.21890  Biso   1.000  O
  O194     1.0000 0.22780  0.96386  0.71890  Biso   1.000  O
  O195     1.0000 0.72780  0.53614  0.28110  Biso   1.000  O
  O196     1.0000 0.77220  0.46386  0.78110  Biso   1.000  O
  O197     1.0000 0.21890  0.27220  0.03614  Biso   1.000  O
  O198     1.0000 0.71890  0.22780  0.96386  Biso   1.000  O
  O199     1.0000 0.28110  0.72780  0.53614  Biso   1.000  O
  O200     1.0000 0.78110  0.77220  0.46386  Biso   1.000  O
  O201     1.0000 0.03614  0.21890  0.27220  Biso   1.000  O
  O202     1.0000 0.96386  0.71890  0.22780  Biso   1.000  O
  O203     1.0000 0.53614  0.28110  0.72780  Biso   1.000  O
  O204     1.0000 0.46386  0.78110  0.77220  Biso   1.000  O
  O205     1.0000 0.28614  0.52220  0.46890  Biso   1.000  O
  O206     1.0000 0.21386  0.47780  0.96890  Biso   1.000  O
  O207     1.0000 0.78614  0.97780  0.53110  Biso   1.000  O
  O208     1.0000 0.71386  0.02220  0.03110  Biso   1.000  O
  O209     1.0000 0.52220  0.46890  0.28614  Biso   1.000  O
  O210     1.0000 0.47780  0.96890  0.21386  Biso   1.000  O
  O211     1.0000 0.97780  0.53110  0.78614  Biso   1.000  O
  O212     1.0000 0.02220  0.03110  0.71386  Biso   1.000  O
  O213     1.0000 0.46890  0.28614  0.52220  Biso   1.000  O
  O214     1.0000 0.96890  0.21386  0.47780  Biso   1.000  O
  O215     1.0000 0.53110  0.78614  0.97780  Biso   1.000  O
  O216     1.0000 0.03110  0.71386  0.02220  Biso   1.000  O
  O217     1.0000 0.77220  0.53614  0.71890  Biso   1.000  O
  O218     1.0000 0.72780  0.46386  0.21890  Biso   1.000  O
  O219     1.0000 0.22780  0.03614  0.78110  Biso   1.000  O
  O220     1.0000 0.27220  0.96386  0.28110  Biso   1.000  O
  O221     1.0000 0.71890  0.77220  0.53614  Biso   1.000  O
  O222     1.0000 0.21890  0.72780  0.46386  Biso   1.000  O
  O223     1.0000 0.78110  0.22780  0.03614  Biso   1.000  O
  O224     1.0000 0.28110  0.27220  0.96386  Biso   1.000  O
  O225     1.0000 0.53614  0.71890  0.77220  Biso   1.000  O
  O226     1.0000 0.46386  0.21890  0.72780  Biso   1.000  O
  O227     1.0000 0.03614  0.78110  0.22780  Biso   1.000  O
  O228     1.0000 0.96386  0.28110  0.27220  Biso   1.000  O
  O229     1.0000 0.78614  0.02220  0.96890  Biso   1.000  O
  O230     1.0000 0.71386  0.97780  0.46890  Biso   1.000  O
  O231     1.0000 0.28614  0.47780  0.03110  Biso   1.000  O
  O232     1.0000 0.21386  0.52220  0.53110  Biso   1.000  O
  O233     1.0000 0.02220  0.96890  0.78614  Biso   1.000  O
  O234     1.0000 0.97780  0.46890  0.71386  Biso   1.000  O
  O235     1.0000 0.47780  0.03110  0.28614  Biso   1.000  O
  O236     1.0000 0.52220  0.53110  0.21386  Biso   1.000  O
  O237     1.0000 0.96890  0.78614  0.02220  Biso   1.000  O
  O238     1.0000 0.46890  0.71386  0.97780  Biso   1.000  O
  O239     1.0000 0.03110  0.28614  0.47780  Biso   1.000  O
  O240     1.0000 0.53110  0.21386  0.52220  Biso   1.000  O
  O241     1.0000 0.20810  0.95703  0.02760  Biso   1.000  O
  O242     1.0000 0.29190  0.04297  0.52760  Biso   1.000  O
  O243     1.0000 0.79190  0.45703  0.47240  Biso   1.000  O
  O244     1.0000 0.70810  0.54297  0.97240  Biso   1.000  O
  O245     1.0000 0.02760  0.20810  0.95703  Biso   1.000  O
  O246     1.0000 0.52760  0.29190  0.04297  Biso   1.000  O
  O247     1.0000 0.47240  0.79190  0.45703  Biso   1.000  O
  O248     1.0000 0.97240  0.70810  0.54297  Biso   1.000  O
  O249     1.0000 0.95703  0.02760  0.20810  Biso   1.000  O
  O250     1.0000 0.04297  0.52760  0.29190  Biso   1.000  O
  O251     1.0000 0.45703  0.47240  0.79190  Biso   1.000  O
  O252     1.0000 0.54297  0.97240  0.70810  Biso   1.000  O
  O253     1.0000 0.20703  0.45810  0.27760  Biso   1.000  O
  O254     1.0000 0.29297  0.54190  0.77760  Biso   1.000  O
  O255     1.0000 0.70703  0.04190  0.72240  Biso   1.000  O
  O256     1.0000 0.79297  0.95810  0.22240  Biso   1.000  O
  O257     1.0000 0.45810  0.27760  0.20703  Biso   1.000  O
  O258     1.0000 0.54190  0.77760  0.29297  Biso   1.000  O
  O259     1.0000 0.04190  0.72240  0.70703  Biso   1.000  O
  O260     1.0000 0.95810  0.22240  0.79297  Biso   1.000  O
  O261     1.0000 0.27760  0.20703  0.45810  Biso   1.000  O
  O262     1.0000 0.77760  0.29297  0.54190  Biso   1.000  O
  O263     1.0000 0.72240  0.70703  0.04190  Biso   1.000  O
  O264     1.0000 0.22240  0.79297  0.95810  Biso   1.000  O
  O265     1.0000 0.70810  0.45703  0.52760  Biso   1.000  O
  O266     1.0000 0.79190  0.54297  0.02760  Biso   1.000  O
  O267     1.0000 0.29190  0.95703  0.97240  Biso   1.000  O
  O268     1.0000 0.20810  0.04297  0.47240  Biso   1.000  O
  O269     1.0000 0.52760  0.70810  0.45703  Biso   1.000  O
  O270     1.0000 0.02760  0.79190  0.54297  Biso   1.000  O
  O271     1.0000 0.97240  0.29190  0.95703  Biso   1.000  O
  O272     1.0000 0.47240  0.20810  0.04297  Biso   1.000  O
  O273     1.0000 0.45703  0.52760  0.70810  Biso   1.000  O
  O274     1.0000 0.54297  0.02760  0.79190  Biso   1.000  O
  O275     1.0000 0.95703  0.97240  0.29190  Biso   1.000  O
  O276     1.0000 0.04297  0.47240  0.20810  Biso   1.000  O
  O277     1.0000 0.70703  0.95810  0.77760  Biso   1.000  O
  O278     1.0000 0.79297  0.04190  0.27760  Biso   1.000  O
  O279     1.0000 0.20703  0.54190  0.22240  Biso   1.000  O
  O280     1.0000 0.29297  0.45810  0.72240  Biso   1.000  O
  O281     1.0000 0.95810  0.77760  0.70703  Biso   1.000  O
  O282     1.0000 0.04190  0.27760  0.79297  Biso   1.000  O
  O283     1.0000 0.54190  0.22240  0.20703  Biso   1.000  O
  O284     1.0000 0.45810  0.72240  0.29297  Biso   1.000  O
  O285     1.0000 0.77760  0.70703  0.95810  Biso   1.000  O
  O286     1.0000 0.27760  0.79297  0.04190  Biso   1.000  O
  O287     1.0000 0.22240  0.20703  0.54190  Biso   1.000  O
  O288     1.0000 0.72240  0.29297  0.45810  Biso   1.000  O
  O289     1.0000 0.19972  0.03527  0.21838  Biso   1.000  O
  O290     1.0000 0.30028  0.96473  0.71838  Biso   1.000  O
  O291     1.0000 0.80028  0.53527  0.28162  Biso   1.000  O
  O292     1.0000 0.69972  0.46473  0.78162  Biso   1.000  O
  O293     1.0000 0.21838  0.19972  0.03527  Biso   1.000  O
  O294     1.0000 0.71838  0.30028  0.96473  Biso   1.000  O
  O295     1.0000 0.28162  0.80028  0.53527  Biso   1.000  O
  O296     1.0000 0.78162  0.69972  0.46473  Biso   1.000  O
  O297     1.0000 0.03527  0.21838  0.19972  Biso   1.000  O
  O298     1.0000 0.96473  0.71838  0.30028  Biso   1.000  O
  O299     1.0000 0.53527  0.28162  0.80028  Biso   1.000  O
  O300     1.0000 0.46473  0.78162  0.69972  Biso   1.000  O
  O301     1.0000 0.28527  0.44972  0.46838  Biso   1.000  O
  O302     1.0000 0.21473  0.55028  0.96838  Biso   1.000  O
  O303     1.0000 0.78527  0.05028  0.53162  Biso   1.000  O
  O304     1.0000 0.71473  0.94972  0.03162  Biso   1.000  O
  O305     1.0000 0.44972  0.46838  0.28527  Biso   1.000  O
  O306     1.0000 0.55028  0.96838  0.21473  Biso   1.000  O
  O307     1.0000 0.05028  0.53162  0.78527  Biso   1.000  O
  O308     1.0000 0.94972  0.03162  0.71473  Biso   1.000  O
  O309     1.0000 0.46838  0.28527  0.44972  Biso   1.000  O
  O310     1.0000 0.96838  0.21473  0.55028  Biso   1.000  O
  O311     1.0000 0.53162  0.78527  0.05028  Biso   1.000  O
  O312     1.0000 0.03162  0.71473  0.94972  Biso   1.000  O
  O313     1.0000 0.69972  0.53527  0.71838  Biso   1.000  O
  O314     1.0000 0.80028  0.46473  0.21838  Biso   1.000  O
  O315     1.0000 0.30028  0.03527  0.78162  Biso   1.000  O
  O316     1.0000 0.19972  0.96473  0.28162  Biso   1.000  O
  O317     1.0000 0.71838  0.69972  0.53527  Biso   1.000  O
  O318     1.0000 0.21838  0.80028  0.46473  Biso   1.000  O
  O319     1.0000 0.78162  0.30028  0.03527  Biso   1.000  O
  O320     1.0000 0.28162  0.19972  0.96473  Biso   1.000  O
  O321     1.0000 0.53527  0.71838  0.69972  Biso   1.000  O
  O322     1.0000 0.46473  0.21838  0.80028  Biso   1.000  O
  O323     1.0000 0.03527  0.78162  0.30028  Biso   1.000  O
  O324     1.0000 0.96473  0.28162  0.19972  Biso   1.000  O
  O325     1.0000 0.78527  0.94972  0.96838  Biso   1.000  O
  O326     1.0000 0.71473  0.05028  0.46838  Biso   1.000  O
  O327     1.0000 0.28527  0.55028  0.03162  Biso   1.000  O
  O328     1.0000 0.21473  0.44972  0.53162  Biso   1.000  O
  O329     1.0000 0.94972  0.96838  0.78527  Biso   1.000  O
  O330     1.0000 0.05028  0.46838  0.71473  Biso   1.000  O
  O331     1.0000 0.55028  0.03162  0.28527  Biso   1.000  O
  O332     1.0000 0.44972  0.53162  0.21473  Biso   1.000  O
  O333     1.0000 0.96838  0.78527  0.94972  Biso   1.000  O
  O334     1.0000 0.46838  0.71473  0.05028  Biso   1.000  O
  O335     1.0000 0.03162  0.28527  0.55028  Biso   1.000  O
  O336     1.0000 0.53162  0.21473  0.44972  Biso   1.000  O
  O337     1.0000 0.28826  0.02128  0.03203  Biso   1.000  O
  O338     1.0000 0.21174  0.97872  0.53203  Biso   1.000  O
  O339     1.0000 0.71174  0.52128  0.46797  Biso   1.000  O
  O340     1.0000 0.78826  0.47872  0.96797  Biso   1.000  O
  O341     1.0000 0.03203  0.28826  0.02128  Biso   1.000  O
  O342     1.0000 0.53203  0.21174  0.97872  Biso   1.000  O
  O343     1.0000 0.46797  0.71174  0.52128  Biso   1.000  O
  O344     1.0000 0.96797  0.78826  0.47872  Biso   1.000  O
  O345     1.0000 0.02128  0.03203  0.28826  Biso   1.000  O
  O346     1.0000 0.97872  0.53203  0.21174  Biso   1.000  O
  O347     1.0000 0.52128  0.46797  0.71174  Biso   1.000  O
  O348     1.0000 0.47872  0.96797  0.78826  Biso   1.000  O
  O349     1.0000 0.27128  0.53826  0.28203  Biso   1.000  O
  O350     1.0000 0.22872  0.46174  0.78203  Biso   1.000  O
  O351     1.0000 0.77128  0.96174  0.71797  Biso   1.000  O
  O352     1.0000 0.72872  0.03826  0.21797  Biso   1.000  O
  O353     1.0000 0.53826  0.28203  0.27128  Biso   1.000  O
  O354     1.0000 0.46174  0.78203  0.22872  Biso   1.000  O
  O355     1.0000 0.96174  0.71797  0.77128  Biso   1.000  O
  O356     1.0000 0.03826  0.21797  0.72872  Biso   1.000  O
  O357     1.0000 0.28203  0.27128  0.53826  Biso   1.000  O
  O358     1.0000 0.78203  0.22872  0.46174  Biso   1.000  O
  O359     1.0000 0.71797  0.77128  0.96174  Biso   1.000  O
  O360     1.0000 0.21797  0.72872  0.03826  Biso   1.000  O
  O361     1.0000 0.78826  0.52128  0.53203  Biso   1.000  O
  O362     1.0000 0.71174  0.47872  0.03203  Biso   1.000  O
  O363     1.0000 0.21174  0.02128  0.96797  Biso   1.000  O
  O364     1.0000 0.28826  0.97872  0.46797  Biso   1.000  O
  O365     1.0000 0.53203  0.78826  0.52128  Biso   1.000  O
  O366     1.0000 0.03203  0.71174  0.47872  Biso   1.000  O
  O367     1.0000 0.96797  0.21174  0.02128  Biso   1.000  O
  O368     1.0000 0.46797  0.28826  0.97872  Biso   1.000  O
  O369     1.0000 0.52128  0.53203  0.78826  Biso   1.000  O
  O370     1.0000 0.47872  0.03203  0.71174  Biso   1.000  O
  O371     1.0000 0.02128  0.96797  0.21174  Biso   1.000  O
  O372     1.0000 0.97872  0.46797  0.28826  Biso   1.000  O
  O373     1.0000 0.77128  0.03826  0.78203  Biso   1.000  O
  O374     1.0000 0.72872  0.96174  0.28203  Biso   1.000  O
  O375     1.0000 0.27128  0.46174  0.21797  Biso   1.000  O
  O376     1.0000 0.22872  0.53826  0.71797  Biso   1.000  O
  O377     1.0000 0.03826  0.78203  0.77128  Biso   1.000  O
  O378     1.0000 0.96174  0.28203  0.72872  Biso   1.000  O
  O379     1.0000 0.46174  0.21797  0.27128  Biso   1.000  O
  O380     1.0000 0.53826  0.71797  0.22872  Biso   1.000  O
  O381     1.0000 0.78203  0.77128  0.03826  Biso   1.000  O
  O382     1.0000 0.28203  0.72872  0.96174  Biso   1.000  O
  O383     1.0000 0.21797  0.27128  0.46174  Biso   1.000  O
  O384     1.0000 0.71797  0.22872  0.53826  Biso   1.000  O
  N1       1.0000 0.23969  0.99541  0.16110  Biso   1.000  N
  N2       1.0000 0.26031  0.00459  0.66110  Biso   1.000  N
  N3       1.0000 0.76031  0.49541  0.33890  Biso   1.000  N
  N4       1.0000 0.73969  0.50459  0.83890  Biso   1.000  N
  N5       1.0000 0.16110  0.23969  0.99541  Biso   1.000  N
  N6       1.0000 0.66110  0.26031  0.00459  Biso   1.000  N
  N7       1.0000 0.33890  0.76031  0.49541  Biso   1.000  N
  N8       1.0000 0.83890  0.73969  0.50459  Biso   1.000  N
  N9       1.0000 0.99541  0.16110  0.23969  Biso   1.000  N
  N10      1.0000 0.00459  0.66110  0.26031  Biso   1.000  N
  N11      1.0000 0.49541  0.33890  0.76031  Biso   1.000  N
  N12      1.0000 0.50459  0.83890  0.73969  Biso   1.000  N
  N13      1.0000 0.24541  0.48969  0.41110  Biso   1.000  N
  N14      1.0000 0.25459  0.51031  0.91110  Biso   1.000  N
  N15      1.0000 0.74541  0.01031  0.58890  Biso   1.000  N
  N16      1.0000 0.75459  0.98969  0.08890  Biso   1.000  N
  N17      1.0000 0.48969  0.41110  0.24541  Biso   1.000  N
  N18      1.0000 0.51031  0.91110  0.25459  Biso   1.000  N
  N19      1.0000 0.01031  0.58890  0.74541  Biso   1.000  N
  N20      1.0000 0.98969  0.08890  0.75459  Biso   1.000  N
  N21      1.0000 0.41110  0.24541  0.48969  Biso   1.000  N
  N22      1.0000 0.91110  0.25459  0.51031  Biso   1.000  N
  N23      1.0000 0.58890  0.74541  0.01031  Biso   1.000  N
  N24      1.0000 0.08890  0.75459  0.98969  Biso   1.000  N
  N25      1.0000 0.73969  0.49541  0.66110  Biso   1.000  N
  N26      1.0000 0.76031  0.50459  0.16110  Biso   1.000  N
  N27      1.0000 0.26031  0.99541  0.83890  Biso   1.000  N
  N28      1.0000 0.23969  0.00459  0.33890  Biso   1.000  N
  N29      1.0000 0.66110  0.73969  0.49541  Biso   1.000  N
  N30      1.0000 0.16110  0.76031  0.50459  Biso   1.000  N
  N31      1.0000 0.83890  0.26031  0.99541  Biso   1.000  N
  N32      1.0000 0.33890  0.23969  0.00459  Biso   1.000  N
  N33      1.0000 0.49541  0.66110  0.73969  Biso   1.000  N
  N34      1.0000 0.50459  0.16110  0.76031  Biso   1.000  N
  N35      1.0000 0.99541  0.83890  0.26031  Biso   1.000  N
  N36      1.0000 0.00459  0.33890  0.23969  Biso   1.000  N
  N37      1.0000 0.74541  0.98969  0.91110  Biso   1.000  N
  N38      1.0000 0.75459  0.01031  0.41110  Biso   1.000  N
  N39      1.0000 0.24541  0.51031  0.08890  Biso   1.000  N
  N40      1.0000 0.25459  0.48969  0.58890  Biso   1.000  N
  N41      1.0000 0.98969  0.91110  0.74541  Biso   1.000  N
  N42      1.0000 0.01031  0.41110  0.75459  Biso   1.000  N
  N43      1.0000 0.51031  0.08890  0.24541  Biso   1.000  N
  N44      1.0000 0.48969  0.58890  0.25459  Biso   1.000  N
  N45      1.0000 0.91110  0.74541  0.98969  Biso   1.000  N
  N46      1.0000 0.41110  0.75459  0.01031  Biso   1.000  N
  N47      1.0000 0.08890  0.24541  0.51031  Biso   1.000  N
  N48      1.0000 0.58890  0.25459  0.48969  Biso   1.000  N
  N49      1.0000 0.24503  0.99184  0.08884  Biso   1.000  N
  N50      1.0000 0.25497  0.00816  0.58884  Biso   1.000  N
  N51      1.0000 0.75497  0.49184  0.41116  Biso   1.000  N
  N52      1.0000 0.74503  0.50816  0.91116  Biso   1.000  N
  N53      1.0000 0.08884  0.24503  0.99184  Biso   1.000  N
  N54      1.0000 0.58884  0.25497  0.00816  Biso   1.000  N
  N55      1.0000 0.41116  0.75497  0.49184  Biso   1.000  N
  N56      1.0000 0.91116  0.74503  0.50816  Biso   1.000  N
  N57      1.0000 0.99184  0.08884  0.24503  Biso   1.000  N
  N58      1.0000 0.00816  0.58884  0.25497  Biso   1.000  N
  N59      1.0000 0.49184  0.41116  0.75497  Biso   1.000  N
  N60      1.0000 0.50816  0.91116  0.74503  Biso   1.000  N
  N61      1.0000 0.24184  0.49503  0.33884  Biso   1.000  N
  N62      1.0000 0.25816  0.50497  0.83884  Biso   1.000  N
  N63      1.0000 0.74184  0.00497  0.66116  Biso   1.000  N
  N64      1.0000 0.75816  0.99503  0.16116  Biso   1.000  N
  N65      1.0000 0.49503  0.33884  0.24184  Biso   1.000  N
  N66      1.0000 0.50497  0.83884  0.25816  Biso   1.000  N
  N67      1.0000 0.00497  0.66116  0.74184  Biso   1.000  N
  N68      1.0000 0.99503  0.16116  0.75816  Biso   1.000  N
  N69      1.0000 0.33884  0.24184  0.49503  Biso   1.000  N
  N70      1.0000 0.83884  0.25816  0.50497  Biso   1.000  N
  N71      1.0000 0.66116  0.74184  0.00497  Biso   1.000  N
  N72      1.0000 0.16116  0.75816  0.99503  Biso   1.000  N
  N73      1.0000 0.74503  0.49184  0.58884  Biso   1.000  N
  N74      1.0000 0.75497  0.50816  0.08884  Biso   1.000  N
  N75      1.0000 0.25497  0.99184  0.91116  Biso   1.000  N
  N76      1.0000 0.24503  0.00816  0.41116  Biso   1.000  N
  N77      1.0000 0.58884  0.74503  0.49184  Biso   1.000  N
  N78      1.0000 0.08884  0.75497  0.50816  Biso   1.000  N
  N79      1.0000 0.91116  0.25497  0.99184  Biso   1.000  N
  N80      1.0000 0.41116  0.24503  0.00816  Biso   1.000  N
  N81      1.0000 0.49184  0.58884  0.74503  Biso   1.000  N
  N82      1.0000 0.50816  0.08884  0.75497  Biso   1.000  N
  N83      1.0000 0.99184  0.91116  0.25497  Biso   1.000  N
  N84      1.0000 0.00816  0.41116  0.24503  Biso   1.000  N
  N85      1.0000 0.74184  0.99503  0.83884  Biso   1.000  N
  N86      1.0000 0.75816  0.00497  0.33884  Biso   1.000  N
  N87      1.0000 0.24184  0.50497  0.16116  Biso   1.000  N
  N88      1.0000 0.25816  0.49503  0.66116  Biso   1.000  N
  N89      1.0000 0.99503  0.83884  0.74184  Biso   1.000  N
  N90      1.0000 0.00497  0.33884  0.75816  Biso   1.000  N
  N91      1.0000 0.50497  0.16116  0.24184  Biso   1.000  N
  N92      1.0000 0.49503  0.66116  0.25816  Biso   1.000  N
  N93      1.0000 0.83884  0.74184  0.99503  Biso   1.000  N
  N94      1.0000 0.33884  0.75816  0.00497  Biso   1.000  N
  N95      1.0000 0.16116  0.24184  0.50497  Biso   1.000  N
  N96      1.0000 0.66116  0.25816  0.49503  Biso   1.000  N
  C1       1.0000 0.20076  0.94450  0.99810  Biso   1.000  C
  C2       1.0000 0.29924  0.05550  0.49810  Biso   1.000  C
  C3       1.0000 0.79924  0.44450  0.50190  Biso   1.000  C
  C4       1.0000 0.70076  0.55550  0.00190  Biso   1.000  C
  C5       1.0000 0.99810  0.20076  0.94450  Biso   1.000  C
  C6       1.0000 0.49810  0.29924  0.05550  Biso   1.000  C
  C7       1.0000 0.50190  0.79924  0.44450  Biso   1.000  C
  C8       1.0000 0.00190  0.70076  0.55550  Biso   1.000  C
  C9       1.0000 0.94450  0.99810  0.20076  Biso   1.000  C
  C10      1.0000 0.05550  0.49810  0.29924  Biso   1.000  C
  C11      1.0000 0.44450  0.50190  0.79924  Biso   1.000  C
  C12      1.0000 0.55550  0.00190  0.70076  Biso   1.000  C
  C13      1.0000 0.19450  0.45076  0.24810  Biso   1.000  C
  C14      1.0000 0.30550  0.54924  0.74810  Biso   1.000  C
  C15      1.0000 0.69450  0.04924  0.75190  Biso   1.000  C
  C16      1.0000 0.80550  0.95076  0.25190  Biso   1.000  C
  C17      1.0000 0.45076  0.24810  0.19450  Biso   1.000  C
  C18      1.0000 0.54924  0.74810  0.30550  Biso   1.000  C
  C19      1.0000 0.04924  0.75190  0.69450  Biso   1.000  C
  C20      1.0000 0.95076  0.25190  0.80550  Biso   1.000  C
  C21      1.0000 0.24810  0.19450  0.45076  Biso   1.000  C
  C22      1.0000 0.74810  0.30550  0.54924  Biso   1.000  C
  C23      1.0000 0.75190  0.69450  0.04924  Biso   1.000  C
  C24      1.0000 0.25190  0.80550  0.95076  Biso   1.000  C
  C25      1.0000 0.70076  0.44450  0.49810  Biso   1.000  C
  C26      1.0000 0.79924  0.55550  0.99810  Biso   1.000  C
  C27      1.0000 0.29924  0.94450  0.00190  Biso   1.000  C
  C28      1.0000 0.20076  0.05550  0.50190  Biso   1.000  C
  C29      1.0000 0.49810  0.70076  0.44450  Biso   1.000  C
  C30      1.0000 0.99810  0.79924  0.55550  Biso   1.000  C
  C31      1.0000 0.00190  0.29924  0.94450  Biso   1.000  C
  C32      1.0000 0.50190  0.20076  0.05550  Biso   1.000  C
  C33      1.0000 0.44450  0.49810  0.70076  Biso   1.000  C
  C34      1.0000 0.55550  0.99810  0.79924  Biso   1.000  C
  C35      1.0000 0.94450  0.00190  0.29924  Biso   1.000  C
  C36      1.0000 0.05550  0.50190  0.20076  Biso   1.000  C
  C37      1.0000 0.69450  0.95076  0.74810  Biso   1.000  C
  C38      1.0000 0.80550  0.04924  0.24810  Biso   1.000  C
  C39      1.0000 0.19450  0.54924  0.25190  Biso   1.000  C
  C40      1.0000 0.30550  0.45076  0.75190  Biso   1.000  C
  C41      1.0000 0.95076  0.74810  0.69450  Biso   1.000  C
  C42      1.0000 0.04924  0.24810  0.80550  Biso   1.000  C
  C43      1.0000 0.54924  0.25190  0.19450  Biso   1.000  C
  C44      1.0000 0.45076  0.75190  0.30550  Biso   1.000  C
  C45      1.0000 0.74810  0.69450  0.95076  Biso   1.000  C
  C46      1.0000 0.24810  0.80550  0.04924  Biso   1.000  C
  C47      1.0000 0.25190  0.19450  0.54924  Biso   1.000  C
  C48      1.0000 0.75190  0.30550  0.45076  Biso   1.000  C
  C49      1.0000 0.28311  0.04755  0.24796  Biso   1.000  C
  C50      1.0000 0.21689  0.95245  0.74796  Biso   1.000  C
  C51      1.0000 0.71689  0.54755  0.25204  Biso   1.000  C
  C52      1.0000 0.78311  0.45245  0.75204  Biso   1.000  C
  C53      1.0000 0.24796  0.28311  0.04755  Biso   1.000  C
  C54      1.0000 0.74796  0.21689  0.95245  Biso   1.000  C
  C55      1.0000 0.25204  0.71689  0.54755  Biso   1.000  C
  C56      1.0000 0.75204  0.78311  0.45245  Biso   1.000  C
  C57      1.0000 0.04755  0.24796  0.28311  Biso   1.000  C
  C58      1.0000 0.95245  0.74796  0.21689  Biso   1.000  C
  C59      1.0000 0.54755  0.25204  0.71689  Biso   1.000  C
  C60      1.0000 0.45245  0.75204  0.78311  Biso   1.000  C
  C61      1.0000 0.29755  0.53311  0.49796  Biso   1.000  C
  C62      1.0000 0.20245  0.46689  0.99796  Biso   1.000  C
  C63      1.0000 0.79755  0.96689  0.50204  Biso   1.000  C
  C64      1.0000 0.70245  0.03311  0.00204  Biso   1.000  C
  C65      1.0000 0.53311  0.49796  0.29755  Biso   1.000  C
  C66      1.0000 0.46689  0.99796  0.20245  Biso   1.000  C
  C67      1.0000 0.96689  0.50204  0.79755  Biso   1.000  C
  C68      1.0000 0.03311  0.00204  0.70245  Biso   1.000  C
  C69      1.0000 0.49796  0.29755  0.53311  Biso   1.000  C
  C70      1.0000 0.99796  0.20245  0.46689  Biso   1.000  C
  C71      1.0000 0.50204  0.79755  0.96689  Biso   1.000  C
  C72      1.0000 0.00204  0.70245  0.03311  Biso   1.000  C
  C73      1.0000 0.78311  0.54755  0.74796  Biso   1.000  C
  C74      1.0000 0.71689  0.45245  0.24796  Biso   1.000  C
  C75      1.0000 0.21689  0.04755  0.75204  Biso   1.000  C
  C76      1.0000 0.28311  0.95245  0.25204  Biso   1.000  C
  C77      1.0000 0.74796  0.78311  0.54755  Biso   1.000  C
  C78      1.0000 0.24796  0.71689  0.45245  Biso   1.000  C
  C79      1.0000 0.75204  0.21689  0.04755  Biso   1.000  C
  C80      1.0000 0.25204  0.28311  0.95245  Biso   1.000  C
  C81      1.0000 0.54755  0.74796  0.78311  Biso   1.000  C
  C82      1.0000 0.45245  0.24796  0.71689  Biso   1.000  C
  C83      1.0000 0.04755  0.75204  0.21689  Biso   1.000  C
  C84      1.0000 0.95245  0.25204  0.28311  Biso   1.000  C
  C85      1.0000 0.79755  0.03311  0.99796  Biso   1.000  C
  C86      1.0000 0.70245  0.96689  0.49796  Biso   1.000  C
  C87      1.0000 0.29755  0.46689  0.00204  Biso   1.000  C
  C88      1.0000 0.20245  0.53311  0.50204  Biso   1.000  C
  C89      1.0000 0.03311  0.99796  0.79755  Biso   1.000  C
  C90      1.0000 0.96689  0.49796  0.70245  Biso   1.000  C
  C91      1.0000 0.46689  0.00204  0.29755  Biso   1.000  C
  C92      1.0000 0.53311  0.50204  0.20245  Biso   1.000  C
  C93      1.0000 0.99796  0.79755  0.03311  Biso   1.000  C
  C94      1.0000 0.49796  0.70245  0.96689  Biso   1.000  C
  C95      1.0000 0.00204  0.29755  0.46689  Biso   1.000  C
  C96      1.0000 0.50204  0.20245  0.53311  Biso   1.000  C
  C97      1.0000 0.31081  0.07670  0.24819  Biso   1.000  C
  C98      1.0000 0.18919  0.92330  0.74819  Biso   1.000  C
  C99      1.0000 0.68919  0.57670  0.25181  Biso   1.000  C
  C100     1.0000 0.81081  0.42330  0.75181  Biso   1.000  C
  C101     1.0000 0.24819  0.31081  0.07670  Biso   1.000  C
  C102     1.0000 0.74819  0.18919  0.92330  Biso   1.000  C
  C103     1.0000 0.25181  0.68919  0.57670  Biso   1.000  C
  C104     1.0000 0.75181  0.81081  0.42330  Biso   1.000  C
  C105     1.0000 0.07670  0.24819  0.31081  Biso   1.000  C
  C106     1.0000 0.92330  0.74819  0.18919  Biso   1.000  C
  C107     1.0000 0.57670  0.25181  0.68919  Biso   1.000  C
  C108     1.0000 0.42330  0.75181  0.81081  Biso   1.000  C
  C109     1.0000 0.32670  0.56081  0.49819  Biso   1.000  C
  C110     1.0000 0.17330  0.43919  0.99819  Biso   1.000  C
  C111     1.0000 0.82670  0.93919  0.50181  Biso   1.000  C
  C112     1.0000 0.67330  0.06081  0.00181  Biso   1.000  C
  C113     1.0000 0.56081  0.49819  0.32670  Biso   1.000  C
  C114     1.0000 0.43919  0.99819  0.17330  Biso   1.000  C
  C115     1.0000 0.93919  0.50181  0.82670  Biso   1.000  C
  C116     1.0000 0.06081  0.00181  0.67330  Biso   1.000  C
  C117     1.0000 0.49819  0.32670  0.56081  Biso   1.000  C
  C118     1.0000 0.99819  0.17330  0.43919  Biso   1.000  C
  C119     1.0000 0.50181  0.82670  0.93919  Biso   1.000  C
  C120     1.0000 0.00181  0.67330  0.06081  Biso   1.000  C
  C121     1.0000 0.81081  0.57670  0.74819  Biso   1.000  C
  C122     1.0000 0.68919  0.42330  0.24819  Biso   1.000  C
  C123     1.0000 0.18919  0.07670  0.75181  Biso   1.000  C
  C124     1.0000 0.31081  0.92330  0.25181  Biso   1.000  C
  C125     1.0000 0.74819  0.81081  0.57670  Biso   1.000  C
  C126     1.0000 0.24819  0.68919  0.42330  Biso   1.000  C
  C127     1.0000 0.75181  0.18919  0.07670  Biso   1.000  C
  C128     1.0000 0.25181  0.31081  0.92330  Biso   1.000  C
  C129     1.0000 0.57670  0.74819  0.81081  Biso   1.000  C
  C130     1.0000 0.42330  0.24819  0.68919  Biso   1.000  C
  C131     1.0000 0.07670  0.75181  0.18919  Biso   1.000  C
  C132     1.0000 0.92330  0.25181  0.31081  Biso   1.000  C
  C133     1.0000 0.82670  0.06081  0.99819  Biso   1.000  C
  C134     1.0000 0.67330  0.93919  0.49819  Biso   1.000  C
  C135     1.0000 0.32670  0.43919  0.00181  Biso   1.000  C
  C136     1.0000 0.17330  0.56081  0.50181  Biso   1.000  C
  C137     1.0000 0.06081  0.99819  0.82670  Biso   1.000  C
  C138     1.0000 0.93919  0.49819  0.67330  Biso   1.000  C
  C139     1.0000 0.43919  0.00181  0.32670  Biso   1.000  C
  C140     1.0000 0.56081  0.50181  0.17330  Biso   1.000  C
  C141     1.0000 0.99819  0.82670  0.06081  Biso   1.000  C
  C142     1.0000 0.49819  0.67330  0.93919  Biso   1.000  C
  C143     1.0000 0.00181  0.32670  0.43919  Biso   1.000  C
  C144     1.0000 0.50181  0.17330  0.56081  Biso   1.000  C
  C145     1.0000 0.18968  0.04816  0.24684  Biso   1.000  C
  C146     1.0000 0.31032  0.95184  0.74684  Biso   1.000  C
  C147     1.0000 0.81032  0.54816  0.25316  Biso   1.000  C
  C148     1.0000 0.68968  0.45184  0.75316  Biso   1.000  C
  C149     1.0000 0.24684  0.18968  0.04816  Biso   1.000  C
  C150     1.0000 0.74684  0.31032  0.95184  Biso   1.000  C
  C151     1.0000 0.25316  0.81032  0.54816  Biso   1.000  C
  C152     1.0000 0.75316  0.68968  0.45184  Biso   1.000  C
  C153     1.0000 0.04816  0.24684  0.18968  Biso   1.000  C
  C154     1.0000 0.95184  0.74684  0.31032  Biso   1.000  C
  C155     1.0000 0.54816  0.25316  0.81032  Biso   1.000  C
  C156     1.0000 0.45184  0.75316  0.68968  Biso   1.000  C
  C157     1.0000 0.29816  0.43968  0.49684  Biso   1.000  C
  C158     1.0000 0.20184  0.56032  0.99684  Biso   1.000  C
  C159     1.0000 0.79816  0.06032  0.50316  Biso   1.000  C
  C160     1.0000 0.70184  0.93968  0.00316  Biso   1.000  C
  C161     1.0000 0.43968  0.49684  0.29816  Biso   1.000  C
  C162     1.0000 0.56032  0.99684  0.20184  Biso   1.000  C
  C163     1.0000 0.06032  0.50316  0.79816  Biso   1.000  C
  C164     1.0000 0.93968  0.00316  0.70184  Biso   1.000  C
  C165     1.0000 0.49684  0.29816  0.43968  Biso   1.000  C
  C166     1.0000 0.99684  0.20184  0.56032  Biso   1.000  C
  C167     1.0000 0.50316  0.79816  0.06032  Biso   1.000  C
  C168     1.0000 0.00316  0.70184  0.93968  Biso   1.000  C
  C169     1.0000 0.68968  0.54816  0.74684  Biso   1.000  C
  C170     1.0000 0.81032  0.45184  0.24684  Biso   1.000  C
  C171     1.0000 0.31032  0.04816  0.75316  Biso   1.000  C
  C172     1.0000 0.18968  0.95184  0.25316  Biso   1.000  C
  C173     1.0000 0.74684  0.68968  0.54816  Biso   1.000  C
  C174     1.0000 0.24684  0.81032  0.45184  Biso   1.000  C
  C175     1.0000 0.75316  0.31032  0.04816  Biso   1.000  C
  C176     1.0000 0.25316  0.18968  0.95184  Biso   1.000  C
  C177     1.0000 0.54816  0.74684  0.68968  Biso   1.000  C
  C178     1.0000 0.45184  0.24684  0.81032  Biso   1.000  C
  C179     1.0000 0.04816  0.75316  0.31032  Biso   1.000  C
  C180     1.0000 0.95184  0.25316  0.18968  Biso   1.000  C
  C181     1.0000 0.79816  0.93968  0.99684  Biso   1.000  C
  C182     1.0000 0.70184  0.06032  0.49684  Biso   1.000  C
  C183     1.0000 0.29816  0.56032  0.00316  Biso   1.000  C
  C184     1.0000 0.20184  0.43968  0.50316  Biso   1.000  C
  C185     1.0000 0.93968  0.99684  0.79816  Biso   1.000  C
  C186     1.0000 0.06032  0.49684  0.70184  Biso   1.000  C
  C187     1.0000 0.56032  0.00316  0.29816  Biso   1.000  C
  C188     1.0000 0.43968  0.50316  0.20184  Biso   1.000  C
  C189     1.0000 0.99684  0.79816  0.93968  Biso   1.000  C
  C190     1.0000 0.49684  0.70184  0.06032  Biso   1.000  C
  C191     1.0000 0.00316  0.29816  0.56032  Biso   1.000  C
  C192     1.0000 0.50316  0.20184  0.43968  Biso   1.000  C
  C193     1.0000 0.16322  0.07814  0.24621  Biso   1.000  C
  C194     1.0000 0.33678  0.92186  0.74621  Biso   1.000  C
  C195     1.0000 0.83678  0.57814  0.25379  Biso   1.000  C
  C196     1.0000 0.66322  0.42186  0.75379  Biso   1.000  C
  C197     1.0000 0.24621  0.16322  0.07814  Biso   1.000  C
  C198     1.0000 0.74621  0.33678  0.92186  Biso   1.000  C
  C199     1.0000 0.25379  0.83678  0.57814  Biso   1.000  C
  C200     1.0000 0.75379  0.66322  0.42186  Biso   1.000  C
  C201     1.0000 0.07814  0.24621  0.16322  Biso   1.000  C
  C202     1.0000 0.92186  0.74621  0.33678  Biso   1.000  C
  C203     1.0000 0.57814  0.25379  0.83678  Biso   1.000  C
  C204     1.0000 0.42186  0.75379  0.66322  Biso   1.000  C
  C205     1.0000 0.32814  0.41322  0.49621  Biso   1.000  C
  C206     1.0000 0.17186  0.58678  0.99621  Biso   1.000  C
  C207     1.0000 0.82814  0.08678  0.50379  Biso   1.000  C
  C208     1.0000 0.67186  0.91322  0.00379  Biso   1.000  C
  C209     1.0000 0.41322  0.49621  0.32814  Biso   1.000  C
  C210     1.0000 0.58678  0.99621  0.17186  Biso   1.000  C
  C211     1.0000 0.08678  0.50379  0.82814  Biso   1.000  C
  C212     1.0000 0.91322  0.00379  0.67186  Biso   1.000  C
  C213     1.0000 0.49621  0.32814  0.41322  Biso   1.000  C
  C214     1.0000 0.99621  0.17186  0.58678  Biso   1.000  C
  C215     1.0000 0.50379  0.82814  0.08678  Biso   1.000  C
  C216     1.0000 0.00379  0.67186  0.91322  Biso   1.000  C
  C217     1.0000 0.66322  0.57814  0.74621  Biso   1.000  C
  C218     1.0000 0.83678  0.42186  0.24621  Biso   1.000  C
  C219     1.0000 0.33678  0.07814  0.75379  Biso   1.000  C
  C220     1.0000 0.16322  0.92186  0.25379  Biso   1.000  C
  C221     1.0000 0.74621  0.66322  0.57814  Biso   1.000  C
  C222     1.0000 0.24621  0.83678  0.42186  Biso   1.000  C
  C223     1.0000 0.75379  0.33678  0.07814  Biso   1.000  C
  C224     1.0000 0.25379  0.16322  0.92186  Biso   1.000  C
  C225     1.0000 0.57814  0.74621  0.66322  Biso   1.000  C
  C226     1.0000 0.42186  0.24621  0.83678  Biso   1.000  C
  C227     1.0000 0.07814  0.75379  0.33678  Biso   1.000  C
  C228     1.0000 0.92186  0.25379  0.16322  Biso   1.000  C
  C229     1.0000 0.82814  0.91322  0.99621  Biso   1.000  C
  C230     1.0000 0.67186  0.08678  0.49621  Biso   1.000  C
  C231     1.0000 0.32814  0.58678  0.00379  Biso   1.000  C
  C232     1.0000 0.17186  0.41322  0.50379  Biso   1.000  C
  C233     1.0000 0.91322  0.99621  0.82814  Biso   1.000  C
  C234     1.0000 0.08678  0.49621  0.67186  Biso   1.000  C
  C235     1.0000 0.58678  0.00379  0.32814  Biso   1.000  C
  C236     1.0000 0.41322  0.50379  0.17186  Biso   1.000  C
  C237     1.0000 0.99621  0.82814  0.91322  Biso   1.000  C
  C238     1.0000 0.49621  0.67186  0.08678  Biso   1.000  C
  C239     1.0000 0.00379  0.32814  0.58678  Biso   1.000  C
  C240     1.0000 0.50379  0.17186  0.41322  Biso   1.000  C
  C241     1.0000 0.34724  0.06079  0.04209  Biso   1.000  C
  C242     1.0000 0.15276  0.93921  0.54209  Biso   1.000  C
  C243     1.0000 0.65276  0.56079  0.45791  Biso   1.000  C
  C244     1.0000 0.84724  0.43921  0.95791  Biso   1.000  C
  C245     1.0000 0.04209  0.34724  0.06079  Biso   1.000  C
  C246     1.0000 0.54209  0.15276  0.93921  Biso   1.000  C
  C247     1.0000 0.45791  0.65276  0.56079  Biso   1.000  C
  C248     1.0000 0.95791  0.84724  0.43921  Biso   1.000  C
  C249     1.0000 0.06079  0.04209  0.34724  Biso   1.000  C
  C250     1.0000 0.93921  0.54209  0.15276  Biso   1.000  C
  C251     1.0000 0.56079  0.45791  0.65276  Biso   1.000  C
  C252     1.0000 0.43921  0.95791  0.84724  Biso   1.000  C
  C253     1.0000 0.31079  0.59724  0.29209  Biso   1.000  C
  C254     1.0000 0.18921  0.40276  0.79209  Biso   1.000  C
  C255     1.0000 0.81079  0.90276  0.70791  Biso   1.000  C
  C256     1.0000 0.68921  0.09724  0.20791  Biso   1.000  C
  C257     1.0000 0.59724  0.29209  0.31079  Biso   1.000  C
  C258     1.0000 0.40276  0.79209  0.18921  Biso   1.000  C
  C259     1.0000 0.90276  0.70791  0.81079  Biso   1.000  C
  C260     1.0000 0.09724  0.20791  0.68921  Biso   1.000  C
  C261     1.0000 0.29209  0.31079  0.59724  Biso   1.000  C
  C262     1.0000 0.79209  0.18921  0.40276  Biso   1.000  C
  C263     1.0000 0.70791  0.81079  0.90276  Biso   1.000  C
  C264     1.0000 0.20791  0.68921  0.09724  Biso   1.000  C
  C265     1.0000 0.84724  0.56079  0.54209  Biso   1.000  C
  C266     1.0000 0.65276  0.43921  0.04209  Biso   1.000  C
  C267     1.0000 0.15276  0.06079  0.95791  Biso   1.000  C
  C268     1.0000 0.34724  0.93921  0.45791  Biso   1.000  C
  C269     1.0000 0.54209  0.84724  0.56079  Biso   1.000  C
  C270     1.0000 0.04209  0.65276  0.43921  Biso   1.000  C
  C271     1.0000 0.95791  0.15276  0.06079  Biso   1.000  C
  C272     1.0000 0.45791  0.34724  0.93921  Biso   1.000  C
  C273     1.0000 0.56079  0.54209  0.84724  Biso   1.000  C
  C274     1.0000 0.43921  0.04209  0.65276  Biso   1.000  C
  C275     1.0000 0.06079  0.95791  0.15276  Biso   1.000  C
  C276     1.0000 0.93921  0.45791  0.34724  Biso   1.000  C
  C277     1.0000 0.81079  0.09724  0.79209  Biso   1.000  C
  C278     1.0000 0.68921  0.90276  0.29209  Biso   1.000  C
  C279     1.0000 0.31079  0.40276  0.20791  Biso   1.000  C
  C280     1.0000 0.18921  0.59724  0.70791  Biso   1.000  C
  C281     1.0000 0.09724  0.79209  0.81079  Biso   1.000  C
  C282     1.0000 0.90276  0.29209  0.68921  Biso   1.000  C
  C283     1.0000 0.40276  0.20791  0.31079  Biso   1.000  C
  C284     1.0000 0.59724  0.70791  0.18921  Biso   1.000  C
  C285     1.0000 0.79209  0.81079  0.09724  Biso   1.000  C
  C286     1.0000 0.29209  0.68921  0.90276  Biso   1.000  C
  C287     1.0000 0.20791  0.31079  0.40276  Biso   1.000  C
  C288     1.0000 0.70791  0.18921  0.59724  Biso   1.000  C
  H1       1.0000 0.35310  0.03790  0.05160  Biso   1.000  H
  H2       1.0000 0.14690  0.96210  0.55160  Biso   1.000  H
  H3       1.0000 0.64690  0.53790  0.44840  Biso   1.000  H
  H4       1.0000 0.85310  0.46210  0.94840  Biso   1.000  H
  H5       1.0000 0.05160  0.35310  0.03790  Biso   1.000  H
  H6       1.0000 0.55160  0.14690  0.96210  Biso   1.000  H
  H7       1.0000 0.44840  0.64690  0.53790  Biso   1.000  H
  H8       1.0000 0.94840  0.85310  0.46210  Biso   1.000  H
  H9       1.0000 0.03790  0.05160  0.35310  Biso   1.000  H
  H10      1.0000 0.96210  0.55160  0.14690  Biso   1.000  H
  H11      1.0000 0.53790  0.44840  0.64690  Biso   1.000  H
  H12      1.0000 0.46210  0.94840  0.85310  Biso   1.000  H
  H13      1.0000 0.28790  0.60310  0.30160  Biso   1.000  H
  H14      1.0000 0.21210  0.39690  0.80160  Biso   1.000  H
  H15      1.0000 0.78790  0.89690  0.69840  Biso   1.000  H
  H16      1.0000 0.71210  0.10310  0.19840  Biso   1.000  H
  H17      1.0000 0.60310  0.30160  0.28790  Biso   1.000  H
  H18      1.0000 0.39690  0.80160  0.21210  Biso   1.000  H
  H19      1.0000 0.89690  0.69840  0.78790  Biso   1.000  H
  H20      1.0000 0.10310  0.19840  0.71210  Biso   1.000  H
  H21      1.0000 0.30160  0.28790  0.60310  Biso   1.000  H
  H22      1.0000 0.80160  0.21210  0.39690  Biso   1.000  H
  H23      1.0000 0.69840  0.78790  0.89690  Biso   1.000  H
  H24      1.0000 0.19840  0.71210  0.10310  Biso   1.000  H
  H25      1.0000 0.85310  0.53790  0.55160  Biso   1.000  H
  H26      1.0000 0.64690  0.46210  0.05160  Biso   1.000  H
  H27      1.0000 0.14690  0.03790  0.94840  Biso   1.000  H
  H28      1.0000 0.35310  0.96210  0.44840  Biso   1.000  H
  H29      1.0000 0.55160  0.85310  0.53790  Biso   1.000  H
  H30      1.0000 0.05160  0.64690  0.46210  Biso   1.000  H
  H31      1.0000 0.94840  0.14690  0.03790  Biso   1.000  H
  H32      1.0000 0.44840  0.35310  0.96210  Biso   1.000  H
  H33      1.0000 0.53790  0.55160  0.85310  Biso   1.000  H
  H34      1.0000 0.46210  0.05160  0.64690  Biso   1.000  H
  H35      1.0000 0.03790  0.94840  0.14690  Biso   1.000  H
  H36      1.0000 0.96210  0.44840  0.35310  Biso   1.000  H
  H37      1.0000 0.78790  0.10310  0.80160  Biso   1.000  H
  H38      1.0000 0.71210  0.89690  0.30160  Biso   1.000  H
  H39      1.0000 0.28790  0.39690  0.19840  Biso   1.000  H
  H40      1.0000 0.21210  0.60310  0.69840  Biso   1.000  H
  H41      1.0000 0.10310  0.80160  0.78790  Biso   1.000  H
  H42      1.0000 0.89690  0.30160  0.71210  Biso   1.000  H
  H43      1.0000 0.39690  0.19840  0.28790  Biso   1.000  H
  H44      1.0000 0.60310  0.69840  0.21210  Biso   1.000  H
  H45      1.0000 0.80160  0.78790  0.10310  Biso   1.000  H
  H46      1.0000 0.30160  0.71210  0.89690  Biso   1.000  H
  H47      1.0000 0.19840  0.28790  0.39690  Biso   1.000  H
  H48      1.0000 0.69840  0.21210  0.60310  Biso   1.000  H
  H49      1.0000 0.32970  0.07140  0.05720  Biso   1.000  H
  H50      1.0000 0.17030  0.92860  0.55720  Biso   1.000  H
  H51      1.0000 0.67030  0.57140  0.44280  Biso   1.000  H
  H52      1.0000 0.82970  0.42860  0.94280  Biso   1.000  H
  H53      1.0000 0.05720  0.32970  0.07140  Biso   1.000  H
  H54      1.0000 0.55720  0.17030  0.92860  Biso   1.000  H
  H55      1.0000 0.44280  0.67030  0.57140  Biso   1.000  H
  H56      1.0000 0.94280  0.82970  0.42860  Biso   1.000  H
  H57      1.0000 0.07140  0.05720  0.32970  Biso   1.000  H
  H58      1.0000 0.92860  0.55720  0.17030  Biso   1.000  H
  H59      1.0000 0.57140  0.44280  0.67030  Biso   1.000  H
  H60      1.0000 0.42860  0.94280  0.82970  Biso   1.000  H
  H61      1.0000 0.32140  0.57970  0.30720  Biso   1.000  H
  H62      1.0000 0.17860  0.42030  0.80720  Biso   1.000  H
  H63      1.0000 0.82140  0.92030  0.69280  Biso   1.000  H
  H64      1.0000 0.67860  0.07970  0.19280  Biso   1.000  H
  H65      1.0000 0.57970  0.30720  0.32140  Biso   1.000  H
  H66      1.0000 0.42030  0.80720  0.17860  Biso   1.000  H
  H67      1.0000 0.92030  0.69280  0.82140  Biso   1.000  H
  H68      1.0000 0.07970  0.19280  0.67860  Biso   1.000  H
  H69      1.0000 0.30720  0.32140  0.57970  Biso   1.000  H
  H70      1.0000 0.80720  0.17860  0.42030  Biso   1.000  H
  H71      1.0000 0.69280  0.82140  0.92030  Biso   1.000  H
  H72      1.0000 0.19280  0.67860  0.07970  Biso   1.000  H
  H73      1.0000 0.82970  0.57140  0.55720  Biso   1.000  H
  H74      1.0000 0.67030  0.42860  0.05720  Biso   1.000  H
  H75      1.0000 0.17030  0.07140  0.94280  Biso   1.000  H
  H76      1.0000 0.32970  0.92860  0.44280  Biso   1.000  H
  H77      1.0000 0.55720  0.82970  0.57140  Biso   1.000  H
  H78      1.0000 0.05720  0.67030  0.42860  Biso   1.000  H
  H79      1.0000 0.94280  0.17030  0.07140  Biso   1.000  H
  H80      1.0000 0.44280  0.32970  0.92860  Biso   1.000  H
  H81      1.0000 0.57140  0.55720  0.82970  Biso   1.000  H
  H82      1.0000 0.42860  0.05720  0.67030  Biso   1.000  H
  H83      1.0000 0.07140  0.94280  0.17030  Biso   1.000  H
  H84      1.0000 0.92860  0.44280  0.32970  Biso   1.000  H
  H85      1.0000 0.82140  0.07970  0.80720  Biso   1.000  H
  H86      1.0000 0.67860  0.92030  0.30720  Biso   1.000  H
  H87      1.0000 0.32140  0.42030  0.19280  Biso   1.000  H
  H88      1.0000 0.17860  0.57970  0.69280  Biso   1.000  H
  H89      1.0000 0.07970  0.80720  0.82140  Biso   1.000  H
  H90      1.0000 0.92030  0.30720  0.67860  Biso   1.000  H
  H91      1.0000 0.42030  0.19280  0.32140  Biso   1.000  H
  H92      1.0000 0.57970  0.69280  0.17860  Biso   1.000  H
  H93      1.0000 0.80720  0.82140  0.07970  Biso   1.000  H
  H94      1.0000 0.30720  0.67860  0.92030  Biso   1.000  H
  H95      1.0000 0.19280  0.32140  0.42030  Biso   1.000  H
  H96      1.0000 0.69280  0.17860  0.57970  Biso   1.000  H
  C289     1.0000 0.33239  0.05665  0.00470  Biso   1.000  C
  C290     1.0000 0.16761  0.94335  0.50470  Biso   1.000  C
  C291     1.0000 0.66761  0.55665  0.49530  Biso   1.000  C
  C292     1.0000 0.83239  0.44335  0.99530  Biso   1.000  C
  C293     1.0000 0.00470  0.33239  0.05665  Biso   1.000  C
  C294     1.0000 0.50470  0.16761  0.94335  Biso   1.000  C
  C295     1.0000 0.49530  0.66761  0.55665  Biso   1.000  C
  C296     1.0000 0.99530  0.83239  0.44335  Biso   1.000  C
  C297     1.0000 0.05665  0.00470  0.33239  Biso   1.000  C
  C298     1.0000 0.94335  0.50470  0.16761  Biso   1.000  C
  C299     1.0000 0.55665  0.49530  0.66761  Biso   1.000  C
  C300     1.0000 0.44335  0.99530  0.83239  Biso   1.000  C
  C301     1.0000 0.30665  0.58239  0.25470  Biso   1.000  C
  C302     1.0000 0.19335  0.41761  0.75470  Biso   1.000  C
  C303     1.0000 0.80665  0.91761  0.74530  Biso   1.000  C
  C304     1.0000 0.69335  0.08239  0.24530  Biso   1.000  C
  C305     1.0000 0.58239  0.25470  0.30665  Biso   1.000  C
  C306     1.0000 0.41761  0.75470  0.19335  Biso   1.000  C
  C307     1.0000 0.91761  0.74530  0.80665  Biso   1.000  C
  C308     1.0000 0.08239  0.24530  0.69335  Biso   1.000  C
  C309     1.0000 0.25470  0.30665  0.58239  Biso   1.000  C
  C310     1.0000 0.75470  0.19335  0.41761  Biso   1.000  C
  C311     1.0000 0.74530  0.80665  0.91761  Biso   1.000  C
  C312     1.0000 0.24530  0.69335  0.08239  Biso   1.000  C
  C313     1.0000 0.83239  0.55665  0.50470  Biso   1.000  C
  C314     1.0000 0.66761  0.44335  0.00470  Biso   1.000  C
  C315     1.0000 0.16761  0.05665  0.99530  Biso   1.000  C
  C316     1.0000 0.33239  0.94335  0.49530  Biso   1.000  C
  C317     1.0000 0.50470  0.83239  0.55665  Biso   1.000  C
  C318     1.0000 0.00470  0.66761  0.44335  Biso   1.000  C
  C319     1.0000 0.99530  0.16761  0.05665  Biso   1.000  C
  C320     1.0000 0.49530  0.33239  0.94335  Biso   1.000  C
  C321     1.0000 0.55665  0.50470  0.83239  Biso   1.000  C
  C322     1.0000 0.44335  0.00470  0.66761  Biso   1.000  C
  C323     1.0000 0.05665  0.99530  0.16761  Biso   1.000  C
  C324     1.0000 0.94335  0.49530  0.33239  Biso   1.000  C
  C325     1.0000 0.80665  0.08239  0.75470  Biso   1.000  C
  C326     1.0000 0.69335  0.91761  0.25470  Biso   1.000  C
  C327     1.0000 0.30665  0.41761  0.24530  Biso   1.000  C
  C328     1.0000 0.19335  0.58239  0.74530  Biso   1.000  C
  C329     1.0000 0.08239  0.75470  0.80665  Biso   1.000  C
  C330     1.0000 0.91761  0.25470  0.69335  Biso   1.000  C
  C331     1.0000 0.41761  0.24530  0.30665  Biso   1.000  C
  C332     1.0000 0.58239  0.74530  0.19335  Biso   1.000  C
  C333     1.0000 0.75470  0.80665  0.08239  Biso   1.000  C
  C334     1.0000 0.25470  0.69335  0.91761  Biso   1.000  C
  C335     1.0000 0.24530  0.30665  0.41761  Biso   1.000  C
  C336     1.0000 0.74530  0.19335  0.58239  Biso   1.000  C
  C337     1.0000 0.29902  0.03384  0.00391  Biso   1.000  C
  C338     1.0000 0.20098  0.96616  0.50391  Biso   1.000  C
  C339     1.0000 0.70098  0.53384  0.49609  Biso   1.000  C
  C340     1.0000 0.79902  0.46616  0.99609  Biso   1.000  C
  C341     1.0000 0.00391  0.29902  0.03384  Biso   1.000  C
  C342     1.0000 0.50391  0.20098  0.96616  Biso   1.000  C
  C343     1.0000 0.49609  0.70098  0.53384  Biso   1.000  C
  C344     1.0000 0.99609  0.79902  0.46616  Biso   1.000  C
  C345     1.0000 0.03384  0.00391  0.29902  Biso   1.000  C
  C346     1.0000 0.96616  0.50391  0.20098  Biso   1.000  C
  C347     1.0000 0.53384  0.49609  0.70098  Biso   1.000  C
  C348     1.0000 0.46616  0.99609  0.79902  Biso   1.000  C
  C349     1.0000 0.28384  0.54902  0.25391  Biso   1.000  C
  C350     1.0000 0.21616  0.45098  0.75391  Biso   1.000  C
  C351     1.0000 0.78384  0.95098  0.74609  Biso   1.000  C
  C352     1.0000 0.71616  0.04902  0.24609  Biso   1.000  C
  C353     1.0000 0.54902  0.25391  0.28384  Biso   1.000  C
  C354     1.0000 0.45098  0.75391  0.21616  Biso   1.000  C
  C355     1.0000 0.95098  0.74609  0.78384  Biso   1.000  C
  C356     1.0000 0.04902  0.24609  0.71616  Biso   1.000  C
  C357     1.0000 0.25391  0.28384  0.54902  Biso   1.000  C
  C358     1.0000 0.75391  0.21616  0.45098  Biso   1.000  C
  C359     1.0000 0.74609  0.78384  0.95098  Biso   1.000  C
  C360     1.0000 0.24609  0.71616  0.04902  Biso   1.000  C
  C361     1.0000 0.79902  0.53384  0.50391  Biso   1.000  C
  C362     1.0000 0.70098  0.46616  0.00391  Biso   1.000  C
  C363     1.0000 0.20098  0.03384  0.99609  Biso   1.000  C
  C364     1.0000 0.29902  0.96616  0.49609  Biso   1.000  C
  C365     1.0000 0.50391  0.79902  0.53384  Biso   1.000  C
  C366     1.0000 0.00391  0.70098  0.46616  Biso   1.000  C
  C367     1.0000 0.99609  0.20098  0.03384  Biso   1.000  C
  C368     1.0000 0.49609  0.29902  0.96616  Biso   1.000  C
  C369     1.0000 0.53384  0.50391  0.79902  Biso   1.000  C
  C370     1.0000 0.46616  0.00391  0.70098  Biso   1.000  C
  C371     1.0000 0.03384  0.99609  0.20098  Biso   1.000  C
  C372     1.0000 0.96616  0.49609  0.29902  Biso   1.000  C
  C373     1.0000 0.78384  0.04902  0.75391  Biso   1.000  C
  C374     1.0000 0.71616  0.95098  0.25391  Biso   1.000  C
  C375     1.0000 0.28384  0.45098  0.24609  Biso   1.000  C
  C376     1.0000 0.21616  0.54902  0.74609  Biso   1.000  C
  C377     1.0000 0.04902  0.75391  0.78384  Biso   1.000  C
  C378     1.0000 0.95098  0.25391  0.71616  Biso   1.000  C
  C379     1.0000 0.45098  0.24609  0.28384  Biso   1.000  C
  C380     1.0000 0.54902  0.74609  0.21616  Biso   1.000  C
  C381     1.0000 0.75391  0.78384  0.04902  Biso   1.000  C
  C382     1.0000 0.25391  0.71616  0.95098  Biso   1.000  C
  C383     1.0000 0.24609  0.28384  0.45098  Biso   1.000  C
  C384     1.0000 0.74609  0.21616  0.54902  Biso   1.000  C
  C385     1.0000 0.38033  0.08398  0.04136  Biso   1.000  C
  C386     1.0000 0.11967  0.91602  0.54136  Biso   1.000  C
  C387     1.0000 0.61967  0.58398  0.45864  Biso   1.000  C
  C388     1.0000 0.88033  0.41602  0.95864  Biso   1.000  C
  C389     1.0000 0.04136  0.38033  0.08398  Biso   1.000  C
  C390     1.0000 0.54136  0.11967  0.91602  Biso   1.000  C
  C391     1.0000 0.45864  0.61967  0.58398  Biso   1.000  C
  C392     1.0000 0.95864  0.88033  0.41602  Biso   1.000  C
  C393     1.0000 0.08398  0.04136  0.38033  Biso   1.000  C
  C394     1.0000 0.91602  0.54136  0.11967  Biso   1.000  C
  C395     1.0000 0.58398  0.45864  0.61967  Biso   1.000  C
  C396     1.0000 0.41602  0.95864  0.88033  Biso   1.000  C
  C397     1.0000 0.33398  0.63033  0.29136  Biso   1.000  C
  C398     1.0000 0.16602  0.36967  0.79136  Biso   1.000  C
  C399     1.0000 0.83398  0.86967  0.70864  Biso   1.000  C
  C400     1.0000 0.66602  0.13033  0.20864  Biso   1.000  C
  C401     1.0000 0.63033  0.29136  0.33398  Biso   1.000  C
  C402     1.0000 0.36967  0.79136  0.16602  Biso   1.000  C
  C403     1.0000 0.86967  0.70864  0.83398  Biso   1.000  C
  C404     1.0000 0.13033  0.20864  0.66602  Biso   1.000  C
  C405     1.0000 0.29136  0.33398  0.63033  Biso   1.000  C
  C406     1.0000 0.79136  0.16602  0.36967  Biso   1.000  C
  C407     1.0000 0.70864  0.83398  0.86967  Biso   1.000  C
  C408     1.0000 0.20864  0.66602  0.13033  Biso   1.000  C
  C409     1.0000 0.88033  0.58398  0.54136  Biso   1.000  C
  C410     1.0000 0.61967  0.41602  0.04136  Biso   1.000  C
  C411     1.0000 0.11967  0.08398  0.95864  Biso   1.000  C
  C412     1.0000 0.38033  0.91602  0.45864  Biso   1.000  C
  C413     1.0000 0.54136  0.88033  0.58398  Biso   1.000  C
  C414     1.0000 0.04136  0.61967  0.41602  Biso   1.000  C
  C415     1.0000 0.95864  0.11967  0.08398  Biso   1.000  C
  C416     1.0000 0.45864  0.38033  0.91602  Biso   1.000  C
  C417     1.0000 0.58398  0.54136  0.88033  Biso   1.000  C
  C418     1.0000 0.41602  0.04136  0.61967  Biso   1.000  C
  C419     1.0000 0.08398  0.95864  0.11967  Biso   1.000  C
  C420     1.0000 0.91602  0.45864  0.38033  Biso   1.000  C
  C421     1.0000 0.83398  0.13033  0.79136  Biso   1.000  C
  C422     1.0000 0.66602  0.86967  0.29136  Biso   1.000  C
  C423     1.0000 0.33398  0.36967  0.20864  Biso   1.000  C
  C424     1.0000 0.16602  0.63033  0.70864  Biso   1.000  C
  C425     1.0000 0.13033  0.79136  0.83398  Biso   1.000  C
  C426     1.0000 0.86967  0.29136  0.66602  Biso   1.000  C
  C427     1.0000 0.36967  0.20864  0.33398  Biso   1.000  C
  C428     1.0000 0.63033  0.70864  0.16602  Biso   1.000  C
  C429     1.0000 0.79136  0.83398  0.13033  Biso   1.000  C
  C430     1.0000 0.29136  0.66602  0.86967  Biso   1.000  C
  C431     1.0000 0.20864  0.33398  0.36967  Biso   1.000  C
  C432     1.0000 0.70864  0.16602  0.63033  Biso   1.000  C
  H97      1.0000 0.38940  0.08670  0.06530  Biso   1.000  H
  H98      1.0000 0.11060  0.91330  0.56530  Biso   1.000  H
  H99      1.0000 0.61060  0.58670  0.43470  Biso   1.000  H
  H100     1.0000 0.88940  0.41330  0.93470  Biso   1.000  H
  H101     1.0000 0.06530  0.38940  0.08670  Biso   1.000  H
  H102     1.0000 0.56530  0.11060  0.91330  Biso   1.000  H
  H103     1.0000 0.43470  0.61060  0.58670  Biso   1.000  H
  H104     1.0000 0.93470  0.88940  0.41330  Biso   1.000  H
  H105     1.0000 0.08670  0.06530  0.38940  Biso   1.000  H
  H106     1.0000 0.91330  0.56530  0.11060  Biso   1.000  H
  H107     1.0000 0.58670  0.43470  0.61060  Biso   1.000  H
  H108     1.0000 0.41330  0.93470  0.88940  Biso   1.000  H
  H109     1.0000 0.33670  0.63940  0.31530  Biso   1.000  H
  H110     1.0000 0.16330  0.36060  0.81530  Biso   1.000  H
  H111     1.0000 0.83670  0.86060  0.68470  Biso   1.000  H
  H112     1.0000 0.66330  0.13940  0.18470  Biso   1.000  H
  H113     1.0000 0.63940  0.31530  0.33670  Biso   1.000  H
  H114     1.0000 0.36060  0.81530  0.16330  Biso   1.000  H
  H115     1.0000 0.86060  0.68470  0.83670  Biso   1.000  H
  H116     1.0000 0.13940  0.18470  0.66330  Biso   1.000  H
  H117     1.0000 0.31530  0.33670  0.63940  Biso   1.000  H
  H118     1.0000 0.81530  0.16330  0.36060  Biso   1.000  H
  H119     1.0000 0.68470  0.83670  0.86060  Biso   1.000  H
  H120     1.0000 0.18470  0.66330  0.13940  Biso   1.000  H
  H121     1.0000 0.88940  0.58670  0.56530  Biso   1.000  H
  H122     1.0000 0.61060  0.41330  0.06530  Biso   1.000  H
  H123     1.0000 0.11060  0.08670  0.93470  Biso   1.000  H
  H124     1.0000 0.38940  0.91330  0.43470  Biso   1.000  H
  H125     1.0000 0.56530  0.88940  0.58670  Biso   1.000  H
  H126     1.0000 0.06530  0.61060  0.41330  Biso   1.000  H
  H127     1.0000 0.93470  0.11060  0.08670  Biso   1.000  H
  H128     1.0000 0.43470  0.38940  0.91330  Biso   1.000  H
  H129     1.0000 0.58670  0.56530  0.88940  Biso   1.000  H
  H130     1.0000 0.41330  0.06530  0.61060  Biso   1.000  H
  H131     1.0000 0.08670  0.93470  0.11060  Biso   1.000  H
  H132     1.0000 0.91330  0.43470  0.38940  Biso   1.000  H
  H133     1.0000 0.83670  0.13940  0.81530  Biso   1.000  H
  H134     1.0000 0.66330  0.86060  0.31530  Biso   1.000  H
  H135     1.0000 0.33670  0.36060  0.18470  Biso   1.000  H
  H136     1.0000 0.16330  0.63940  0.68470  Biso   1.000  H
  H137     1.0000 0.13940  0.81530  0.83670  Biso   1.000  H
  H138     1.0000 0.86060  0.31530  0.66330  Biso   1.000  H
  H139     1.0000 0.36060  0.18470  0.33670  Biso   1.000  H
  H140     1.0000 0.63940  0.68470  0.16330  Biso   1.000  H
  H141     1.0000 0.81530  0.83670  0.13940  Biso   1.000  H
  H142     1.0000 0.31530  0.66330  0.86060  Biso   1.000  H
  H143     1.0000 0.18470  0.33670  0.36060  Biso   1.000  H
  H144     1.0000 0.68470  0.16330  0.63940  Biso   1.000  H
  C433     1.0000 0.31458  0.09400  0.21181  Biso   1.000  C
  C434     1.0000 0.18542  0.90600  0.71181  Biso   1.000  C
  C435     1.0000 0.68542  0.59400  0.28819  Biso   1.000  C
  C436     1.0000 0.81458  0.40600  0.78819  Biso   1.000  C
  C437     1.0000 0.21181  0.31458  0.09400  Biso   1.000  C
  C438     1.0000 0.71181  0.18542  0.90600  Biso   1.000  C
  C439     1.0000 0.28819  0.68542  0.59400  Biso   1.000  C
  C440     1.0000 0.78819  0.81458  0.40600  Biso   1.000  C
  C441     1.0000 0.09400  0.21181  0.31458  Biso   1.000  C
  C442     1.0000 0.90600  0.71181  0.18542  Biso   1.000  C
  C443     1.0000 0.59400  0.28819  0.68542  Biso   1.000  C
  C444     1.0000 0.40600  0.78819  0.81458  Biso   1.000  C
  C445     1.0000 0.34400  0.56458  0.46181  Biso   1.000  C
  C446     1.0000 0.15600  0.43542  0.96181  Biso   1.000  C
  C447     1.0000 0.84400  0.93542  0.53819  Biso   1.000  C
  C448     1.0000 0.65600  0.06458  0.03819  Biso   1.000  C
  C449     1.0000 0.56458  0.46181  0.34400  Biso   1.000  C
  C450     1.0000 0.43542  0.96181  0.15600  Biso   1.000  C
  C451     1.0000 0.93542  0.53819  0.84400  Biso   1.000  C
  C452     1.0000 0.06458  0.03819  0.65600  Biso   1.000  C
  C453     1.0000 0.46181  0.34400  0.56458  Biso   1.000  C
  C454     1.0000 0.96181  0.15600  0.43542  Biso   1.000  C
  C455     1.0000 0.53819  0.84400  0.93542  Biso   1.000  C
  C456     1.0000 0.03819  0.65600  0.06458  Biso   1.000  C
  C457     1.0000 0.81458  0.59400  0.71181  Biso   1.000  C
  C458     1.0000 0.68542  0.40600  0.21181  Biso   1.000  C
  C459     1.0000 0.18542  0.09400  0.78819  Biso   1.000  C
  C460     1.0000 0.31458  0.90600  0.28819  Biso   1.000  C
  C461     1.0000 0.71181  0.81458  0.59400  Biso   1.000  C
  C462     1.0000 0.21181  0.68542  0.40600  Biso   1.000  C
  C463     1.0000 0.78819  0.18542  0.09400  Biso   1.000  C
  C464     1.0000 0.28819  0.31458  0.90600  Biso   1.000  C
  C465     1.0000 0.59400  0.71181  0.81458  Biso   1.000  C
  C466     1.0000 0.40600  0.21181  0.68542  Biso   1.000  C
  C467     1.0000 0.09400  0.78819  0.18542  Biso   1.000  C
  C468     1.0000 0.90600  0.28819  0.31458  Biso   1.000  C
  C469     1.0000 0.84400  0.06458  0.96181  Biso   1.000  C
  C470     1.0000 0.65600  0.93542  0.46181  Biso   1.000  C
  C471     1.0000 0.34400  0.43542  0.03819  Biso   1.000  C
  C472     1.0000 0.15600  0.56458  0.53819  Biso   1.000  C
  C473     1.0000 0.06458  0.96181  0.84400  Biso   1.000  C
  C474     1.0000 0.93542  0.46181  0.65600  Biso   1.000  C
  C475     1.0000 0.43542  0.03819  0.34400  Biso   1.000  C
  C476     1.0000 0.56458  0.53819  0.15600  Biso   1.000  C
  C477     1.0000 0.96181  0.84400  0.06458  Biso   1.000  C
  C478     1.0000 0.46181  0.65600  0.93542  Biso   1.000  C
  C479     1.0000 0.03819  0.34400  0.43542  Biso   1.000  C
  C480     1.0000 0.53819  0.15600  0.56458  Biso   1.000  C
  H145     1.0000 0.32080  0.07630  0.19450  Biso   1.000  H
  H146     1.0000 0.17920  0.92370  0.69450  Biso   1.000  H
  H147     1.0000 0.67920  0.57630  0.30550  Biso   1.000  H
  H148     1.0000 0.82080  0.42370  0.80550  Biso   1.000  H
  H149     1.0000 0.19450  0.32080  0.07630  Biso   1.000  H
  H150     1.0000 0.69450  0.17920  0.92370  Biso   1.000  H
  H151     1.0000 0.30550  0.67920  0.57630  Biso   1.000  H
  H152     1.0000 0.80550  0.82080  0.42370  Biso   1.000  H
  H153     1.0000 0.07630  0.19450  0.32080  Biso   1.000  H
  H154     1.0000 0.92370  0.69450  0.17920  Biso   1.000  H
  H155     1.0000 0.57630  0.30550  0.67920  Biso   1.000  H
  H156     1.0000 0.42370  0.80550  0.82080  Biso   1.000  H
  H157     1.0000 0.32630  0.57080  0.44450  Biso   1.000  H
  H158     1.0000 0.17370  0.42920  0.94450  Biso   1.000  H
  H159     1.0000 0.82630  0.92920  0.55550  Biso   1.000  H
  H160     1.0000 0.67370  0.07080  0.05550  Biso   1.000  H
  H161     1.0000 0.57080  0.44450  0.32630  Biso   1.000  H
  H162     1.0000 0.42920  0.94450  0.17370  Biso   1.000  H
  H163     1.0000 0.92920  0.55550  0.82630  Biso   1.000  H
  H164     1.0000 0.07080  0.05550  0.67370  Biso   1.000  H
  H165     1.0000 0.44450  0.32630  0.57080  Biso   1.000  H
  H166     1.0000 0.94450  0.17370  0.42920  Biso   1.000  H
  H167     1.0000 0.55550  0.82630  0.92920  Biso   1.000  H
  H168     1.0000 0.05550  0.67370  0.07080  Biso   1.000  H
  H169     1.0000 0.82080  0.57630  0.69450  Biso   1.000  H
  H170     1.0000 0.67920  0.42370  0.19450  Biso   1.000  H
  H171     1.0000 0.17920  0.07630  0.80550  Biso   1.000  H
  H172     1.0000 0.32080  0.92370  0.30550  Biso   1.000  H
  H173     1.0000 0.69450  0.82080  0.57630  Biso   1.000  H
  H174     1.0000 0.19450  0.67920  0.42370  Biso   1.000  H
  H175     1.0000 0.80550  0.17920  0.07630  Biso   1.000  H
  H176     1.0000 0.30550  0.32080  0.92370  Biso   1.000  H
  H177     1.0000 0.57630  0.69450  0.82080  Biso   1.000  H
  H178     1.0000 0.42370  0.19450  0.67920  Biso   1.000  H
  H179     1.0000 0.07630  0.80550  0.17920  Biso   1.000  H
  H180     1.0000 0.92370  0.30550  0.32080  Biso   1.000  H
  H181     1.0000 0.82630  0.07080  0.94450  Biso   1.000  H
  H182     1.0000 0.67370  0.92920  0.44450  Biso   1.000  H
  H183     1.0000 0.32630  0.42920  0.05550  Biso   1.000  H
  H184     1.0000 0.17370  0.57080  0.55550  Biso   1.000  H
  H185     1.0000 0.07080  0.94450  0.82630  Biso   1.000  H
  H186     1.0000 0.92920  0.44450  0.67370  Biso   1.000  H
  H187     1.0000 0.42920  0.05550  0.32630  Biso   1.000  H
  H188     1.0000 0.57080  0.55550  0.17370  Biso   1.000  H
  H189     1.0000 0.94450  0.82630  0.07080  Biso   1.000  H
  H190     1.0000 0.44450  0.67370  0.92920  Biso   1.000  H
  H191     1.0000 0.05550  0.32630  0.42920  Biso   1.000  H
  H192     1.0000 0.55550  0.17370  0.57080  Biso   1.000  H
  H193     1.0000 0.29230  0.10430  0.20490  Biso   1.000  H
  H194     1.0000 0.20770  0.89570  0.70490  Biso   1.000  H
  H195     1.0000 0.70770  0.60430  0.29510  Biso   1.000  H
  H196     1.0000 0.79230  0.39570  0.79510  Biso   1.000  H
  H197     1.0000 0.20490  0.29230  0.10430  Biso   1.000  H
  H198     1.0000 0.70490  0.20770  0.89570  Biso   1.000  H
  H199     1.0000 0.29510  0.70770  0.60430  Biso   1.000  H
  H200     1.0000 0.79510  0.79230  0.39570  Biso   1.000  H
  H201     1.0000 0.10430  0.20490  0.29230  Biso   1.000  H
  H202     1.0000 0.89570  0.70490  0.20770  Biso   1.000  H
  H203     1.0000 0.60430  0.29510  0.70770  Biso   1.000  H
  H204     1.0000 0.39570  0.79510  0.79230  Biso   1.000  H
  H205     1.0000 0.35430  0.54230  0.45490  Biso   1.000  H
  H206     1.0000 0.14570  0.45770  0.95490  Biso   1.000  H
  H207     1.0000 0.85430  0.95770  0.54510  Biso   1.000  H
  H208     1.0000 0.64570  0.04230  0.04510  Biso   1.000  H
  H209     1.0000 0.54230  0.45490  0.35430  Biso   1.000  H
  H210     1.0000 0.45770  0.95490  0.14570  Biso   1.000  H
  H211     1.0000 0.95770  0.54510  0.85430  Biso   1.000  H
  H212     1.0000 0.04230  0.04510  0.64570  Biso   1.000  H
  H213     1.0000 0.45490  0.35430  0.54230  Biso   1.000  H
  H214     1.0000 0.95490  0.14570  0.45770  Biso   1.000  H
  H215     1.0000 0.54510  0.85430  0.95770  Biso   1.000  H
  H216     1.0000 0.04510  0.64570  0.04230  Biso   1.000  H
  H217     1.0000 0.79230  0.60430  0.70490  Biso   1.000  H
  H218     1.0000 0.70770  0.39570  0.20490  Biso   1.000  H
  H219     1.0000 0.20770  0.10430  0.79510  Biso   1.000  H
  H220     1.0000 0.29230  0.89570  0.29510  Biso   1.000  H
  H221     1.0000 0.70490  0.79230  0.60430  Biso   1.000  H
  H222     1.0000 0.20490  0.70770  0.39570  Biso   1.000  H
  H223     1.0000 0.79510  0.20770  0.10430  Biso   1.000  H
  H224     1.0000 0.29510  0.29230  0.89570  Biso   1.000  H
  H225     1.0000 0.60430  0.70490  0.79230  Biso   1.000  H
  H226     1.0000 0.39570  0.20490  0.70770  Biso   1.000  H
  H227     1.0000 0.10430  0.79510  0.20770  Biso   1.000  H
  H228     1.0000 0.89570  0.29510  0.29230  Biso   1.000  H
  H229     1.0000 0.85430  0.04230  0.95490  Biso   1.000  H
  H230     1.0000 0.64570  0.95770  0.45490  Biso   1.000  H
  H231     1.0000 0.35430  0.45770  0.04510  Biso   1.000  H
  H232     1.0000 0.14570  0.54230  0.54510  Biso   1.000  H
  H233     1.0000 0.04230  0.95490  0.85430  Biso   1.000  H
  H234     1.0000 0.95770  0.45490  0.64570  Biso   1.000  H
  H235     1.0000 0.45770  0.04510  0.35430  Biso   1.000  H
  H236     1.0000 0.54230  0.54510  0.14570  Biso   1.000  H
  H237     1.0000 0.95490  0.85430  0.04230  Biso   1.000  H
  H238     1.0000 0.45490  0.64570  0.95770  Biso   1.000  H
  H239     1.0000 0.04510  0.35430  0.45770  Biso   1.000  H
  H240     1.0000 0.54510  0.14570  0.54230  Biso   1.000  H
  C481     1.0000 0.36077  0.03942  0.98137  Biso   1.000  C
  C482     1.0000 0.13923  0.96058  0.48137  Biso   1.000  C
  C483     1.0000 0.63923  0.53942  0.51863  Biso   1.000  C
  C484     1.0000 0.86077  0.46058  0.01863  Biso   1.000  C
  C485     1.0000 0.98137  0.36077  0.03942  Biso   1.000  C
  C486     1.0000 0.48137  0.13923  0.96058  Biso   1.000  C
  C487     1.0000 0.51863  0.63923  0.53942  Biso   1.000  C
  C488     1.0000 0.01863  0.86077  0.46058  Biso   1.000  C
  C489     1.0000 0.03942  0.98137  0.36077  Biso   1.000  C
  C490     1.0000 0.96058  0.48137  0.13923  Biso   1.000  C
  C491     1.0000 0.53942  0.51863  0.63923  Biso   1.000  C
  C492     1.0000 0.46058  0.01863  0.86077  Biso   1.000  C
  C493     1.0000 0.28942  0.61077  0.23137  Biso   1.000  C
  C494     1.0000 0.21058  0.38923  0.73137  Biso   1.000  C
  C495     1.0000 0.78942  0.88923  0.76863  Biso   1.000  C
  C496     1.0000 0.71058  0.11077  0.26863  Biso   1.000  C
  C497     1.0000 0.61077  0.23137  0.28942  Biso   1.000  C
  C498     1.0000 0.38923  0.73137  0.21058  Biso   1.000  C
  C499     1.0000 0.88923  0.76863  0.78942  Biso   1.000  C
  C500     1.0000 0.11077  0.26863  0.71058  Biso   1.000  C
  C501     1.0000 0.23137  0.28942  0.61077  Biso   1.000  C
  C502     1.0000 0.73137  0.21058  0.38923  Biso   1.000  C
  C503     1.0000 0.76863  0.78942  0.88923  Biso   1.000  C
  C504     1.0000 0.26863  0.71058  0.11077  Biso   1.000  C
  C505     1.0000 0.86077  0.53942  0.48137  Biso   1.000  C
  C506     1.0000 0.63923  0.46058  0.98137  Biso   1.000  C
  C507     1.0000 0.13923  0.03942  0.01863  Biso   1.000  C
  C508     1.0000 0.36077  0.96058  0.51863  Biso   1.000  C
  C509     1.0000 0.48137  0.86077  0.53942  Biso   1.000  C
  C510     1.0000 0.98137  0.63923  0.46058  Biso   1.000  C
  C511     1.0000 0.01863  0.13923  0.03942  Biso   1.000  C
  C512     1.0000 0.51863  0.36077  0.96058  Biso   1.000  C
  C513     1.0000 0.53942  0.48137  0.86077  Biso   1.000  C
  C514     1.0000 0.46058  0.98137  0.63923  Biso   1.000  C
  C515     1.0000 0.03942  0.01863  0.13923  Biso   1.000  C
  C516     1.0000 0.96058  0.51863  0.36077  Biso   1.000  C
  C517     1.0000 0.78942  0.11077  0.73137  Biso   1.000  C
  C518     1.0000 0.71058  0.88923  0.23137  Biso   1.000  C
  C519     1.0000 0.28942  0.38923  0.26863  Biso   1.000  C
  C520     1.0000 0.21058  0.61077  0.76863  Biso   1.000  C
  C521     1.0000 0.11077  0.73137  0.78942  Biso   1.000  C
  C522     1.0000 0.88923  0.23137  0.71058  Biso   1.000  C
  C523     1.0000 0.38923  0.26863  0.28942  Biso   1.000  C
  C524     1.0000 0.61077  0.76863  0.21058  Biso   1.000  C
  C525     1.0000 0.73137  0.78942  0.11077  Biso   1.000  C
  C526     1.0000 0.23137  0.71058  0.88923  Biso   1.000  C
  C527     1.0000 0.26863  0.28942  0.38923  Biso   1.000  C
  C528     1.0000 0.76863  0.21058  0.61077  Biso   1.000  C
  H241     1.0000 0.36630  0.01620  0.99030  Biso   1.000  H
  H242     1.0000 0.13370  0.98380  0.49030  Biso   1.000  H
  H243     1.0000 0.63370  0.51620  0.50970  Biso   1.000  H
  H244     1.0000 0.86630  0.48380  0.00970  Biso   1.000  H
  H245     1.0000 0.99030  0.36630  0.01620  Biso   1.000  H
  H246     1.0000 0.49030  0.13370  0.98380  Biso   1.000  H
  H247     1.0000 0.50970  0.63370  0.51620  Biso   1.000  H
  H248     1.0000 0.00970  0.86630  0.48380  Biso   1.000  H
  H249     1.0000 0.01620  0.99030  0.36630  Biso   1.000  H
  H250     1.0000 0.98380  0.49030  0.13370  Biso   1.000  H
  H251     1.0000 0.51620  0.50970  0.63370  Biso   1.000  H
  H252     1.0000 0.48380  0.00970  0.86630  Biso   1.000  H
  H253     1.0000 0.26620  0.61630  0.24030  Biso   1.000  H
  H254     1.0000 0.23380  0.38370  0.74030  Biso   1.000  H
  H255     1.0000 0.76620  0.88370  0.75970  Biso   1.000  H
  H256     1.0000 0.73380  0.11630  0.25970  Biso   1.000  H
  H257     1.0000 0.61630  0.24030  0.26620  Biso   1.000  H
  H258     1.0000 0.38370  0.74030  0.23380  Biso   1.000  H
  H259     1.0000 0.88370  0.75970  0.76620  Biso   1.000  H
  H260     1.0000 0.11630  0.25970  0.73380  Biso   1.000  H
  H261     1.0000 0.24030  0.26620  0.61630  Biso   1.000  H
  H262     1.0000 0.74030  0.23380  0.38370  Biso   1.000  H
  H263     1.0000 0.75970  0.76620  0.88370  Biso   1.000  H
  H264     1.0000 0.25970  0.73380  0.11630  Biso   1.000  H
  H265     1.0000 0.86630  0.51620  0.49030  Biso   1.000  H
  H266     1.0000 0.63370  0.48380  0.99030  Biso   1.000  H
  H267     1.0000 0.13370  0.01620  0.00970  Biso   1.000  H
  H268     1.0000 0.36630  0.98380  0.50970  Biso   1.000  H
  H269     1.0000 0.49030  0.86630  0.51620  Biso   1.000  H
  H270     1.0000 0.99030  0.63370  0.48380  Biso   1.000  H
  H271     1.0000 0.00970  0.13370  0.01620  Biso   1.000  H
  H272     1.0000 0.50970  0.36630  0.98380  Biso   1.000  H
  H273     1.0000 0.51620  0.49030  0.86630  Biso   1.000  H
  H274     1.0000 0.48380  0.99030  0.63370  Biso   1.000  H
  H275     1.0000 0.01620  0.00970  0.13370  Biso   1.000  H
  H276     1.0000 0.98380  0.50970  0.36630  Biso   1.000  H
  H277     1.0000 0.76620  0.11630  0.74030  Biso   1.000  H
  H278     1.0000 0.73380  0.88370  0.24030  Biso   1.000  H
  H279     1.0000 0.26620  0.38370  0.25970  Biso   1.000  H
  H280     1.0000 0.23380  0.61630  0.75970  Biso   1.000  H
  H281     1.0000 0.11630  0.74030  0.76620  Biso   1.000  H
  H282     1.0000 0.88370  0.24030  0.73380  Biso   1.000  H
  H283     1.0000 0.38370  0.25970  0.26620  Biso   1.000  H
  H284     1.0000 0.61630  0.75970  0.23380  Biso   1.000  H
  H285     1.0000 0.74030  0.76620  0.11630  Biso   1.000  H
  H286     1.0000 0.24030  0.73380  0.88370  Biso   1.000  H
  H287     1.0000 0.25970  0.26620  0.38370  Biso   1.000  H
  H288     1.0000 0.75970  0.23380  0.61630  Biso   1.000  H
  H289     1.0000 0.35200  0.03700  0.95760  Biso   1.000  H
  H290     1.0000 0.14800  0.96300  0.45760  Biso   1.000  H
  H291     1.0000 0.64800  0.53700  0.54240  Biso   1.000  H
  H292     1.0000 0.85200  0.46300  0.04240  Biso   1.000  H
  H293     1.0000 0.95760  0.35200  0.03700  Biso   1.000  H
  H294     1.0000 0.45760  0.14800  0.96300  Biso   1.000  H
  H295     1.0000 0.54240  0.64800  0.53700  Biso   1.000  H
  H296     1.0000 0.04240  0.85200  0.46300  Biso   1.000  H
  H297     1.0000 0.03700  0.95760  0.35200  Biso   1.000  H
  H298     1.0000 0.96300  0.45760  0.14800  Biso   1.000  H
  H299     1.0000 0.53700  0.54240  0.64800  Biso   1.000  H
  H300     1.0000 0.46300  0.04240  0.85200  Biso   1.000  H
  H301     1.0000 0.28700  0.60200  0.20760  Biso   1.000  H
  H302     1.0000 0.21300  0.39800  0.70760  Biso   1.000  H
  H303     1.0000 0.78700  0.89800  0.79240  Biso   1.000  H
  H304     1.0000 0.71300  0.10200  0.29240  Biso   1.000  H
  H305     1.0000 0.60200  0.20760  0.28700  Biso   1.000  H
  H306     1.0000 0.39800  0.70760  0.21300  Biso   1.000  H
  H307     1.0000 0.89800  0.79240  0.78700  Biso   1.000  H
  H308     1.0000 0.10200  0.29240  0.71300  Biso   1.000  H
  H309     1.0000 0.20760  0.28700  0.60200  Biso   1.000  H
  H310     1.0000 0.70760  0.21300  0.39800  Biso   1.000  H
  H311     1.0000 0.79240  0.78700  0.89800  Biso   1.000  H
  H312     1.0000 0.29240  0.71300  0.10200  Biso   1.000  H
  H313     1.0000 0.85200  0.53700  0.45760  Biso   1.000  H
  H314     1.0000 0.64800  0.46300  0.95760  Biso   1.000  H
  H315     1.0000 0.14800  0.03700  0.04240  Biso   1.000  H
  H316     1.0000 0.35200  0.96300  0.54240  Biso   1.000  H
  H317     1.0000 0.45760  0.85200  0.53700  Biso   1.000  H
  H318     1.0000 0.95760  0.64800  0.46300  Biso   1.000  H
  H319     1.0000 0.04240  0.14800  0.03700  Biso   1.000  H
  H320     1.0000 0.54240  0.35200  0.96300  Biso   1.000  H
  H321     1.0000 0.53700  0.45760  0.85200  Biso   1.000  H
  H322     1.0000 0.46300  0.95760  0.64800  Biso   1.000  H
  H323     1.0000 0.03700  0.04240  0.14800  Biso   1.000  H
  H324     1.0000 0.96300  0.54240  0.35200  Biso   1.000  H
  H325     1.0000 0.78700  0.10200  0.70760  Biso   1.000  H
  H326     1.0000 0.71300  0.89800  0.20760  Biso   1.000  H
  H327     1.0000 0.28700  0.39800  0.29240  Biso   1.000  H
  H328     1.0000 0.21300  0.60200  0.79240  Biso   1.000  H
  H329     1.0000 0.10200  0.70760  0.78700  Biso   1.000  H
  H330     1.0000 0.89800  0.20760  0.71300  Biso   1.000  H
  H331     1.0000 0.39800  0.29240  0.28700  Biso   1.000  H
  H332     1.0000 0.60200  0.79240  0.21300  Biso   1.000  H
  H333     1.0000 0.70760  0.78700  0.10200  Biso   1.000  H
  H334     1.0000 0.20760  0.71300  0.89800  Biso   1.000  H
  H335     1.0000 0.29240  0.28700  0.39800  Biso   1.000  H
  H336     1.0000 0.79240  0.21300  0.60200  Biso   1.000  H
  C529     1.0000 0.21178  0.98782  0.14138  Biso   1.000  C
  C530     1.0000 0.28822  0.01218  0.64138  Biso   1.000  C
  C531     1.0000 0.78822  0.48782  0.35862  Biso   1.000  C
  C532     1.0000 0.71178  0.51218  0.85862  Biso   1.000  C
  C533     1.0000 0.14138  0.21178  0.98782  Biso   1.000  C
  C534     1.0000 0.64138  0.28822  0.01218  Biso   1.000  C
  C535     1.0000 0.35862  0.78822  0.48782  Biso   1.000  C
  C536     1.0000 0.85862  0.71178  0.51218  Biso   1.000  C
  C537     1.0000 0.98782  0.14138  0.21178  Biso   1.000  C
  C538     1.0000 0.01218  0.64138  0.28822  Biso   1.000  C
  C539     1.0000 0.48782  0.35862  0.78822  Biso   1.000  C
  C540     1.0000 0.51218  0.85862  0.71178  Biso   1.000  C
  C541     1.0000 0.23782  0.46178  0.39138  Biso   1.000  C
  C542     1.0000 0.26218  0.53822  0.89138  Biso   1.000  C
  C543     1.0000 0.73782  0.03822  0.60862  Biso   1.000  C
  C544     1.0000 0.76218  0.96178  0.10862  Biso   1.000  C
  C545     1.0000 0.46178  0.39138  0.23782  Biso   1.000  C
  C546     1.0000 0.53822  0.89138  0.26218  Biso   1.000  C
  C547     1.0000 0.03822  0.60862  0.73782  Biso   1.000  C
  C548     1.0000 0.96178  0.10862  0.76218  Biso   1.000  C
  C549     1.0000 0.39138  0.23782  0.46178  Biso   1.000  C
  C550     1.0000 0.89138  0.26218  0.53822  Biso   1.000  C
  C551     1.0000 0.60862  0.73782  0.03822  Biso   1.000  C
  C552     1.0000 0.10862  0.76218  0.96178  Biso   1.000  C
  C553     1.0000 0.71178  0.48782  0.64138  Biso   1.000  C
  C554     1.0000 0.78822  0.51218  0.14138  Biso   1.000  C
  C555     1.0000 0.28822  0.98782  0.85862  Biso   1.000  C
  C556     1.0000 0.21178  0.01218  0.35862  Biso   1.000  C
  C557     1.0000 0.64138  0.71178  0.48782  Biso   1.000  C
  C558     1.0000 0.14138  0.78822  0.51218  Biso   1.000  C
  C559     1.0000 0.85862  0.28822  0.98782  Biso   1.000  C
  C560     1.0000 0.35862  0.21178  0.01218  Biso   1.000  C
  C561     1.0000 0.48782  0.64138  0.71178  Biso   1.000  C
  C562     1.0000 0.51218  0.14138  0.78822  Biso   1.000  C
  C563     1.0000 0.98782  0.85862  0.28822  Biso   1.000  C
  C564     1.0000 0.01218  0.35862  0.21178  Biso   1.000  C
  C565     1.0000 0.73782  0.96178  0.89138  Biso   1.000  C
  C566     1.0000 0.76218  0.03822  0.39138  Biso   1.000  C
  C567     1.0000 0.23782  0.53822  0.10862  Biso   1.000  C
  C568     1.0000 0.26218  0.46178  0.60862  Biso   1.000  C
  C569     1.0000 0.96178  0.89138  0.73782  Biso   1.000  C
  C570     1.0000 0.03822  0.39138  0.76218  Biso   1.000  C
  C571     1.0000 0.53822  0.10862  0.23782  Biso   1.000  C
  C572     1.0000 0.46178  0.60862  0.26218  Biso   1.000  C
  C573     1.0000 0.89138  0.73782  0.96178  Biso   1.000  C
  C574     1.0000 0.39138  0.76218  0.03822  Biso   1.000  C
  C575     1.0000 0.10862  0.23782  0.53822  Biso   1.000  C
  C576     1.0000 0.60862  0.26218  0.46178  Biso   1.000  C
  H337     1.0000 0.19020  0.98360  0.15200  Biso   1.000  H
  H338     1.0000 0.30980  0.01640  0.65200  Biso   1.000  H
  H339     1.0000 0.80980  0.48360  0.34800  Biso   1.000  H
  H340     1.0000 0.69020  0.51640  0.84800  Biso   1.000  H
  H341     1.0000 0.15200  0.19020  0.98360  Biso   1.000  H
  H342     1.0000 0.65200  0.30980  0.01640  Biso   1.000  H
  H343     1.0000 0.34800  0.80980  0.48360  Biso   1.000  H
  H344     1.0000 0.84800  0.69020  0.51640  Biso   1.000  H
  H345     1.0000 0.98360  0.15200  0.19020  Biso   1.000  H
  H346     1.0000 0.01640  0.65200  0.30980  Biso   1.000  H
  H347     1.0000 0.48360  0.34800  0.80980  Biso   1.000  H
  H348     1.0000 0.51640  0.84800  0.69020  Biso   1.000  H
  H349     1.0000 0.23360  0.44020  0.40200  Biso   1.000  H
  H350     1.0000 0.26640  0.55980  0.90200  Biso   1.000  H
  H351     1.0000 0.73360  0.05980  0.59800  Biso   1.000  H
  H352     1.0000 0.76640  0.94020  0.09800  Biso   1.000  H
  H353     1.0000 0.44020  0.40200  0.23360  Biso   1.000  H
  H354     1.0000 0.55980  0.90200  0.26640  Biso   1.000  H
  H355     1.0000 0.05980  0.59800  0.73360  Biso   1.000  H
  H356     1.0000 0.94020  0.09800  0.76640  Biso   1.000  H
  H357     1.0000 0.40200  0.23360  0.44020  Biso   1.000  H
  H358     1.0000 0.90200  0.26640  0.55980  Biso   1.000  H
  H359     1.0000 0.59800  0.73360  0.05980  Biso   1.000  H
  H360     1.0000 0.09800  0.76640  0.94020  Biso   1.000  H
  H361     1.0000 0.69020  0.48360  0.65200  Biso   1.000  H
  H362     1.0000 0.80980  0.51640  0.15200  Biso   1.000  H
  H363     1.0000 0.30980  0.98360  0.84800  Biso   1.000  H
  H364     1.0000 0.19020  0.01640  0.34800  Biso   1.000  H
  H365     1.0000 0.65200  0.69020  0.48360  Biso   1.000  H
  H366     1.0000 0.15200  0.80980  0.51640  Biso   1.000  H
  H367     1.0000 0.84800  0.30980  0.98360  Biso   1.000  H
  H368     1.0000 0.34800  0.19020  0.01640  Biso   1.000  H
  H369     1.0000 0.48360  0.65200  0.69020  Biso   1.000  H
  H370     1.0000 0.51640  0.15200  0.80980  Biso   1.000  H
  H371     1.0000 0.98360  0.84800  0.30980  Biso   1.000  H
  H372     1.0000 0.01640  0.34800  0.19020  Biso   1.000  H
  H373     1.0000 0.73360  0.94020  0.90200  Biso   1.000  H
  H374     1.0000 0.76640  0.05980  0.40200  Biso   1.000  H
  H375     1.0000 0.23360  0.55980  0.09800  Biso   1.000  H
  H376     1.0000 0.26640  0.44020  0.59800  Biso   1.000  H
  H377     1.0000 0.94020  0.90200  0.73360  Biso   1.000  H
  H378     1.0000 0.05980  0.40200  0.76640  Biso   1.000  H
  H379     1.0000 0.55980  0.09800  0.23360  Biso   1.000  H
  H380     1.0000 0.44020  0.59800  0.26640  Biso   1.000  H
  H381     1.0000 0.90200  0.73360  0.94020  Biso   1.000  H
  H382     1.0000 0.40200  0.76640  0.05980  Biso   1.000  H
  H383     1.0000 0.09800  0.23360  0.55980  Biso   1.000  H
  H384     1.0000 0.59800  0.26640  0.44020  Biso   1.000  H
  C577     1.0000 0.11733  0.89155  0.02517  Biso   1.000  C
  C578     1.0000 0.38267  0.10845  0.52517  Biso   1.000  C
  C579     1.0000 0.88267  0.39155  0.47483  Biso   1.000  C
  C580     1.0000 0.61733  0.60845  0.97483  Biso   1.000  C
  C581     1.0000 0.02517  0.11733  0.89155  Biso   1.000  C
  C582     1.0000 0.52517  0.38267  0.10845  Biso   1.000  C
  C583     1.0000 0.47483  0.88267  0.39155  Biso   1.000  C
  C584     1.0000 0.97483  0.61733  0.60845  Biso   1.000  C
  C585     1.0000 0.89155  0.02517  0.11733  Biso   1.000  C
  C586     1.0000 0.10845  0.52517  0.38267  Biso   1.000  C
  C587     1.0000 0.39155  0.47483  0.88267  Biso   1.000  C
  C588     1.0000 0.60845  0.97483  0.61733  Biso   1.000  C
  C589     1.0000 0.14155  0.36733  0.27517  Biso   1.000  C
  C590     1.0000 0.35845  0.63267  0.77517  Biso   1.000  C
  C591     1.0000 0.64155  0.13267  0.72483  Biso   1.000  C
  C592     1.0000 0.85845  0.86733  0.22483  Biso   1.000  C
  C593     1.0000 0.36733  0.27517  0.14155  Biso   1.000  C
  C594     1.0000 0.63267  0.77517  0.35845  Biso   1.000  C
  C595     1.0000 0.13267  0.72483  0.64155  Biso   1.000  C
  C596     1.0000 0.86733  0.22483  0.85845  Biso   1.000  C
  C597     1.0000 0.27517  0.14155  0.36733  Biso   1.000  C
  C598     1.0000 0.77517  0.35845  0.63267  Biso   1.000  C
  C599     1.0000 0.72483  0.64155  0.13267  Biso   1.000  C
  C600     1.0000 0.22483  0.85845  0.86733  Biso   1.000  C
  C601     1.0000 0.61733  0.39155  0.52517  Biso   1.000  C
  C602     1.0000 0.88267  0.60845  0.02517  Biso   1.000  C
  C603     1.0000 0.38267  0.89155  0.97483  Biso   1.000  C
  C604     1.0000 0.11733  0.10845  0.47483  Biso   1.000  C
  C605     1.0000 0.52517  0.61733  0.39155  Biso   1.000  C
  C606     1.0000 0.02517  0.88267  0.60845  Biso   1.000  C
  C607     1.0000 0.97483  0.38267  0.89155  Biso   1.000  C
  C608     1.0000 0.47483  0.11733  0.10845  Biso   1.000  C
  C609     1.0000 0.39155  0.52517  0.61733  Biso   1.000  C
  C610     1.0000 0.60845  0.02517  0.88267  Biso   1.000  C
  C611     1.0000 0.89155  0.97483  0.38267  Biso   1.000  C
  C612     1.0000 0.10845  0.47483  0.11733  Biso   1.000  C
  C613     1.0000 0.64155  0.86733  0.77517  Biso   1.000  C
  C614     1.0000 0.85845  0.13267  0.27517  Biso   1.000  C
  C615     1.0000 0.14155  0.63267  0.22483  Biso   1.000  C
  C616     1.0000 0.35845  0.36733  0.72483  Biso   1.000  C
  C617     1.0000 0.86733  0.77517  0.64155  Biso   1.000  C
  C618     1.0000 0.13267  0.27517  0.85845  Biso   1.000  C
  C619     1.0000 0.63267  0.22483  0.14155  Biso   1.000  C
  C620     1.0000 0.36733  0.72483  0.35845  Biso   1.000  C
  C621     1.0000 0.77517  0.64155  0.86733  Biso   1.000  C
  C622     1.0000 0.27517  0.85845  0.13267  Biso   1.000  C
  C623     1.0000 0.22483  0.14155  0.63267  Biso   1.000  C
  C624     1.0000 0.72483  0.35845  0.36733  Biso   1.000  C
  H385     1.0000 0.10530  0.88870  0.04770  Biso   1.000  H
  H386     1.0000 0.39470  0.11130  0.54770  Biso   1.000  H
  H387     1.0000 0.89470  0.38870  0.45230  Biso   1.000  H
  H388     1.0000 0.60530  0.61130  0.95230  Biso   1.000  H
  H389     1.0000 0.04770  0.10530  0.88870  Biso   1.000  H
  H390     1.0000 0.54770  0.39470  0.11130  Biso   1.000  H
  H391     1.0000 0.45230  0.89470  0.38870  Biso   1.000  H
  H392     1.0000 0.95230  0.60530  0.61130  Biso   1.000  H
  H393     1.0000 0.88870  0.04770  0.10530  Biso   1.000  H
  H394     1.0000 0.11130  0.54770  0.39470  Biso   1.000  H
  H395     1.0000 0.38870  0.45230  0.89470  Biso   1.000  H
  H396     1.0000 0.61130  0.95230  0.60530  Biso   1.000  H
  H397     1.0000 0.13870  0.35530  0.29770  Biso   1.000  H
  H398     1.0000 0.36130  0.64470  0.79770  Biso   1.000  H
  H399     1.0000 0.63870  0.14470  0.70230  Biso   1.000  H
  H400     1.0000 0.86130  0.85530  0.20230  Biso   1.000  H
  H401     1.0000 0.35530  0.29770  0.13870  Biso   1.000  H
  H402     1.0000 0.64470  0.79770  0.36130  Biso   1.000  H
  H403     1.0000 0.14470  0.70230  0.63870  Biso   1.000  H
  H404     1.0000 0.85530  0.20230  0.86130  Biso   1.000  H
  H405     1.0000 0.29770  0.13870  0.35530  Biso   1.000  H
  H406     1.0000 0.79770  0.36130  0.64470  Biso   1.000  H
  H407     1.0000 0.70230  0.63870  0.14470  Biso   1.000  H
  H408     1.0000 0.20230  0.86130  0.85530  Biso   1.000  H
  H409     1.0000 0.60530  0.38870  0.54770  Biso   1.000  H
  H410     1.0000 0.89470  0.61130  0.04770  Biso   1.000  H
  H411     1.0000 0.39470  0.88870  0.95230  Biso   1.000  H
  H412     1.0000 0.10530  0.11130  0.45230  Biso   1.000  H
  H413     1.0000 0.54770  0.60530  0.38870  Biso   1.000  H
  H414     1.0000 0.04770  0.89470  0.61130  Biso   1.000  H
  H415     1.0000 0.95230  0.39470  0.88870  Biso   1.000  H
  H416     1.0000 0.45230  0.10530  0.11130  Biso   1.000  H
  H417     1.0000 0.38870  0.54770  0.60530  Biso   1.000  H
  H418     1.0000 0.61130  0.04770  0.89470  Biso   1.000  H
  H419     1.0000 0.88870  0.95230  0.39470  Biso   1.000  H
  H420     1.0000 0.11130  0.45230  0.10530  Biso   1.000  H
  H421     1.0000 0.63870  0.85530  0.79770  Biso   1.000  H
  H422     1.0000 0.86130  0.14470  0.29770  Biso   1.000  H
  H423     1.0000 0.13870  0.64470  0.20230  Biso   1.000  H
  H424     1.0000 0.36130  0.35530  0.70230  Biso   1.000  H
  H425     1.0000 0.85530  0.79770  0.63870  Biso   1.000  H
  H426     1.0000 0.14470  0.29770  0.86130  Biso   1.000  H
  H427     1.0000 0.64470  0.20230  0.13870  Biso   1.000  H
  H428     1.0000 0.35530  0.70230  0.36130  Biso   1.000  H
  H429     1.0000 0.79770  0.63870  0.85530  Biso   1.000  H
  H430     1.0000 0.29770  0.86130  0.14470  Biso   1.000  H
  H431     1.0000 0.20230  0.13870  0.64470  Biso   1.000  H
  H432     1.0000 0.70230  0.36130  0.35530  Biso   1.000  H
  C625     1.0000 0.32383  0.09338  0.98948  Biso   1.000  C
  C626     1.0000 0.17617  0.90662  0.48948  Biso   1.000  C
  C627     1.0000 0.67617  0.59338  0.51052  Biso   1.000  C
  C628     1.0000 0.82383  0.40662  0.01052  Biso   1.000  C
  C629     1.0000 0.98948  0.32383  0.09338  Biso   1.000  C
  C630     1.0000 0.48948  0.17617  0.90662  Biso   1.000  C
  C631     1.0000 0.51052  0.67617  0.59338  Biso   1.000  C
  C632     1.0000 0.01052  0.82383  0.40662  Biso   1.000  C
  C633     1.0000 0.09338  0.98948  0.32383  Biso   1.000  C
  C634     1.0000 0.90662  0.48948  0.17617  Biso   1.000  C
  C635     1.0000 0.59338  0.51052  0.67617  Biso   1.000  C
  C636     1.0000 0.40662  0.01052  0.82383  Biso   1.000  C
  C637     1.0000 0.34338  0.57383  0.23948  Biso   1.000  C
  C638     1.0000 0.15662  0.42617  0.73948  Biso   1.000  C
  C639     1.0000 0.84338  0.92617  0.76052  Biso   1.000  C
  C640     1.0000 0.65662  0.07383  0.26052  Biso   1.000  C
  C641     1.0000 0.57383  0.23948  0.34338  Biso   1.000  C
  C642     1.0000 0.42617  0.73948  0.15662  Biso   1.000  C
  C643     1.0000 0.92617  0.76052  0.84338  Biso   1.000  C
  C644     1.0000 0.07383  0.26052  0.65662  Biso   1.000  C
  C645     1.0000 0.23948  0.34338  0.57383  Biso   1.000  C
  C646     1.0000 0.73948  0.15662  0.42617  Biso   1.000  C
  C647     1.0000 0.76052  0.84338  0.92617  Biso   1.000  C
  C648     1.0000 0.26052  0.65662  0.07383  Biso   1.000  C
  C649     1.0000 0.82383  0.59338  0.48948  Biso   1.000  C
  C650     1.0000 0.67617  0.40662  0.98948  Biso   1.000  C
  C651     1.0000 0.17617  0.09338  0.01052  Biso   1.000  C
  C652     1.0000 0.32383  0.90662  0.51052  Biso   1.000  C
  C653     1.0000 0.48948  0.82383  0.59338  Biso   1.000  C
  C654     1.0000 0.98948  0.67617  0.40662  Biso   1.000  C
  C655     1.0000 0.01052  0.17617  0.09338  Biso   1.000  C
  C656     1.0000 0.51052  0.32383  0.90662  Biso   1.000  C
  C657     1.0000 0.59338  0.48948  0.82383  Biso   1.000  C
  C658     1.0000 0.40662  0.98948  0.67617  Biso   1.000  C
  C659     1.0000 0.09338  0.01052  0.17617  Biso   1.000  C
  C660     1.0000 0.90662  0.51052  0.32383  Biso   1.000  C
  C661     1.0000 0.84338  0.07383  0.73948  Biso   1.000  C
  C662     1.0000 0.65662  0.92617  0.23948  Biso   1.000  C
  C663     1.0000 0.34338  0.42617  0.26052  Biso   1.000  C
  C664     1.0000 0.15662  0.57383  0.76052  Biso   1.000  C
  C665     1.0000 0.07383  0.73948  0.84338  Biso   1.000  C
  C666     1.0000 0.92617  0.23948  0.65662  Biso   1.000  C
  C667     1.0000 0.42617  0.26052  0.34338  Biso   1.000  C
  C668     1.0000 0.57383  0.76052  0.15662  Biso   1.000  C
  C669     1.0000 0.73948  0.84338  0.07383  Biso   1.000  C
  C670     1.0000 0.23948  0.65662  0.92617  Biso   1.000  C
  C671     1.0000 0.26052  0.34338  0.42617  Biso   1.000  C
  C672     1.0000 0.76052  0.15662  0.57383  Biso   1.000  C
  H433     1.0000 0.31470  0.09100  0.96580  Biso   1.000  H
  H434     1.0000 0.18530  0.90900  0.46580  Biso   1.000  H
  H435     1.0000 0.68530  0.59100  0.53420  Biso   1.000  H
  H436     1.0000 0.81470  0.40900  0.03420  Biso   1.000  H
  H437     1.0000 0.96580  0.31470  0.09100  Biso   1.000  H
  H438     1.0000 0.46580  0.18530  0.90900  Biso   1.000  H
  H439     1.0000 0.53420  0.68530  0.59100  Biso   1.000  H
  H440     1.0000 0.03420  0.81470  0.40900  Biso   1.000  H
  H441     1.0000 0.09100  0.96580  0.31470  Biso   1.000  H
  H442     1.0000 0.90900  0.46580  0.18530  Biso   1.000  H
  H443     1.0000 0.59100  0.53420  0.68530  Biso   1.000  H
  H444     1.0000 0.40900  0.03420  0.81470  Biso   1.000  H
  H445     1.0000 0.34100  0.56470  0.21580  Biso   1.000  H
  H446     1.0000 0.15900  0.43530  0.71580  Biso   1.000  H
  H447     1.0000 0.84100  0.93530  0.78420  Biso   1.000  H
  H448     1.0000 0.65900  0.06470  0.28420  Biso   1.000  H
  H449     1.0000 0.56470  0.21580  0.34100  Biso   1.000  H
  H450     1.0000 0.43530  0.71580  0.15900  Biso   1.000  H
  H451     1.0000 0.93530  0.78420  0.84100  Biso   1.000  H
  H452     1.0000 0.06470  0.28420  0.65900  Biso   1.000  H
  H453     1.0000 0.21580  0.34100  0.56470  Biso   1.000  H
  H454     1.0000 0.71580  0.15900  0.43530  Biso   1.000  H
  H455     1.0000 0.78420  0.84100  0.93530  Biso   1.000  H
  H456     1.0000 0.28420  0.65900  0.06470  Biso   1.000  H
  H457     1.0000 0.81470  0.59100  0.46580  Biso   1.000  H
  H458     1.0000 0.68530  0.40900  0.96580  Biso   1.000  H
  H459     1.0000 0.18530  0.09100  0.03420  Biso   1.000  H
  H460     1.0000 0.31470  0.90900  0.53420  Biso   1.000  H
  H461     1.0000 0.46580  0.81470  0.59100  Biso   1.000  H
  H462     1.0000 0.96580  0.68530  0.40900  Biso   1.000  H
  H463     1.0000 0.03420  0.18530  0.09100  Biso   1.000  H
  H464     1.0000 0.53420  0.31470  0.90900  Biso   1.000  H
  H465     1.0000 0.59100  0.46580  0.81470  Biso   1.000  H
  H466     1.0000 0.40900  0.96580  0.68530  Biso   1.000  H
  H467     1.0000 0.09100  0.03420  0.18530  Biso   1.000  H
  H468     1.0000 0.90900  0.53420  0.31470  Biso   1.000  H
  H469     1.0000 0.84100  0.06470  0.71580  Biso   1.000  H
  H470     1.0000 0.65900  0.93530  0.21580  Biso   1.000  H
  H471     1.0000 0.34100  0.43530  0.28420  Biso   1.000  H
  H472     1.0000 0.15900  0.56470  0.78420  Biso   1.000  H
  H473     1.0000 0.06470  0.71580  0.84100  Biso   1.000  H
  H474     1.0000 0.93530  0.21580  0.65900  Biso   1.000  H
  H475     1.0000 0.43530  0.28420  0.34100  Biso   1.000  H
  H476     1.0000 0.56470  0.78420  0.15900  Biso   1.000  H
  H477     1.0000 0.71580  0.84100  0.06470  Biso   1.000  H
  H478     1.0000 0.21580  0.65900  0.93530  Biso   1.000  H
  H479     1.0000 0.28420  0.34100  0.43530  Biso   1.000  H
  H480     1.0000 0.78420  0.15900  0.56470  Biso   1.000  H
  H481     1.0000 0.30610  0.10480  0.00380  Biso   1.000  H
  H482     1.0000 0.19390  0.89520  0.50380  Biso   1.000  H
  H483     1.0000 0.69390  0.60480  0.49620  Biso   1.000  H
  H484     1.0000 0.80610  0.39520  0.99620  Biso   1.000  H
  H485     1.0000 0.00380  0.30610  0.10480  Biso   1.000  H
  H486     1.0000 0.50380  0.19390  0.89520  Biso   1.000  H
  H487     1.0000 0.49620  0.69390  0.60480  Biso   1.000  H
  H488     1.0000 0.99620  0.80610  0.39520  Biso   1.000  H
  H489     1.0000 0.10480  0.00380  0.30610  Biso   1.000  H
  H490     1.0000 0.89520  0.50380  0.19390  Biso   1.000  H
  H491     1.0000 0.60480  0.49620  0.69390  Biso   1.000  H
  H492     1.0000 0.39520  0.99620  0.80610  Biso   1.000  H
  H493     1.0000 0.35480  0.55610  0.25380  Biso   1.000  H
  H494     1.0000 0.14520  0.44390  0.75380  Biso   1.000  H
  H495     1.0000 0.85480  0.94390  0.74620  Biso   1.000  H
  H496     1.0000 0.64520  0.05610  0.24620  Biso   1.000  H
  H497     1.0000 0.55610  0.25380  0.35480  Biso   1.000  H
  H498     1.0000 0.44390  0.75380  0.14520  Biso   1.000  H
  H499     1.0000 0.94390  0.74620  0.85480  Biso   1.000  H
  H500     1.0000 0.05610  0.24620  0.64520  Biso   1.000  H
  H501     1.0000 0.25380  0.35480  0.55610  Biso   1.000  H
  H502     1.0000 0.75380  0.14520  0.44390  Biso   1.000  H
  H503     1.0000 0.74620  0.85480  0.94390  Biso   1.000  H
  H504     1.0000 0.24620  0.64520  0.05610  Biso   1.000  H
  H505     1.0000 0.80610  0.60480  0.50380  Biso   1.000  H
  H506     1.0000 0.69390  0.39520  0.00380  Biso   1.000  H
  H507     1.0000 0.19390  0.10480  0.99620  Biso   1.000  H
  H508     1.0000 0.30610  0.89520  0.49620  Biso   1.000  H
  H509     1.0000 0.50380  0.80610  0.60480  Biso   1.000  H
  H510     1.0000 0.00380  0.69390  0.39520  Biso   1.000  H
  H511     1.0000 0.99620  0.19390  0.10480  Biso   1.000  H
  H512     1.0000 0.49620  0.30610  0.89520  Biso   1.000  H
  H513     1.0000 0.60480  0.50380  0.80610  Biso   1.000  H
  H514     1.0000 0.39520  0.00380  0.69390  Biso   1.000  H
  H515     1.0000 0.10480  0.99620  0.19390  Biso   1.000  H
  H516     1.0000 0.89520  0.49620  0.30610  Biso   1.000  H
  H517     1.0000 0.85480  0.05610  0.75380  Biso   1.000  H
  H518     1.0000 0.64520  0.94390  0.25380  Biso   1.000  H
  H519     1.0000 0.35480  0.44390  0.24620  Biso   1.000  H
  H520     1.0000 0.14520  0.55610  0.74620  Biso   1.000  H
  H521     1.0000 0.05610  0.75380  0.85480  Biso   1.000  H
  H522     1.0000 0.94390  0.25380  0.64520  Biso   1.000  H
  H523     1.0000 0.44390  0.24620  0.35480  Biso   1.000  H
  H524     1.0000 0.55610  0.74620  0.14520  Biso   1.000  H
  H525     1.0000 0.75380  0.85480  0.05610  Biso   1.000  H
  H526     1.0000 0.25380  0.64520  0.94390  Biso   1.000  H
  H527     1.0000 0.24620  0.35480  0.44390  Biso   1.000  H
  H528     1.0000 0.74620  0.14520  0.55610  Biso   1.000  H
  C673     1.0000 0.40783  0.06598  0.01858  Biso   1.000  C
  C674     1.0000 0.09217  0.93402  0.51858  Biso   1.000  C
  C675     1.0000 0.59217  0.56598  0.48142  Biso   1.000  C
  C676     1.0000 0.90783  0.43402  0.98142  Biso   1.000  C
  C677     1.0000 0.01858  0.40783  0.06598  Biso   1.000  C
  C678     1.0000 0.51858  0.09217  0.93402  Biso   1.000  C
  C679     1.0000 0.48142  0.59217  0.56598  Biso   1.000  C
  C680     1.0000 0.98142  0.90783  0.43402  Biso   1.000  C
  C681     1.0000 0.06598  0.01858  0.40783  Biso   1.000  C
  C682     1.0000 0.93402  0.51858  0.09217  Biso   1.000  C
  C683     1.0000 0.56598  0.48142  0.59217  Biso   1.000  C
  C684     1.0000 0.43402  0.98142  0.90783  Biso   1.000  C
  C685     1.0000 0.31598  0.65783  0.26858  Biso   1.000  C
  C686     1.0000 0.18402  0.34217  0.76858  Biso   1.000  C
  C687     1.0000 0.81598  0.84217  0.73142  Biso   1.000  C
  C688     1.0000 0.68402  0.15783  0.23142  Biso   1.000  C
  C689     1.0000 0.65783  0.26858  0.31598  Biso   1.000  C
  C690     1.0000 0.34217  0.76858  0.18402  Biso   1.000  C
  C691     1.0000 0.84217  0.73142  0.81598  Biso   1.000  C
  C692     1.0000 0.15783  0.23142  0.68402  Biso   1.000  C
  C693     1.0000 0.26858  0.31598  0.65783  Biso   1.000  C
  C694     1.0000 0.76858  0.18402  0.34217  Biso   1.000  C
  C695     1.0000 0.73142  0.81598  0.84217  Biso   1.000  C
  C696     1.0000 0.23142  0.68402  0.15783  Biso   1.000  C
  C697     1.0000 0.90783  0.56598  0.51858  Biso   1.000  C
  C698     1.0000 0.59217  0.43402  0.01858  Biso   1.000  C
  C699     1.0000 0.09217  0.06598  0.98142  Biso   1.000  C
  C700     1.0000 0.40783  0.93402  0.48142  Biso   1.000  C
  C701     1.0000 0.51858  0.90783  0.56598  Biso   1.000  C
  C702     1.0000 0.01858  0.59217  0.43402  Biso   1.000  C
  C703     1.0000 0.98142  0.09217  0.06598  Biso   1.000  C
  C704     1.0000 0.48142  0.40783  0.93402  Biso   1.000  C
  C705     1.0000 0.56598  0.51858  0.90783  Biso   1.000  C
  C706     1.0000 0.43402  0.01858  0.59217  Biso   1.000  C
  C707     1.0000 0.06598  0.98142  0.09217  Biso   1.000  C
  C708     1.0000 0.93402  0.48142  0.40783  Biso   1.000  C
  C709     1.0000 0.81598  0.15783  0.76858  Biso   1.000  C
  C710     1.0000 0.68402  0.84217  0.26858  Biso   1.000  C
  C711     1.0000 0.31598  0.34217  0.23142  Biso   1.000  C
  C712     1.0000 0.18402  0.65783  0.73142  Biso   1.000  C
  C713     1.0000 0.15783  0.76858  0.81598  Biso   1.000  C
  C714     1.0000 0.84217  0.26858  0.68402  Biso   1.000  C
  C715     1.0000 0.34217  0.23142  0.31598  Biso   1.000  C
  C716     1.0000 0.65783  0.73142  0.18402  Biso   1.000  C
  C717     1.0000 0.76858  0.81598  0.15783  Biso   1.000  C
  C718     1.0000 0.26858  0.68402  0.84217  Biso   1.000  C
  C719     1.0000 0.23142  0.31598  0.34217  Biso   1.000  C
  C720     1.0000 0.73142  0.18402  0.65783  Biso   1.000  C
  H529     1.0000 0.41330  0.04300  0.02820  Biso   1.000  H
  H530     1.0000 0.08670  0.95700  0.52820  Biso   1.000  H
  H531     1.0000 0.58670  0.54300  0.47180  Biso   1.000  H
  H532     1.0000 0.91330  0.45700  0.97180  Biso   1.000  H
  H533     1.0000 0.02820  0.41330  0.04300  Biso   1.000  H
  H534     1.0000 0.52820  0.08670  0.95700  Biso   1.000  H
  H535     1.0000 0.47180  0.58670  0.54300  Biso   1.000  H
  H536     1.0000 0.97180  0.91330  0.45700  Biso   1.000  H
  H537     1.0000 0.04300  0.02820  0.41330  Biso   1.000  H
  H538     1.0000 0.95700  0.52820  0.08670  Biso   1.000  H
  H539     1.0000 0.54300  0.47180  0.58670  Biso   1.000  H
  H540     1.0000 0.45700  0.97180  0.91330  Biso   1.000  H
  H541     1.0000 0.29300  0.66330  0.27820  Biso   1.000  H
  H542     1.0000 0.20700  0.33670  0.77820  Biso   1.000  H
  H543     1.0000 0.79300  0.83670  0.72180  Biso   1.000  H
  H544     1.0000 0.70700  0.16330  0.22180  Biso   1.000  H
  H545     1.0000 0.66330  0.27820  0.29300  Biso   1.000  H
  H546     1.0000 0.33670  0.77820  0.20700  Biso   1.000  H
  H547     1.0000 0.83670  0.72180  0.79300  Biso   1.000  H
  H548     1.0000 0.16330  0.22180  0.70700  Biso   1.000  H
  H549     1.0000 0.27820  0.29300  0.66330  Biso   1.000  H
  H550     1.0000 0.77820  0.20700  0.33670  Biso   1.000  H
  H551     1.0000 0.72180  0.79300  0.83670  Biso   1.000  H
  H552     1.0000 0.22180  0.70700  0.16330  Biso   1.000  H
  H553     1.0000 0.91330  0.54300  0.52820  Biso   1.000  H
  H554     1.0000 0.58670  0.45700  0.02820  Biso   1.000  H
  H555     1.0000 0.08670  0.04300  0.97180  Biso   1.000  H
  H556     1.0000 0.41330  0.95700  0.47180  Biso   1.000  H
  H557     1.0000 0.52820  0.91330  0.54300  Biso   1.000  H
  H558     1.0000 0.02820  0.58670  0.45700  Biso   1.000  H
  H559     1.0000 0.97180  0.08670  0.04300  Biso   1.000  H
  H560     1.0000 0.47180  0.41330  0.95700  Biso   1.000  H
  H561     1.0000 0.54300  0.52820  0.91330  Biso   1.000  H
  H562     1.0000 0.45700  0.02820  0.58670  Biso   1.000  H
  H563     1.0000 0.04300  0.97180  0.08670  Biso   1.000  H
  H564     1.0000 0.95700  0.47180  0.41330  Biso   1.000  H
  H565     1.0000 0.79300  0.16330  0.77820  Biso   1.000  H
  H566     1.0000 0.70700  0.83670  0.27820  Biso   1.000  H
  H567     1.0000 0.29300  0.33670  0.22180  Biso   1.000  H
  H568     1.0000 0.20700  0.66330  0.72180  Biso   1.000  H
  H569     1.0000 0.16330  0.77820  0.79300  Biso   1.000  H
  H570     1.0000 0.83670  0.27820  0.70700  Biso   1.000  H
  H571     1.0000 0.33670  0.22180  0.29300  Biso   1.000  H
  H572     1.0000 0.66330  0.72180  0.20700  Biso   1.000  H
  H573     1.0000 0.77820  0.79300  0.16330  Biso   1.000  H
  H574     1.0000 0.27820  0.70700  0.83670  Biso   1.000  H
  H575     1.0000 0.22180  0.29300  0.33670  Biso   1.000  H
  H576     1.0000 0.72180  0.20700  0.66330  Biso   1.000  H
  H577     1.0000 0.42930  0.07980  0.01840  Biso   1.000  H
  H578     1.0000 0.07070  0.92020  0.51840  Biso   1.000  H
  H579     1.0000 0.57070  0.57980  0.48160  Biso   1.000  H
  H580     1.0000 0.92930  0.42020  0.98160  Biso   1.000  H
  H581     1.0000 0.01840  0.42930  0.07980  Biso   1.000  H
  H582     1.0000 0.51840  0.07070  0.92020  Biso   1.000  H
  H583     1.0000 0.48160  0.57070  0.57980  Biso   1.000  H
  H584     1.0000 0.98160  0.92930  0.42020  Biso   1.000  H
  H585     1.0000 0.07980  0.01840  0.42930  Biso   1.000  H
  H586     1.0000 0.92020  0.51840  0.07070  Biso   1.000  H
  H587     1.0000 0.57980  0.48160  0.57070  Biso   1.000  H
  H588     1.0000 0.42020  0.98160  0.92930  Biso   1.000  H
  H589     1.0000 0.32980  0.67930  0.26840  Biso   1.000  H
  H590     1.0000 0.17020  0.32070  0.76840  Biso   1.000  H
  H591     1.0000 0.82980  0.82070  0.73160  Biso   1.000  H
  H592     1.0000 0.67020  0.17930  0.23160  Biso   1.000  H
  H593     1.0000 0.67930  0.26840  0.32980  Biso   1.000  H
  H594     1.0000 0.32070  0.76840  0.17020  Biso   1.000  H
  H595     1.0000 0.82070  0.73160  0.82980  Biso   1.000  H
  H596     1.0000 0.17930  0.23160  0.67020  Biso   1.000  H
  H597     1.0000 0.26840  0.32980  0.67930  Biso   1.000  H
  H598     1.0000 0.76840  0.17020  0.32070  Biso   1.000  H
  H599     1.0000 0.73160  0.82980  0.82070  Biso   1.000  H
  H600     1.0000 0.23160  0.67020  0.17930  Biso   1.000  H
  H601     1.0000 0.92930  0.57980  0.51840  Biso   1.000  H
  H602     1.0000 0.57070  0.42020  0.01840  Biso   1.000  H
  H603     1.0000 0.07070  0.07980  0.98160  Biso   1.000  H
  H604     1.0000 0.42930  0.92020  0.48160  Biso   1.000  H
  H605     1.0000 0.51840  0.92930  0.57980  Biso   1.000  H
  H606     1.0000 0.01840  0.57070  0.42020  Biso   1.000  H
  H607     1.0000 0.98160  0.07070  0.07980  Biso   1.000  H
  H608     1.0000 0.48160  0.42930  0.92020  Biso   1.000  H
  H609     1.0000 0.57980  0.51840  0.92930  Biso   1.000  H
  H610     1.0000 0.42020  0.01840  0.57070  Biso   1.000  H
  H611     1.0000 0.07980  0.98160  0.07070  Biso   1.000  H
  H612     1.0000 0.92020  0.48160  0.42930  Biso   1.000  H
  H613     1.0000 0.82980  0.17930  0.76840  Biso   1.000  H
  H614     1.0000 0.67020  0.82070  0.26840  Biso   1.000  H
  H615     1.0000 0.32980  0.32070  0.23160  Biso   1.000  H
  H616     1.0000 0.17020  0.67930  0.73160  Biso   1.000  H
  H617     1.0000 0.17930  0.76840  0.82980  Biso   1.000  H
  H618     1.0000 0.82070  0.26840  0.67020  Biso   1.000  H
  H619     1.0000 0.32070  0.23160  0.32980  Biso   1.000  H
  H620     1.0000 0.67930  0.73160  0.17020  Biso   1.000  H
  H621     1.0000 0.76840  0.82980  0.17930  Biso   1.000  H
  H622     1.0000 0.26840  0.67020  0.82070  Biso   1.000  H
  H623     1.0000 0.23160  0.32980  0.32070  Biso   1.000  H
  H624     1.0000 0.73160  0.17020  0.67930  Biso   1.000  H
  C721     1.0000 0.27260  0.99959  0.10860  Biso   1.000  C
  C722     1.0000 0.22740  0.00041  0.60860  Biso   1.000  C
  C723     1.0000 0.72740  0.49959  0.39140  Biso   1.000  C
  C724     1.0000 0.77260  0.50041  0.89140  Biso   1.000  C
  C725     1.0000 0.10860  0.27260  0.99959  Biso   1.000  C
  C726     1.0000 0.60860  0.22740  0.00041  Biso   1.000  C
  C727     1.0000 0.39140  0.72740  0.49959  Biso   1.000  C
  C728     1.0000 0.89140  0.77260  0.50041  Biso   1.000  C
  C729     1.0000 0.99959  0.10860  0.27260  Biso   1.000  C
  C730     1.0000 0.00041  0.60860  0.22740  Biso   1.000  C
  C731     1.0000 0.49959  0.39140  0.72740  Biso   1.000  C
  C732     1.0000 0.50041  0.89140  0.77260  Biso   1.000  C
  C733     1.0000 0.24959  0.52260  0.35860  Biso   1.000  C
  C734     1.0000 0.25041  0.47740  0.85860  Biso   1.000  C
  C735     1.0000 0.74959  0.97740  0.64140  Biso   1.000  C
  C736     1.0000 0.75041  0.02260  0.14140  Biso   1.000  C
  C737     1.0000 0.52260  0.35860  0.24959  Biso   1.000  C
  C738     1.0000 0.47740  0.85860  0.25041  Biso   1.000  C
  C739     1.0000 0.97740  0.64140  0.74959  Biso   1.000  C
  C740     1.0000 0.02260  0.14140  0.75041  Biso   1.000  C
  C741     1.0000 0.35860  0.24959  0.52260  Biso   1.000  C
  C742     1.0000 0.85860  0.25041  0.47740  Biso   1.000  C
  C743     1.0000 0.64140  0.74959  0.97740  Biso   1.000  C
  C744     1.0000 0.14140  0.75041  0.02260  Biso   1.000  C
  C745     1.0000 0.77260  0.49959  0.60860  Biso   1.000  C
  C746     1.0000 0.72740  0.50041  0.10860  Biso   1.000  C
  C747     1.0000 0.22740  0.99959  0.89140  Biso   1.000  C
  C748     1.0000 0.27260  0.00041  0.39140  Biso   1.000  C
  C749     1.0000 0.60860  0.77260  0.49959  Biso   1.000  C
  C750     1.0000 0.10860  0.72740  0.50041  Biso   1.000  C
  C751     1.0000 0.89140  0.22740  0.99959  Biso   1.000  C
  C752     1.0000 0.39140  0.27260  0.00041  Biso   1.000  C
  C753     1.0000 0.49959  0.60860  0.77260  Biso   1.000  C
  C754     1.0000 0.50041  0.10860  0.72740  Biso   1.000  C
  C755     1.0000 0.99959  0.89140  0.22740  Biso   1.000  C
  C756     1.0000 0.00041  0.39140  0.27260  Biso   1.000  C
  C757     1.0000 0.74959  0.02260  0.85860  Biso   1.000  C
  C758     1.0000 0.75041  0.97740  0.35860  Biso   1.000  C
  C759     1.0000 0.24959  0.47740  0.14140  Biso   1.000  C
  C760     1.0000 0.25041  0.52260  0.64140  Biso   1.000  C
  C761     1.0000 0.02260  0.85860  0.74959  Biso   1.000  C
  C762     1.0000 0.97740  0.35860  0.75041  Biso   1.000  C
  C763     1.0000 0.47740  0.14140  0.24959  Biso   1.000  C
  C764     1.0000 0.52260  0.64140  0.25041  Biso   1.000  C
  C765     1.0000 0.85860  0.74959  0.02260  Biso   1.000  C
  C766     1.0000 0.35860  0.75041  0.97740  Biso   1.000  C
  C767     1.0000 0.14140  0.24959  0.47740  Biso   1.000  C
  C768     1.0000 0.64140  0.25041  0.52260  Biso   1.000  C
  H625     1.0000 0.29410  0.00400  0.09790  Biso   1.000  H
  H626     1.0000 0.20590  0.99600  0.59790  Biso   1.000  H
  H627     1.0000 0.70590  0.50400  0.40210  Biso   1.000  H
  H628     1.0000 0.79410  0.49600  0.90210  Biso   1.000  H
  H629     1.0000 0.09790  0.29410  0.00400  Biso   1.000  H
  H630     1.0000 0.59790  0.20590  0.99600  Biso   1.000  H
  H631     1.0000 0.40210  0.70590  0.50400  Biso   1.000  H
  H632     1.0000 0.90210  0.79410  0.49600  Biso   1.000  H
  H633     1.0000 0.00400  0.09790  0.29410  Biso   1.000  H
  H634     1.0000 0.99600  0.59790  0.20590  Biso   1.000  H
  H635     1.0000 0.50400  0.40210  0.70590  Biso   1.000  H
  H636     1.0000 0.49600  0.90210  0.79410  Biso   1.000  H
  H637     1.0000 0.25400  0.54410  0.34790  Biso   1.000  H
  H638     1.0000 0.24600  0.45590  0.84790  Biso   1.000  H
  H639     1.0000 0.75400  0.95590  0.65210  Biso   1.000  H
  H640     1.0000 0.74600  0.04410  0.15210  Biso   1.000  H
  H641     1.0000 0.54410  0.34790  0.25400  Biso   1.000  H
  H642     1.0000 0.45590  0.84790  0.24600  Biso   1.000  H
  H643     1.0000 0.95590  0.65210  0.75400  Biso   1.000  H
  H644     1.0000 0.04410  0.15210  0.74600  Biso   1.000  H
  H645     1.0000 0.34790  0.25400  0.54410  Biso   1.000  H
  H646     1.0000 0.84790  0.24600  0.45590  Biso   1.000  H
  H647     1.0000 0.65210  0.75400  0.95590  Biso   1.000  H
  H648     1.0000 0.15210  0.74600  0.04410  Biso   1.000  H
  H649     1.0000 0.79410  0.50400  0.59790  Biso   1.000  H
  H650     1.0000 0.70590  0.49600  0.09790  Biso   1.000  H
  H651     1.0000 0.20590  0.00400  0.90210  Biso   1.000  H
  H652     1.0000 0.29410  0.99600  0.40210  Biso   1.000  H
  H653     1.0000 0.59790  0.79410  0.50400  Biso   1.000  H
  H654     1.0000 0.09790  0.70590  0.49600  Biso   1.000  H
  H655     1.0000 0.90210  0.20590  0.00400  Biso   1.000  H
  H656     1.0000 0.40210  0.29410  0.99600  Biso   1.000  H
  H657     1.0000 0.50400  0.59790  0.79410  Biso   1.000  H
  H658     1.0000 0.49600  0.09790  0.70590  Biso   1.000  H
  H659     1.0000 0.00400  0.90210  0.20590  Biso   1.000  H
  H660     1.0000 0.99600  0.40210  0.29410  Biso   1.000  H
  H661     1.0000 0.75400  0.04410  0.84790  Biso   1.000  H
  H662     1.0000 0.74600  0.95590  0.34790  Biso   1.000  H
  H663     1.0000 0.25400  0.45590  0.15210  Biso   1.000  H
  H664     1.0000 0.24600  0.54410  0.65210  Biso   1.000  H
  H665     1.0000 0.04410  0.84790  0.75400  Biso   1.000  H
  H666     1.0000 0.95590  0.34790  0.74600  Biso   1.000  H
  H667     1.0000 0.45590  0.15210  0.25400  Biso   1.000  H
  H668     1.0000 0.54410  0.65210  0.24600  Biso   1.000  H
  H669     1.0000 0.84790  0.75400  0.04410  Biso   1.000  H
  H670     1.0000 0.34790  0.74600  0.95590  Biso   1.000  H
  H671     1.0000 0.15210  0.25400  0.45590  Biso   1.000  H
  H672     1.0000 0.65210  0.24600  0.54410  Biso   1.000  H
  C769     1.0000 0.15844  0.09325  0.20936  Biso   1.000  C
  C770     1.0000 0.34156  0.90675  0.70936  Biso   1.000  C
  C771     1.0000 0.84156  0.59325  0.29064  Biso   1.000  C
  C772     1.0000 0.65844  0.40675  0.79064  Biso   1.000  C
  C773     1.0000 0.20936  0.15844  0.09325  Biso   1.000  C
  C774     1.0000 0.70936  0.34156  0.90675  Biso   1.000  C
  C775     1.0000 0.29064  0.84156  0.59325  Biso   1.000  C
  C776     1.0000 0.79064  0.65844  0.40675  Biso   1.000  C
  C777     1.0000 0.09325  0.20936  0.15844  Biso   1.000  C
  C778     1.0000 0.90675  0.70936  0.34156  Biso   1.000  C
  C779     1.0000 0.59325  0.29064  0.84156  Biso   1.000  C
  C780     1.0000 0.40675  0.79064  0.65844  Biso   1.000  C
  C781     1.0000 0.34325  0.40844  0.45936  Biso   1.000  C
  C782     1.0000 0.15675  0.59156  0.95936  Biso   1.000  C
  C783     1.0000 0.84325  0.09156  0.54064  Biso   1.000  C
  C784     1.0000 0.65675  0.90844  0.04064  Biso   1.000  C
  C785     1.0000 0.40844  0.45936  0.34325  Biso   1.000  C
  C786     1.0000 0.59156  0.95936  0.15675  Biso   1.000  C
  C787     1.0000 0.09156  0.54064  0.84325  Biso   1.000  C
  C788     1.0000 0.90844  0.04064  0.65675  Biso   1.000  C
  C789     1.0000 0.45936  0.34325  0.40844  Biso   1.000  C
  C790     1.0000 0.95936  0.15675  0.59156  Biso   1.000  C
  C791     1.0000 0.54064  0.84325  0.09156  Biso   1.000  C
  C792     1.0000 0.04064  0.65675  0.90844  Biso   1.000  C
  C793     1.0000 0.65844  0.59325  0.70936  Biso   1.000  C
  C794     1.0000 0.84156  0.40675  0.20936  Biso   1.000  C
  C795     1.0000 0.34156  0.09325  0.79064  Biso   1.000  C
  C796     1.0000 0.15844  0.90675  0.29064  Biso   1.000  C
  C797     1.0000 0.70936  0.65844  0.59325  Biso   1.000  C
  C798     1.0000 0.20936  0.84156  0.40675  Biso   1.000  C
  C799     1.0000 0.79064  0.34156  0.09325  Biso   1.000  C
  C800     1.0000 0.29064  0.15844  0.90675  Biso   1.000  C
  C801     1.0000 0.59325  0.70936  0.65844  Biso   1.000  C
  C802     1.0000 0.40675  0.20936  0.84156  Biso   1.000  C
  C803     1.0000 0.09325  0.79064  0.34156  Biso   1.000  C
  C804     1.0000 0.90675  0.29064  0.15844  Biso   1.000  C
  C805     1.0000 0.84325  0.90844  0.95936  Biso   1.000  C
  C806     1.0000 0.65675  0.09156  0.45936  Biso   1.000  C
  C807     1.0000 0.34325  0.59156  0.04064  Biso   1.000  C
  C808     1.0000 0.15675  0.40844  0.54064  Biso   1.000  C
  C809     1.0000 0.90844  0.95936  0.84325  Biso   1.000  C
  C810     1.0000 0.09156  0.45936  0.65675  Biso   1.000  C
  C811     1.0000 0.59156  0.04064  0.34325  Biso   1.000  C
  C812     1.0000 0.40844  0.54064  0.15675  Biso   1.000  C
  C813     1.0000 0.95936  0.84325  0.90844  Biso   1.000  C
  C814     1.0000 0.45936  0.65675  0.09156  Biso   1.000  C
  C815     1.0000 0.04064  0.34325  0.59156  Biso   1.000  C
  C816     1.0000 0.54064  0.15675  0.40844  Biso   1.000  C
  H673     1.0000 0.15080  0.07480  0.19350  Biso   1.000  H
  H674     1.0000 0.34920  0.92520  0.69350  Biso   1.000  H
  H675     1.0000 0.84920  0.57480  0.30650  Biso   1.000  H
  H676     1.0000 0.65080  0.42520  0.80650  Biso   1.000  H
  H677     1.0000 0.19350  0.15080  0.07480  Biso   1.000  H
  H678     1.0000 0.69350  0.34920  0.92520  Biso   1.000  H
  H679     1.0000 0.30650  0.84920  0.57480  Biso   1.000  H
  H680     1.0000 0.80650  0.65080  0.42520  Biso   1.000  H
  H681     1.0000 0.07480  0.19350  0.15080  Biso   1.000  H
  H682     1.0000 0.92520  0.69350  0.34920  Biso   1.000  H
  H683     1.0000 0.57480  0.30650  0.84920  Biso   1.000  H
  H684     1.0000 0.42520  0.80650  0.65080  Biso   1.000  H
  H685     1.0000 0.32480  0.40080  0.44350  Biso   1.000  H
  H686     1.0000 0.17520  0.59920  0.94350  Biso   1.000  H
  H687     1.0000 0.82480  0.09920  0.55650  Biso   1.000  H
  H688     1.0000 0.67520  0.90080  0.05650  Biso   1.000  H
  H689     1.0000 0.40080  0.44350  0.32480  Biso   1.000  H
  H690     1.0000 0.59920  0.94350  0.17520  Biso   1.000  H
  H691     1.0000 0.09920  0.55650  0.82480  Biso   1.000  H
  H692     1.0000 0.90080  0.05650  0.67520  Biso   1.000  H
  H693     1.0000 0.44350  0.32480  0.40080  Biso   1.000  H
  H694     1.0000 0.94350  0.17520  0.59920  Biso   1.000  H
  H695     1.0000 0.55650  0.82480  0.09920  Biso   1.000  H
  H696     1.0000 0.05650  0.67520  0.90080  Biso   1.000  H
  H697     1.0000 0.65080  0.57480  0.69350  Biso   1.000  H
  H698     1.0000 0.84920  0.42520  0.19350  Biso   1.000  H
  H699     1.0000 0.34920  0.07480  0.80650  Biso   1.000  H
  H700     1.0000 0.15080  0.92520  0.30650  Biso   1.000  H
  H701     1.0000 0.69350  0.65080  0.57480  Biso   1.000  H
  H702     1.0000 0.19350  0.84920  0.42520  Biso   1.000  H
  H703     1.0000 0.80650  0.34920  0.07480  Biso   1.000  H
  H704     1.0000 0.30650  0.15080  0.92520  Biso   1.000  H
  H705     1.0000 0.57480  0.69350  0.65080  Biso   1.000  H
  H706     1.0000 0.42520  0.19350  0.84920  Biso   1.000  H
  H707     1.0000 0.07480  0.80650  0.34920  Biso   1.000  H
  H708     1.0000 0.92520  0.30650  0.15080  Biso   1.000  H
  H709     1.0000 0.82480  0.90080  0.94350  Biso   1.000  H
  H710     1.0000 0.67520  0.09920  0.44350  Biso   1.000  H
  H711     1.0000 0.32480  0.59920  0.05650  Biso   1.000  H
  H712     1.0000 0.17520  0.40080  0.55650  Biso   1.000  H
  H713     1.0000 0.90080  0.94350  0.82480  Biso   1.000  H
  H714     1.0000 0.09920  0.44350  0.67520  Biso   1.000  H
  H715     1.0000 0.59920  0.05650  0.32480  Biso   1.000  H
  H716     1.0000 0.40080  0.55650  0.17520  Biso   1.000  H
  H717     1.0000 0.94350  0.82480  0.90080  Biso   1.000  H
  H718     1.0000 0.44350  0.67520  0.09920  Biso   1.000  H
  H719     1.0000 0.05650  0.32480  0.59920  Biso   1.000  H
  H720     1.0000 0.55650  0.17520  0.40080  Biso   1.000  H
  H721     1.0000 0.18070  0.10230  0.20090  Biso   1.000  H
  H722     1.0000 0.31930  0.89770  0.70090  Biso   1.000  H
  H723     1.0000 0.81930  0.60230  0.29910  Biso   1.000  H
  H724     1.0000 0.68070  0.39770  0.79910  Biso   1.000  H
  H725     1.0000 0.20090  0.18070  0.10230  Biso   1.000  H
  H726     1.0000 0.70090  0.31930  0.89770  Biso   1.000  H
  H727     1.0000 0.29910  0.81930  0.60230  Biso   1.000  H
  H728     1.0000 0.79910  0.68070  0.39770  Biso   1.000  H
  H729     1.0000 0.10230  0.20090  0.18070  Biso   1.000  H
  H730     1.0000 0.89770  0.70090  0.31930  Biso   1.000  H
  H731     1.0000 0.60230  0.29910  0.81930  Biso   1.000  H
  H732     1.0000 0.39770  0.79910  0.68070  Biso   1.000  H
  H733     1.0000 0.35230  0.43070  0.45090  Biso   1.000  H
  H734     1.0000 0.14770  0.56930  0.95090  Biso   1.000  H
  H735     1.0000 0.85230  0.06930  0.54910  Biso   1.000  H
  H736     1.0000 0.64770  0.93070  0.04910  Biso   1.000  H
  H737     1.0000 0.43070  0.45090  0.35230  Biso   1.000  H
  H738     1.0000 0.56930  0.95090  0.14770  Biso   1.000  H
  H739     1.0000 0.06930  0.54910  0.85230  Biso   1.000  H
  H740     1.0000 0.93070  0.04910  0.64770  Biso   1.000  H
  H741     1.0000 0.45090  0.35230  0.43070  Biso   1.000  H
  H742     1.0000 0.95090  0.14770  0.56930  Biso   1.000  H
  H743     1.0000 0.54910  0.85230  0.06930  Biso   1.000  H
  H744     1.0000 0.04910  0.64770  0.93070  Biso   1.000  H
  H745     1.0000 0.68070  0.60230  0.70090  Biso   1.000  H
  H746     1.0000 0.81930  0.39770  0.20090  Biso   1.000  H
  H747     1.0000 0.31930  0.10230  0.79910  Biso   1.000  H
  H748     1.0000 0.18070  0.89770  0.29910  Biso   1.000  H
  H749     1.0000 0.70090  0.68070  0.60230  Biso   1.000  H
  H750     1.0000 0.20090  0.81930  0.39770  Biso   1.000  H
  H751     1.0000 0.79910  0.31930  0.10230  Biso   1.000  H
  H752     1.0000 0.29910  0.18070  0.89770  Biso   1.000  H
  H753     1.0000 0.60230  0.70090  0.68070  Biso   1.000  H
  H754     1.0000 0.39770  0.20090  0.81930  Biso   1.000  H
  H755     1.0000 0.10230  0.79910  0.31930  Biso   1.000  H
  H756     1.0000 0.89770  0.29910  0.18070  Biso   1.000  H
  H757     1.0000 0.85230  0.93070  0.95090  Biso   1.000  H
  H758     1.0000 0.64770  0.06930  0.45090  Biso   1.000  H
  H759     1.0000 0.35230  0.56930  0.04910  Biso   1.000  H
  H760     1.0000 0.14770  0.43070  0.54910  Biso   1.000  H
  H761     1.0000 0.93070  0.95090  0.85230  Biso   1.000  H
  H762     1.0000 0.06930  0.45090  0.64770  Biso   1.000  H
  H763     1.0000 0.56930  0.04910  0.35230  Biso   1.000  H
  H764     1.0000 0.43070  0.54910  0.14770  Biso   1.000  H
  H765     1.0000 0.95090  0.85230  0.93070  Biso   1.000  H
  H766     1.0000 0.45090  0.64770  0.06930  Biso   1.000  H
  H767     1.0000 0.04910  0.35230  0.56930  Biso   1.000  H
  H768     1.0000 0.54910  0.14770  0.43070  Biso   1.000  H
  C817     1.0000 0.16863  0.92045  0.99515  Biso   1.000  C
  C818     1.0000 0.33137  0.07955  0.49515  Biso   1.000  C
  C819     1.0000 0.83137  0.42045  0.50485  Biso   1.000  C
  C820     1.0000 0.66863  0.57955  0.00485  Biso   1.000  C
  C821     1.0000 0.99515  0.16863  0.92045  Biso   1.000  C
  C822     1.0000 0.49515  0.33137  0.07955  Biso   1.000  C
  C823     1.0000 0.50485  0.83137  0.42045  Biso   1.000  C
  C824     1.0000 0.00485  0.66863  0.57955  Biso   1.000  C
  C825     1.0000 0.92045  0.99515  0.16863  Biso   1.000  C
  C826     1.0000 0.07955  0.49515  0.33137  Biso   1.000  C
  C827     1.0000 0.42045  0.50485  0.83137  Biso   1.000  C
  C828     1.0000 0.57955  0.00485  0.66863  Biso   1.000  C
  C829     1.0000 0.17045  0.41863  0.24515  Biso   1.000  C
  C830     1.0000 0.32955  0.58137  0.74515  Biso   1.000  C
  C831     1.0000 0.67045  0.08137  0.75485  Biso   1.000  C
  C832     1.0000 0.82955  0.91863  0.25485  Biso   1.000  C
  C833     1.0000 0.41863  0.24515  0.17045  Biso   1.000  C
  C834     1.0000 0.58137  0.74515  0.32955  Biso   1.000  C
  C835     1.0000 0.08137  0.75485  0.67045  Biso   1.000  C
  C836     1.0000 0.91863  0.25485  0.82955  Biso   1.000  C
  C837     1.0000 0.24515  0.17045  0.41863  Biso   1.000  C
  C838     1.0000 0.74515  0.32955  0.58137  Biso   1.000  C
  C839     1.0000 0.75485  0.67045  0.08137  Biso   1.000  C
  C840     1.0000 0.25485  0.82955  0.91863  Biso   1.000  C
  C841     1.0000 0.66863  0.42045  0.49515  Biso   1.000  C
  C842     1.0000 0.83137  0.57955  0.99515  Biso   1.000  C
  C843     1.0000 0.33137  0.92045  0.00485  Biso   1.000  C
  C844     1.0000 0.16863  0.07955  0.50485  Biso   1.000  C
  C845     1.0000 0.49515  0.66863  0.42045  Biso   1.000  C
  C846     1.0000 0.99515  0.83137  0.57955  Biso   1.000  C
  C847     1.0000 0.00485  0.33137  0.92045  Biso   1.000  C
  C848     1.0000 0.50485  0.16863  0.07955  Biso   1.000  C
  C849     1.0000 0.42045  0.49515  0.66863  Biso   1.000  C
  C850     1.0000 0.57955  0.99515  0.83137  Biso   1.000  C
  C851     1.0000 0.92045  0.00485  0.33137  Biso   1.000  C
  C852     1.0000 0.07955  0.50485  0.16863  Biso   1.000  C
  C853     1.0000 0.67045  0.91863  0.74515  Biso   1.000  C
  C854     1.0000 0.82955  0.08137  0.24515  Biso   1.000  C
  C855     1.0000 0.17045  0.58137  0.25485  Biso   1.000  C
  C856     1.0000 0.32955  0.41863  0.75485  Biso   1.000  C
  C857     1.0000 0.91863  0.74515  0.67045  Biso   1.000  C
  C858     1.0000 0.08137  0.24515  0.82955  Biso   1.000  C
  C859     1.0000 0.58137  0.25485  0.17045  Biso   1.000  C
  C860     1.0000 0.41863  0.75485  0.32955  Biso   1.000  C
  C861     1.0000 0.74515  0.67045  0.91863  Biso   1.000  C
  C862     1.0000 0.24515  0.82955  0.08137  Biso   1.000  C
  C863     1.0000 0.25485  0.17045  0.58137  Biso   1.000  C
  C864     1.0000 0.75485  0.32955  0.41863  Biso   1.000  C
  C865     1.0000 0.26991  0.00123  0.14488  Biso   1.000  C
  C866     1.0000 0.23009  0.99877  0.64488  Biso   1.000  C
  C867     1.0000 0.73009  0.50123  0.35512  Biso   1.000  C
  C868     1.0000 0.76991  0.49877  0.85512  Biso   1.000  C
  C869     1.0000 0.14488  0.26991  0.00123  Biso   1.000  C
  C870     1.0000 0.64488  0.23009  0.99877  Biso   1.000  C
  C871     1.0000 0.35512  0.73009  0.50123  Biso   1.000  C
  C872     1.0000 0.85512  0.76991  0.49877  Biso   1.000  C
  C873     1.0000 0.00123  0.14488  0.26991  Biso   1.000  C
  C874     1.0000 0.99877  0.64488  0.23009  Biso   1.000  C
  C875     1.0000 0.50123  0.35512  0.73009  Biso   1.000  C
  C876     1.0000 0.49877  0.85512  0.76991  Biso   1.000  C
  C877     1.0000 0.25123  0.51991  0.39488  Biso   1.000  C
  C878     1.0000 0.24877  0.48009  0.89488  Biso   1.000  C
  C879     1.0000 0.75123  0.98009  0.60512  Biso   1.000  C
  C880     1.0000 0.74877  0.01991  0.10512  Biso   1.000  C
  C881     1.0000 0.51991  0.39488  0.25123  Biso   1.000  C
  C882     1.0000 0.48009  0.89488  0.24877  Biso   1.000  C
  C883     1.0000 0.98009  0.60512  0.75123  Biso   1.000  C
  C884     1.0000 0.01991  0.10512  0.74877  Biso   1.000  C
  C885     1.0000 0.39488  0.25123  0.51991  Biso   1.000  C
  C886     1.0000 0.89488  0.24877  0.48009  Biso   1.000  C
  C887     1.0000 0.60512  0.75123  0.98009  Biso   1.000  C
  C888     1.0000 0.10512  0.74877  0.01991  Biso   1.000  C
  C889     1.0000 0.76991  0.50123  0.64488  Biso   1.000  C
  C890     1.0000 0.73009  0.49877  0.14488  Biso   1.000  C
  C891     1.0000 0.23009  0.00123  0.85512  Biso   1.000  C
  C892     1.0000 0.26991  0.99877  0.35512  Biso   1.000  C
  C893     1.0000 0.64488  0.76991  0.50123  Biso   1.000  C
  C894     1.0000 0.14488  0.73009  0.49877  Biso   1.000  C
  C895     1.0000 0.85512  0.23009  0.00123  Biso   1.000  C
  C896     1.0000 0.35512  0.26991  0.99877  Biso   1.000  C
  C897     1.0000 0.50123  0.64488  0.76991  Biso   1.000  C
  C898     1.0000 0.49877  0.14488  0.73009  Biso   1.000  C
  C899     1.0000 0.00123  0.85512  0.23009  Biso   1.000  C
  C900     1.0000 0.99877  0.35512  0.26991  Biso   1.000  C
  C901     1.0000 0.75123  0.01991  0.89488  Biso   1.000  C
  C902     1.0000 0.74877  0.98009  0.39488  Biso   1.000  C
  C903     1.0000 0.25123  0.48009  0.10512  Biso   1.000  C
  C904     1.0000 0.24877  0.51991  0.60512  Biso   1.000  C
  C905     1.0000 0.01991  0.89488  0.75123  Biso   1.000  C
  C906     1.0000 0.98009  0.39488  0.74877  Biso   1.000  C
  C907     1.0000 0.48009  0.10512  0.25123  Biso   1.000  C
  C908     1.0000 0.51991  0.60512  0.24877  Biso   1.000  C
  C909     1.0000 0.89488  0.75123  0.01991  Biso   1.000  C
  C910     1.0000 0.39488  0.74877  0.98009  Biso   1.000  C
  C911     1.0000 0.10512  0.25123  0.48009  Biso   1.000  C
  C912     1.0000 0.60512  0.24877  0.51991  Biso   1.000  C
  H769     1.0000 0.28980  0.00650  0.15810  Biso   1.000  H
  H770     1.0000 0.21020  0.99350  0.65810  Biso   1.000  H
  H771     1.0000 0.71020  0.50650  0.34190  Biso   1.000  H
  H772     1.0000 0.78980  0.49350  0.84190  Biso   1.000  H
  H773     1.0000 0.15810  0.28980  0.00650  Biso   1.000  H
  H774     1.0000 0.65810  0.21020  0.99350  Biso   1.000  H
  H775     1.0000 0.34190  0.71020  0.50650  Biso   1.000  H
  H776     1.0000 0.84190  0.78980  0.49350  Biso   1.000  H
  H777     1.0000 0.00650  0.15810  0.28980  Biso   1.000  H
  H778     1.0000 0.99350  0.65810  0.21020  Biso   1.000  H
  H779     1.0000 0.50650  0.34190  0.71020  Biso   1.000  H
  H780     1.0000 0.49350  0.84190  0.78980  Biso   1.000  H
  H781     1.0000 0.25650  0.53980  0.40810  Biso   1.000  H
  H782     1.0000 0.24350  0.46020  0.90810  Biso   1.000  H
  H783     1.0000 0.75650  0.96020  0.59190  Biso   1.000  H
  H784     1.0000 0.74350  0.03980  0.09190  Biso   1.000  H
  H785     1.0000 0.53980  0.40810  0.25650  Biso   1.000  H
  H786     1.0000 0.46020  0.90810  0.24350  Biso   1.000  H
  H787     1.0000 0.96020  0.59190  0.75650  Biso   1.000  H
  H788     1.0000 0.03980  0.09190  0.74350  Biso   1.000  H
  H789     1.0000 0.40810  0.25650  0.53980  Biso   1.000  H
  H790     1.0000 0.90810  0.24350  0.46020  Biso   1.000  H
  H791     1.0000 0.59190  0.75650  0.96020  Biso   1.000  H
  H792     1.0000 0.09190  0.74350  0.03980  Biso   1.000  H
  H793     1.0000 0.78980  0.50650  0.65810  Biso   1.000  H
  H794     1.0000 0.71020  0.49350  0.15810  Biso   1.000  H
  H795     1.0000 0.21020  0.00650  0.84190  Biso   1.000  H
  H796     1.0000 0.28980  0.99350  0.34190  Biso   1.000  H
  H797     1.0000 0.65810  0.78980  0.50650  Biso   1.000  H
  H798     1.0000 0.15810  0.71020  0.49350  Biso   1.000  H
  H799     1.0000 0.84190  0.21020  0.00650  Biso   1.000  H
  H800     1.0000 0.34190  0.28980  0.99350  Biso   1.000  H
  H801     1.0000 0.50650  0.65810  0.78980  Biso   1.000  H
  H802     1.0000 0.49350  0.15810  0.71020  Biso   1.000  H
  H803     1.0000 0.00650  0.84190  0.21020  Biso   1.000  H
  H804     1.0000 0.99350  0.34190  0.28980  Biso   1.000  H
  H805     1.0000 0.75650  0.03980  0.90810  Biso   1.000  H
  H806     1.0000 0.74350  0.96020  0.40810  Biso   1.000  H
  H807     1.0000 0.25650  0.46020  0.09190  Biso   1.000  H
  H808     1.0000 0.24350  0.53980  0.59190  Biso   1.000  H
  H809     1.0000 0.03980  0.90810  0.75650  Biso   1.000  H
  H810     1.0000 0.96020  0.40810  0.74350  Biso   1.000  H
  H811     1.0000 0.46020  0.09190  0.25650  Biso   1.000  H
  H812     1.0000 0.53980  0.59190  0.24350  Biso   1.000  H
  H813     1.0000 0.90810  0.75650  0.03980  Biso   1.000  H
  H814     1.0000 0.40810  0.74350  0.96020  Biso   1.000  H
  H815     1.0000 0.09190  0.25650  0.46020  Biso   1.000  H
  H816     1.0000 0.59190  0.24350  0.53980  Biso   1.000  H
  C913     1.0000 0.09216  0.90691  0.99889  Biso   1.000  C
  C914     1.0000 0.40784  0.09309  0.49889  Biso   1.000  C
  C915     1.0000 0.90784  0.40691  0.50111  Biso   1.000  C
  C916     1.0000 0.59216  0.59309  0.00111  Biso   1.000  C
  C917     1.0000 0.99889  0.09216  0.90691  Biso   1.000  C
  C918     1.0000 0.49889  0.40784  0.09309  Biso   1.000  C
  C919     1.0000 0.50111  0.90784  0.40691  Biso   1.000  C
  C920     1.0000 0.00111  0.59216  0.59309  Biso   1.000  C
  C921     1.0000 0.90691  0.99889  0.09216  Biso   1.000  C
  C922     1.0000 0.09309  0.49889  0.40784  Biso   1.000  C
  C923     1.0000 0.40691  0.50111  0.90784  Biso   1.000  C
  C924     1.0000 0.59309  0.00111  0.59216  Biso   1.000  C
  C925     1.0000 0.15691  0.34216  0.24889  Biso   1.000  C
  C926     1.0000 0.34309  0.65784  0.74889  Biso   1.000  C
  C927     1.0000 0.65691  0.15784  0.75111  Biso   1.000  C
  C928     1.0000 0.84309  0.84216  0.25111  Biso   1.000  C
  C929     1.0000 0.34216  0.24889  0.15691  Biso   1.000  C
  C930     1.0000 0.65784  0.74889  0.34309  Biso   1.000  C
  C931     1.0000 0.15784  0.75111  0.65691  Biso   1.000  C
  C932     1.0000 0.84216  0.25111  0.84309  Biso   1.000  C
  C933     1.0000 0.24889  0.15691  0.34216  Biso   1.000  C
  C934     1.0000 0.74889  0.34309  0.65784  Biso   1.000  C
  C935     1.0000 0.75111  0.65691  0.15784  Biso   1.000  C
  C936     1.0000 0.25111  0.84309  0.84216  Biso   1.000  C
  C937     1.0000 0.59216  0.40691  0.49889  Biso   1.000  C
  C938     1.0000 0.90784  0.59309  0.99889  Biso   1.000  C
  C939     1.0000 0.40784  0.90691  0.00111  Biso   1.000  C
  C940     1.0000 0.09216  0.09309  0.50111  Biso   1.000  C
  C941     1.0000 0.49889  0.59216  0.40691  Biso   1.000  C
  C942     1.0000 0.99889  0.90784  0.59309  Biso   1.000  C
  C943     1.0000 0.00111  0.40784  0.90691  Biso   1.000  C
  C944     1.0000 0.50111  0.09216  0.09309  Biso   1.000  C
  C945     1.0000 0.40691  0.49889  0.59216  Biso   1.000  C
  C946     1.0000 0.59309  0.99889  0.90784  Biso   1.000  C
  C947     1.0000 0.90691  0.00111  0.40784  Biso   1.000  C
  C948     1.0000 0.09309  0.50111  0.09216  Biso   1.000  C
  C949     1.0000 0.65691  0.84216  0.74889  Biso   1.000  C
  C950     1.0000 0.84309  0.15784  0.24889  Biso   1.000  C
  C951     1.0000 0.15691  0.65784  0.25111  Biso   1.000  C
  C952     1.0000 0.34309  0.34216  0.75111  Biso   1.000  C
  C953     1.0000 0.84216  0.74889  0.65691  Biso   1.000  C
  C954     1.0000 0.15784  0.24889  0.84309  Biso   1.000  C
  C955     1.0000 0.65784  0.25111  0.15691  Biso   1.000  C
  C956     1.0000 0.34216  0.75111  0.34309  Biso   1.000  C
  C957     1.0000 0.74889  0.65691  0.84216  Biso   1.000  C
  C958     1.0000 0.24889  0.84309  0.15784  Biso   1.000  C
  C959     1.0000 0.25111  0.15691  0.65784  Biso   1.000  C
  C960     1.0000 0.75111  0.34309  0.34216  Biso   1.000  C
  H817     1.0000 0.08390  0.92960  0.00710  Biso   1.000  H
  H818     1.0000 0.41610  0.07040  0.50710  Biso   1.000  H
  H819     1.0000 0.91610  0.42960  0.49290  Biso   1.000  H
  H820     1.0000 0.58390  0.57040  0.99290  Biso   1.000  H
  H821     1.0000 0.00710  0.08390  0.92960  Biso   1.000  H
  H822     1.0000 0.50710  0.41610  0.07040  Biso   1.000  H
  H823     1.0000 0.49290  0.91610  0.42960  Biso   1.000  H
  H824     1.0000 0.99290  0.58390  0.57040  Biso   1.000  H
  H825     1.0000 0.92960  0.00710  0.08390  Biso   1.000  H
  H826     1.0000 0.07040  0.50710  0.41610  Biso   1.000  H
  H827     1.0000 0.42960  0.49290  0.91610  Biso   1.000  H
  H828     1.0000 0.57040  0.99290  0.58390  Biso   1.000  H
  H829     1.0000 0.17960  0.33390  0.25710  Biso   1.000  H
  H830     1.0000 0.32040  0.66610  0.75710  Biso   1.000  H
  H831     1.0000 0.67960  0.16610  0.74290  Biso   1.000  H
  H832     1.0000 0.82040  0.83390  0.24290  Biso   1.000  H
  H833     1.0000 0.33390  0.25710  0.17960  Biso   1.000  H
  H834     1.0000 0.66610  0.75710  0.32040  Biso   1.000  H
  H835     1.0000 0.16610  0.74290  0.67960  Biso   1.000  H
  H836     1.0000 0.83390  0.24290  0.82040  Biso   1.000  H
  H837     1.0000 0.25710  0.17960  0.33390  Biso   1.000  H
  H838     1.0000 0.75710  0.32040  0.66610  Biso   1.000  H
  H839     1.0000 0.74290  0.67960  0.16610  Biso   1.000  H
  H840     1.0000 0.24290  0.82040  0.83390  Biso   1.000  H
  H841     1.0000 0.58390  0.42960  0.50710  Biso   1.000  H
  H842     1.0000 0.91610  0.57040  0.00710  Biso   1.000  H
  H843     1.0000 0.41610  0.92960  0.99290  Biso   1.000  H
  H844     1.0000 0.08390  0.07040  0.49290  Biso   1.000  H
  H845     1.0000 0.50710  0.58390  0.42960  Biso   1.000  H
  H846     1.0000 0.00710  0.91610  0.57040  Biso   1.000  H
  H847     1.0000 0.99290  0.41610  0.92960  Biso   1.000  H
  H848     1.0000 0.49290  0.08390  0.07040  Biso   1.000  H
  H849     1.0000 0.42960  0.50710  0.58390  Biso   1.000  H
  H850     1.0000 0.57040  0.00710  0.91610  Biso   1.000  H
  H851     1.0000 0.92960  0.99290  0.41610  Biso   1.000  H
  H852     1.0000 0.07040  0.49290  0.08390  Biso   1.000  H
  H853     1.0000 0.67960  0.83390  0.75710  Biso   1.000  H
  H854     1.0000 0.82040  0.16610  0.25710  Biso   1.000  H
  H855     1.0000 0.17960  0.66610  0.24290  Biso   1.000  H
  H856     1.0000 0.32040  0.33390  0.74290  Biso   1.000  H
  H857     1.0000 0.83390  0.75710  0.67960  Biso   1.000  H
  H858     1.0000 0.16610  0.25710  0.82040  Biso   1.000  H
  H859     1.0000 0.66610  0.24290  0.17960  Biso   1.000  H
  H860     1.0000 0.33390  0.74290  0.32040  Biso   1.000  H
  H861     1.0000 0.75710  0.67960  0.83390  Biso   1.000  H
  H862     1.0000 0.25710  0.82040  0.16610  Biso   1.000  H
  H863     1.0000 0.24290  0.17960  0.66610  Biso   1.000  H
  H864     1.0000 0.74290  0.32040  0.33390  Biso   1.000  H
  H865     1.0000 0.07200  0.89150  0.99620  Biso   1.000  H
  H866     1.0000 0.42800  0.10850  0.49620  Biso   1.000  H
  H867     1.0000 0.92800  0.39150  0.50380  Biso   1.000  H
  H868     1.0000 0.57200  0.60850  0.00380  Biso   1.000  H
  H869     1.0000 0.99620  0.07200  0.89150  Biso   1.000  H
  H870     1.0000 0.49620  0.42800  0.10850  Biso   1.000  H
  H871     1.0000 0.50380  0.92800  0.39150  Biso   1.000  H
  H872     1.0000 0.00380  0.57200  0.60850  Biso   1.000  H
  H873     1.0000 0.89150  0.99620  0.07200  Biso   1.000  H
  H874     1.0000 0.10850  0.49620  0.42800  Biso   1.000  H
  H875     1.0000 0.39150  0.50380  0.92800  Biso   1.000  H
  H876     1.0000 0.60850  0.00380  0.57200  Biso   1.000  H
  H877     1.0000 0.14150  0.32200  0.24620  Biso   1.000  H
  H878     1.0000 0.35850  0.67800  0.74620  Biso   1.000  H
  H879     1.0000 0.64150  0.17800  0.75380  Biso   1.000  H
  H880     1.0000 0.85850  0.82200  0.25380  Biso   1.000  H
  H881     1.0000 0.32200  0.24620  0.14150  Biso   1.000  H
  H882     1.0000 0.67800  0.74620  0.35850  Biso   1.000  H
  H883     1.0000 0.17800  0.75380  0.64150  Biso   1.000  H
  H884     1.0000 0.82200  0.25380  0.85850  Biso   1.000  H
  H885     1.0000 0.24620  0.14150  0.32200  Biso   1.000  H
  H886     1.0000 0.74620  0.35850  0.67800  Biso   1.000  H
  H887     1.0000 0.75380  0.64150  0.17800  Biso   1.000  H
  H888     1.0000 0.25380  0.85850  0.82200  Biso   1.000  H
  H889     1.0000 0.57200  0.39150  0.49620  Biso   1.000  H
  H890     1.0000 0.92800  0.60850  0.99620  Biso   1.000  H
  H891     1.0000 0.42800  0.89150  0.00380  Biso   1.000  H
  H892     1.0000 0.07200  0.10850  0.50380  Biso   1.000  H
  H893     1.0000 0.49620  0.57200  0.39150  Biso   1.000  H
  H894     1.0000 0.99620  0.92800  0.60850  Biso   1.000  H
  H895     1.0000 0.00380  0.42800  0.89150  Biso   1.000  H
  H896     1.0000 0.50380  0.07200  0.10850  Biso   1.000  H
  H897     1.0000 0.39150  0.49620  0.57200  Biso   1.000  H
  H898     1.0000 0.60850  0.99620  0.92800  Biso   1.000  H
  H899     1.0000 0.89150  0.00380  0.42800  Biso   1.000  H
  H900     1.0000 0.10850  0.50380  0.07200  Biso   1.000  H
  H901     1.0000 0.64150  0.82200  0.74620  Biso   1.000  H
  H902     1.0000 0.85850  0.17800  0.24620  Biso   1.000  H
  H903     1.0000 0.14150  0.67800  0.25380  Biso   1.000  H
  H904     1.0000 0.35850  0.32200  0.75380  Biso   1.000  H
  H905     1.0000 0.82200  0.74620  0.64150  Biso   1.000  H
  H906     1.0000 0.17800  0.24620  0.85850  Biso   1.000  H
  H907     1.0000 0.67800  0.25380  0.14150  Biso   1.000  H
  H908     1.0000 0.32200  0.75380  0.35850  Biso   1.000  H
  H909     1.0000 0.74620  0.64150  0.82200  Biso   1.000  H
  H910     1.0000 0.24620  0.85850  0.17800  Biso   1.000  H
  H911     1.0000 0.25380  0.14150  0.67800  Biso   1.000  H
  H912     1.0000 0.75380  0.35850  0.32200  Biso   1.000  H
  C961     1.0000 0.37784  0.10571  0.22313  Biso   1.000  C
  C962     1.0000 0.12216  0.89429  0.72313  Biso   1.000  C
  C963     1.0000 0.62216  0.60571  0.27687  Biso   1.000  C
  C964     1.0000 0.87784  0.39429  0.77687  Biso   1.000  C
  C965     1.0000 0.22313  0.37784  0.10571  Biso   1.000  C
  C966     1.0000 0.72313  0.12216  0.89429  Biso   1.000  C
  C967     1.0000 0.27687  0.62216  0.60571  Biso   1.000  C
  C968     1.0000 0.77687  0.87784  0.39429  Biso   1.000  C
  C969     1.0000 0.10571  0.22313  0.37784  Biso   1.000  C
  C970     1.0000 0.89429  0.72313  0.12216  Biso   1.000  C
  C971     1.0000 0.60571  0.27687  0.62216  Biso   1.000  C
  C972     1.0000 0.39429  0.77687  0.87784  Biso   1.000  C
  C973     1.0000 0.35571  0.62784  0.47313  Biso   1.000  C
  C974     1.0000 0.14429  0.37216  0.97313  Biso   1.000  C
  C975     1.0000 0.85571  0.87216  0.52687  Biso   1.000  C
  C976     1.0000 0.64429  0.12784  0.02687  Biso   1.000  C
  C977     1.0000 0.62784  0.47313  0.35571  Biso   1.000  C
  C978     1.0000 0.37216  0.97313  0.14429  Biso   1.000  C
  C979     1.0000 0.87216  0.52687  0.85571  Biso   1.000  C
  C980     1.0000 0.12784  0.02687  0.64429  Biso   1.000  C
  C981     1.0000 0.47313  0.35571  0.62784  Biso   1.000  C
  C982     1.0000 0.97313  0.14429  0.37216  Biso   1.000  C
  C983     1.0000 0.52687  0.85571  0.87216  Biso   1.000  C
  C984     1.0000 0.02687  0.64429  0.12784  Biso   1.000  C
  C985     1.0000 0.87784  0.60571  0.72313  Biso   1.000  C
  C986     1.0000 0.62216  0.39429  0.22313  Biso   1.000  C
  C987     1.0000 0.12216  0.10571  0.77687  Biso   1.000  C
  C988     1.0000 0.37784  0.89429  0.27687  Biso   1.000  C
  C989     1.0000 0.72313  0.87784  0.60571  Biso   1.000  C
  C990     1.0000 0.22313  0.62216  0.39429  Biso   1.000  C
  C991     1.0000 0.77687  0.12216  0.10571  Biso   1.000  C
  C992     1.0000 0.27687  0.37784  0.89429  Biso   1.000  C
  C993     1.0000 0.60571  0.72313  0.87784  Biso   1.000  C
  C994     1.0000 0.39429  0.22313  0.62216  Biso   1.000  C
  C995     1.0000 0.10571  0.77687  0.12216  Biso   1.000  C
  C996     1.0000 0.89429  0.27687  0.37784  Biso   1.000  C
  C997     1.0000 0.85571  0.12784  0.97313  Biso   1.000  C
  C998     1.0000 0.64429  0.87216  0.47313  Biso   1.000  C
  C999     1.0000 0.35571  0.37216  0.02687  Biso   1.000  C
  C1000    1.0000 0.14429  0.62784  0.52687  Biso   1.000  C
  C1001    1.0000 0.12784  0.97313  0.85571  Biso   1.000  C
  C1002    1.0000 0.87216  0.47313  0.64429  Biso   1.000  C
  C1003    1.0000 0.37216  0.02687  0.35571  Biso   1.000  C
  C1004    1.0000 0.62784  0.52687  0.14429  Biso   1.000  C
  C1005    1.0000 0.97313  0.85571  0.12784  Biso   1.000  C
  C1006    1.0000 0.47313  0.64429  0.87216  Biso   1.000  C
  C1007    1.0000 0.02687  0.35571  0.37216  Biso   1.000  C
  C1008    1.0000 0.52687  0.14429  0.62784  Biso   1.000  C
  H913     1.0000 0.39620  0.12340  0.22350  Biso   1.000  H
  H914     1.0000 0.10380  0.87660  0.72350  Biso   1.000  H
  H915     1.0000 0.60380  0.62340  0.27650  Biso   1.000  H
  H916     1.0000 0.89620  0.37660  0.77650  Biso   1.000  H
  H917     1.0000 0.22350  0.39620  0.12340  Biso   1.000  H
  H918     1.0000 0.72350  0.10380  0.87660  Biso   1.000  H
  H919     1.0000 0.27650  0.60380  0.62340  Biso   1.000  H
  H920     1.0000 0.77650  0.89620  0.37660  Biso   1.000  H
  H921     1.0000 0.12340  0.22350  0.39620  Biso   1.000  H
  H922     1.0000 0.87660  0.72350  0.10380  Biso   1.000  H
  H923     1.0000 0.62340  0.27650  0.60380  Biso   1.000  H
  H924     1.0000 0.37660  0.77650  0.89620  Biso   1.000  H
  H925     1.0000 0.37340  0.64620  0.47350  Biso   1.000  H
  H926     1.0000 0.12660  0.35380  0.97350  Biso   1.000  H
  H927     1.0000 0.87340  0.85380  0.52650  Biso   1.000  H
  H928     1.0000 0.62660  0.14620  0.02650  Biso   1.000  H
  H929     1.0000 0.64620  0.47350  0.37340  Biso   1.000  H
  H930     1.0000 0.35380  0.97350  0.12660  Biso   1.000  H
  H931     1.0000 0.85380  0.52650  0.87340  Biso   1.000  H
  H932     1.0000 0.14620  0.02650  0.62660  Biso   1.000  H
  H933     1.0000 0.47350  0.37340  0.64620  Biso   1.000  H
  H934     1.0000 0.97350  0.12660  0.35380  Biso   1.000  H
  H935     1.0000 0.52650  0.87340  0.85380  Biso   1.000  H
  H936     1.0000 0.02650  0.62660  0.14620  Biso   1.000  H
  H937     1.0000 0.89620  0.62340  0.72350  Biso   1.000  H
  H938     1.0000 0.60380  0.37660  0.22350  Biso   1.000  H
  H939     1.0000 0.10380  0.12340  0.77650  Biso   1.000  H
  H940     1.0000 0.39620  0.87660  0.27650  Biso   1.000  H
  H941     1.0000 0.72350  0.89620  0.62340  Biso   1.000  H
  H942     1.0000 0.22350  0.60380  0.37660  Biso   1.000  H
  H943     1.0000 0.77650  0.10380  0.12340  Biso   1.000  H
  H944     1.0000 0.27650  0.39620  0.87660  Biso   1.000  H
  H945     1.0000 0.62340  0.72350  0.89620  Biso   1.000  H
  H946     1.0000 0.37660  0.22350  0.60380  Biso   1.000  H
  H947     1.0000 0.12340  0.77650  0.10380  Biso   1.000  H
  H948     1.0000 0.87660  0.27650  0.39620  Biso   1.000  H
  H949     1.0000 0.87340  0.14620  0.97350  Biso   1.000  H
  H950     1.0000 0.62660  0.85380  0.47350  Biso   1.000  H
  H951     1.0000 0.37340  0.35380  0.02650  Biso   1.000  H
  H952     1.0000 0.12660  0.64620  0.52650  Biso   1.000  H
  H953     1.0000 0.14620  0.97350  0.87340  Biso   1.000  H
  H954     1.0000 0.85380  0.47350  0.62660  Biso   1.000  H
  H955     1.0000 0.35380  0.02650  0.37340  Biso   1.000  H
  H956     1.0000 0.64620  0.52650  0.12660  Biso   1.000  H
  H957     1.0000 0.97350  0.87340  0.14620  Biso   1.000  H
  H958     1.0000 0.47350  0.62660  0.85380  Biso   1.000  H
  H959     1.0000 0.02650  0.37340  0.35380  Biso   1.000  H
  H960     1.0000 0.52650  0.12660  0.64620  Biso   1.000  H
  H961     1.0000 0.38420  0.08810  0.20580  Biso   1.000  H
  H962     1.0000 0.11580  0.91190  0.70580  Biso   1.000  H
  H963     1.0000 0.61580  0.58810  0.29420  Biso   1.000  H
  H964     1.0000 0.88420  0.41190  0.79420  Biso   1.000  H
  H965     1.0000 0.20580  0.38420  0.08810  Biso   1.000  H
  H966     1.0000 0.70580  0.11580  0.91190  Biso   1.000  H
  H967     1.0000 0.29420  0.61580  0.58810  Biso   1.000  H
  H968     1.0000 0.79420  0.88420  0.41190  Biso   1.000  H
  H969     1.0000 0.08810  0.20580  0.38420  Biso   1.000  H
  H970     1.0000 0.91190  0.70580  0.11580  Biso   1.000  H
  H971     1.0000 0.58810  0.29420  0.61580  Biso   1.000  H
  H972     1.0000 0.41190  0.79420  0.88420  Biso   1.000  H
  H973     1.0000 0.33810  0.63420  0.45580  Biso   1.000  H
  H974     1.0000 0.16190  0.36580  0.95580  Biso   1.000  H
  H975     1.0000 0.83810  0.86580  0.54420  Biso   1.000  H
  H976     1.0000 0.66190  0.13420  0.04420  Biso   1.000  H
  H977     1.0000 0.63420  0.45580  0.33810  Biso   1.000  H
  H978     1.0000 0.36580  0.95580  0.16190  Biso   1.000  H
  H979     1.0000 0.86580  0.54420  0.83810  Biso   1.000  H
  H980     1.0000 0.13420  0.04420  0.66190  Biso   1.000  H
  H981     1.0000 0.45580  0.33810  0.63420  Biso   1.000  H
  H982     1.0000 0.95580  0.16190  0.36580  Biso   1.000  H
  H983     1.0000 0.54420  0.83810  0.86580  Biso   1.000  H
  H984     1.0000 0.04420  0.66190  0.13420  Biso   1.000  H
  H985     1.0000 0.88420  0.58810  0.70580  Biso   1.000  H
  H986     1.0000 0.61580  0.41190  0.20580  Biso   1.000  H
  H987     1.0000 0.11580  0.08810  0.79420  Biso   1.000  H
  H988     1.0000 0.38420  0.91190  0.29420  Biso   1.000  H
  H989     1.0000 0.70580  0.88420  0.58810  Biso   1.000  H
  H990     1.0000 0.20580  0.61580  0.41190  Biso   1.000  H
  H991     1.0000 0.79420  0.11580  0.08810  Biso   1.000  H
  H992     1.0000 0.29420  0.38420  0.91190  Biso   1.000  H
  H993     1.0000 0.58810  0.70580  0.88420  Biso   1.000  H
  H994     1.0000 0.41190  0.20580  0.61580  Biso   1.000  H
  H995     1.0000 0.08810  0.79420  0.11580  Biso   1.000  H
  H996     1.0000 0.91190  0.29420  0.38420  Biso   1.000  H
  H997     1.0000 0.83810  0.13420  0.95580  Biso   1.000  H
  H998     1.0000 0.66190  0.86580  0.45580  Biso   1.000  H
  H999     1.0000 0.33810  0.36580  0.04420  Biso   1.000  H
  H1000    1.0000 0.16190  0.63420  0.54420  Biso   1.000  H
  H1001    1.0000 0.13420  0.95580  0.83810  Biso   1.000  H
  H1002    1.0000 0.86580  0.45580  0.66190  Biso   1.000  H
  H1003    1.0000 0.36580  0.04420  0.33810  Biso   1.000  H
  H1004    1.0000 0.63420  0.54420  0.16190  Biso   1.000  H
  H1005    1.0000 0.95580  0.83810  0.13420  Biso   1.000  H
  H1006    1.0000 0.45580  0.66190  0.86580  Biso   1.000  H
  H1007    1.0000 0.04420  0.33810  0.36580  Biso   1.000  H
  H1008    1.0000 0.54420  0.16190  0.63420  Biso   1.000  H
  C1009    1.0000 0.34304  0.12255  0.21295  Biso   1.000  C
  C1010    1.0000 0.15696  0.87745  0.71295  Biso   1.000  C
  C1011    1.0000 0.65696  0.62255  0.28705  Biso   1.000  C
  C1012    1.0000 0.84304  0.37745  0.78705  Biso   1.000  C
  C1013    1.0000 0.21295  0.34304  0.12255  Biso   1.000  C
  C1014    1.0000 0.71295  0.15696  0.87745  Biso   1.000  C
  C1015    1.0000 0.28705  0.65696  0.62255  Biso   1.000  C
  C1016    1.0000 0.78705  0.84304  0.37745  Biso   1.000  C
  C1017    1.0000 0.12255  0.21295  0.34304  Biso   1.000  C
  C1018    1.0000 0.87745  0.71295  0.15696  Biso   1.000  C
  C1019    1.0000 0.62255  0.28705  0.65696  Biso   1.000  C
  C1020    1.0000 0.37745  0.78705  0.84304  Biso   1.000  C
  C1021    1.0000 0.37255  0.59304  0.46295  Biso   1.000  C
  C1022    1.0000 0.12745  0.40696  0.96295  Biso   1.000  C
  C1023    1.0000 0.87255  0.90696  0.53705  Biso   1.000  C
  C1024    1.0000 0.62745  0.09304  0.03705  Biso   1.000  C
  C1025    1.0000 0.59304  0.46295  0.37255  Biso   1.000  C
  C1026    1.0000 0.40696  0.96295  0.12745  Biso   1.000  C
  C1027    1.0000 0.90696  0.53705  0.87255  Biso   1.000  C
  C1028    1.0000 0.09304  0.03705  0.62745  Biso   1.000  C
  C1029    1.0000 0.46295  0.37255  0.59304  Biso   1.000  C
  C1030    1.0000 0.96295  0.12745  0.40696  Biso   1.000  C
  C1031    1.0000 0.53705  0.87255  0.90696  Biso   1.000  C
  C1032    1.0000 0.03705  0.62745  0.09304  Biso   1.000  C
  C1033    1.0000 0.84304  0.62255  0.71295  Biso   1.000  C
  C1034    1.0000 0.65696  0.37745  0.21295  Biso   1.000  C
  C1035    1.0000 0.15696  0.12255  0.78705  Biso   1.000  C
  C1036    1.0000 0.34304  0.87745  0.28705  Biso   1.000  C
  C1037    1.0000 0.71295  0.84304  0.62255  Biso   1.000  C
  C1038    1.0000 0.21295  0.65696  0.37745  Biso   1.000  C
  C1039    1.0000 0.78705  0.15696  0.12255  Biso   1.000  C
  C1040    1.0000 0.28705  0.34304  0.87745  Biso   1.000  C
  C1041    1.0000 0.62255  0.71295  0.84304  Biso   1.000  C
  C1042    1.0000 0.37745  0.21295  0.65696  Biso   1.000  C
  C1043    1.0000 0.12255  0.78705  0.15696  Biso   1.000  C
  C1044    1.0000 0.87745  0.28705  0.34304  Biso   1.000  C
  C1045    1.0000 0.87255  0.09304  0.96295  Biso   1.000  C
  C1046    1.0000 0.62745  0.90696  0.46295  Biso   1.000  C
  C1047    1.0000 0.37255  0.40696  0.03705  Biso   1.000  C
  C1048    1.0000 0.12745  0.59304  0.53705  Biso   1.000  C
  C1049    1.0000 0.09304  0.96295  0.87255  Biso   1.000  C
  C1050    1.0000 0.90696  0.46295  0.62745  Biso   1.000  C
  C1051    1.0000 0.40696  0.03705  0.37255  Biso   1.000  C
  C1052    1.0000 0.59304  0.53705  0.12745  Biso   1.000  C
  C1053    1.0000 0.96295  0.87255  0.09304  Biso   1.000  C
  C1054    1.0000 0.46295  0.62745  0.90696  Biso   1.000  C
  C1055    1.0000 0.03705  0.37255  0.40696  Biso   1.000  C
  C1056    1.0000 0.53705  0.12745  0.59304  Biso   1.000  C
  H1009    1.0000 0.34520  0.13350  0.18980  Biso   1.000  H
  H1010    1.0000 0.15480  0.86650  0.68980  Biso   1.000  H
  H1011    1.0000 0.65480  0.63350  0.31020  Biso   1.000  H
  H1012    1.0000 0.84520  0.36650  0.81020  Biso   1.000  H
  H1013    1.0000 0.18980  0.34520  0.13350  Biso   1.000  H
  H1014    1.0000 0.68980  0.15480  0.86650  Biso   1.000  H
  H1015    1.0000 0.31020  0.65480  0.63350  Biso   1.000  H
  H1016    1.0000 0.81020  0.84520  0.36650  Biso   1.000  H
  H1017    1.0000 0.13350  0.18980  0.34520  Biso   1.000  H
  H1018    1.0000 0.86650  0.68980  0.15480  Biso   1.000  H
  H1019    1.0000 0.63350  0.31020  0.65480  Biso   1.000  H
  H1020    1.0000 0.36650  0.81020  0.84520  Biso   1.000  H
  H1021    1.0000 0.38350  0.59520  0.43980  Biso   1.000  H
  H1022    1.0000 0.11650  0.40480  0.93980  Biso   1.000  H
  H1023    1.0000 0.88350  0.90480  0.56020  Biso   1.000  H
  H1024    1.0000 0.61650  0.09520  0.06020  Biso   1.000  H
  H1025    1.0000 0.59520  0.43980  0.38350  Biso   1.000  H
  H1026    1.0000 0.40480  0.93980  0.11650  Biso   1.000  H
  H1027    1.0000 0.90480  0.56020  0.88350  Biso   1.000  H
  H1028    1.0000 0.09520  0.06020  0.61650  Biso   1.000  H
  H1029    1.0000 0.43980  0.38350  0.59520  Biso   1.000  H
  H1030    1.0000 0.93980  0.11650  0.40480  Biso   1.000  H
  H1031    1.0000 0.56020  0.88350  0.90480  Biso   1.000  H
  H1032    1.0000 0.06020  0.61650  0.09520  Biso   1.000  H
  H1033    1.0000 0.84520  0.63350  0.68980  Biso   1.000  H
  H1034    1.0000 0.65480  0.36650  0.18980  Biso   1.000  H
  H1035    1.0000 0.15480  0.13350  0.81020  Biso   1.000  H
  H1036    1.0000 0.34520  0.86650  0.31020  Biso   1.000  H
  H1037    1.0000 0.68980  0.84520  0.63350  Biso   1.000  H
  H1038    1.0000 0.18980  0.65480  0.36650  Biso   1.000  H
  H1039    1.0000 0.81020  0.15480  0.13350  Biso   1.000  H
  H1040    1.0000 0.31020  0.34520  0.86650  Biso   1.000  H
  H1041    1.0000 0.63350  0.68980  0.84520  Biso   1.000  H
  H1042    1.0000 0.36650  0.18980  0.65480  Biso   1.000  H
  H1043    1.0000 0.13350  0.81020  0.15480  Biso   1.000  H
  H1044    1.0000 0.86650  0.31020  0.34520  Biso   1.000  H
  H1045    1.0000 0.88350  0.09520  0.93980  Biso   1.000  H
  H1046    1.0000 0.61650  0.90480  0.43980  Biso   1.000  H
  H1047    1.0000 0.38350  0.40480  0.06020  Biso   1.000  H
  H1048    1.0000 0.11650  0.59520  0.56020  Biso   1.000  H
  H1049    1.0000 0.09520  0.93980  0.88350  Biso   1.000  H
  H1050    1.0000 0.90480  0.43980  0.61650  Biso   1.000  H
  H1051    1.0000 0.40480  0.06020  0.38350  Biso   1.000  H
  H1052    1.0000 0.59520  0.56020  0.11650  Biso   1.000  H
  H1053    1.0000 0.93980  0.88350  0.09520  Biso   1.000  H
  H1054    1.0000 0.43980  0.61650  0.90480  Biso   1.000  H
  H1055    1.0000 0.06020  0.38350  0.40480  Biso   1.000  H
  H1056    1.0000 0.56020  0.11650  0.59520  Biso   1.000  H
  C1057    1.0000 0.18052  0.88428  0.98128  Biso   1.000  C
  C1058    1.0000 0.31948  0.11572  0.48128  Biso   1.000  C
  C1059    1.0000 0.81948  0.38428  0.51872  Biso   1.000  C
  C1060    1.0000 0.68052  0.61572  0.01872  Biso   1.000  C
  C1061    1.0000 0.98128  0.18052  0.88428  Biso   1.000  C
  C1062    1.0000 0.48128  0.31948  0.11572  Biso   1.000  C
  C1063    1.0000 0.51872  0.81948  0.38428  Biso   1.000  C
  C1064    1.0000 0.01872  0.68052  0.61572  Biso   1.000  C
  C1065    1.0000 0.88428  0.98128  0.18052  Biso   1.000  C
  C1066    1.0000 0.11572  0.48128  0.31948  Biso   1.000  C
  C1067    1.0000 0.38428  0.51872  0.81948  Biso   1.000  C
  C1068    1.0000 0.61572  0.01872  0.68052  Biso   1.000  C
  C1069    1.0000 0.13428  0.43052  0.23128  Biso   1.000  C
  C1070    1.0000 0.36572  0.56948  0.73128  Biso   1.000  C
  C1071    1.0000 0.63428  0.06948  0.76872  Biso   1.000  C
  C1072    1.0000 0.86572  0.93052  0.26872  Biso   1.000  C
  C1073    1.0000 0.43052  0.23128  0.13428  Biso   1.000  C
  C1074    1.0000 0.56948  0.73128  0.36572  Biso   1.000  C
  C1075    1.0000 0.06948  0.76872  0.63428  Biso   1.000  C
  C1076    1.0000 0.93052  0.26872  0.86572  Biso   1.000  C
  C1077    1.0000 0.23128  0.13428  0.43052  Biso   1.000  C
  C1078    1.0000 0.73128  0.36572  0.56948  Biso   1.000  C
  C1079    1.0000 0.76872  0.63428  0.06948  Biso   1.000  C
  C1080    1.0000 0.26872  0.86572  0.93052  Biso   1.000  C
  C1081    1.0000 0.68052  0.38428  0.48128  Biso   1.000  C
  C1082    1.0000 0.81948  0.61572  0.98128  Biso   1.000  C
  C1083    1.0000 0.31948  0.88428  0.01872  Biso   1.000  C
  C1084    1.0000 0.18052  0.11572  0.51872  Biso   1.000  C
  C1085    1.0000 0.48128  0.68052  0.38428  Biso   1.000  C
  C1086    1.0000 0.98128  0.81948  0.61572  Biso   1.000  C
  C1087    1.0000 0.01872  0.31948  0.88428  Biso   1.000  C
  C1088    1.0000 0.51872  0.18052  0.11572  Biso   1.000  C
  C1089    1.0000 0.38428  0.48128  0.68052  Biso   1.000  C
  C1090    1.0000 0.61572  0.98128  0.81948  Biso   1.000  C
  C1091    1.0000 0.88428  0.01872  0.31948  Biso   1.000  C
  C1092    1.0000 0.11572  0.51872  0.18052  Biso   1.000  C
  C1093    1.0000 0.63428  0.93052  0.73128  Biso   1.000  C
  C1094    1.0000 0.86572  0.06948  0.23128  Biso   1.000  C
  C1095    1.0000 0.13428  0.56948  0.26872  Biso   1.000  C
  C1096    1.0000 0.36572  0.43052  0.76872  Biso   1.000  C
  C1097    1.0000 0.93052  0.73128  0.63428  Biso   1.000  C
  C1098    1.0000 0.06948  0.23128  0.86572  Biso   1.000  C
  C1099    1.0000 0.56948  0.26872  0.13428  Biso   1.000  C
  C1100    1.0000 0.43052  0.76872  0.36572  Biso   1.000  C
  C1101    1.0000 0.73128  0.63428  0.93052  Biso   1.000  C
  C1102    1.0000 0.23128  0.86572  0.06948  Biso   1.000  C
  C1103    1.0000 0.26872  0.13428  0.56948  Biso   1.000  C
  C1104    1.0000 0.76872  0.36572  0.43052  Biso   1.000  C
  H1057    1.0000 0.19240  0.88720  0.95890  Biso   1.000  H
  H1058    1.0000 0.30760  0.11280  0.45890  Biso   1.000  H
  H1059    1.0000 0.80760  0.38720  0.54110  Biso   1.000  H
  H1060    1.0000 0.69240  0.61280  0.04110  Biso   1.000  H
  H1061    1.0000 0.95890  0.19240  0.88720  Biso   1.000  H
  H1062    1.0000 0.45890  0.30760  0.11280  Biso   1.000  H
  H1063    1.0000 0.54110  0.80760  0.38720  Biso   1.000  H
  H1064    1.0000 0.04110  0.69240  0.61280  Biso   1.000  H
  H1065    1.0000 0.88720  0.95890  0.19240  Biso   1.000  H
  H1066    1.0000 0.11280  0.45890  0.30760  Biso   1.000  H
  H1067    1.0000 0.38720  0.54110  0.80760  Biso   1.000  H
  H1068    1.0000 0.61280  0.04110  0.69240  Biso   1.000  H
  H1069    1.0000 0.13720  0.44240  0.20890  Biso   1.000  H
  H1070    1.0000 0.36280  0.55760  0.70890  Biso   1.000  H
  H1071    1.0000 0.63720  0.05760  0.79110  Biso   1.000  H
  H1072    1.0000 0.86280  0.94240  0.29110  Biso   1.000  H
  H1073    1.0000 0.44240  0.20890  0.13720  Biso   1.000  H
  H1074    1.0000 0.55760  0.70890  0.36280  Biso   1.000  H
  H1075    1.0000 0.05760  0.79110  0.63720  Biso   1.000  H
  H1076    1.0000 0.94240  0.29110  0.86280  Biso   1.000  H
  H1077    1.0000 0.20890  0.13720  0.44240  Biso   1.000  H
  H1078    1.0000 0.70890  0.36280  0.55760  Biso   1.000  H
  H1079    1.0000 0.79110  0.63720  0.05760  Biso   1.000  H
  H1080    1.0000 0.29110  0.86280  0.94240  Biso   1.000  H
  H1081    1.0000 0.69240  0.38720  0.45890  Biso   1.000  H
  H1082    1.0000 0.80760  0.61280  0.95890  Biso   1.000  H
  H1083    1.0000 0.30760  0.88720  0.04110  Biso   1.000  H
  H1084    1.0000 0.19240  0.11280  0.54110  Biso   1.000  H
  H1085    1.0000 0.45890  0.69240  0.38720  Biso   1.000  H
  H1086    1.0000 0.95890  0.80760  0.61280  Biso   1.000  H
  H1087    1.0000 0.04110  0.30760  0.88720  Biso   1.000  H
  H1088    1.0000 0.54110  0.19240  0.11280  Biso   1.000  H
  H1089    1.0000 0.38720  0.45890  0.69240  Biso   1.000  H
  H1090    1.0000 0.61280  0.95890  0.80760  Biso   1.000  H
  H1091    1.0000 0.88720  0.04110  0.30760  Biso   1.000  H
  H1092    1.0000 0.11280  0.54110  0.19240  Biso   1.000  H
  H1093    1.0000 0.63720  0.94240  0.70890  Biso   1.000  H
  H1094    1.0000 0.86280  0.05760  0.20890  Biso   1.000  H
  H1095    1.0000 0.13720  0.55760  0.29110  Biso   1.000  H
  H1096    1.0000 0.36280  0.44240  0.79110  Biso   1.000  H
  H1097    1.0000 0.94240  0.70890  0.63720  Biso   1.000  H
  H1098    1.0000 0.05760  0.20890  0.86280  Biso   1.000  H
  H1099    1.0000 0.55760  0.29110  0.13720  Biso   1.000  H
  H1100    1.0000 0.44240  0.79110  0.36280  Biso   1.000  H
  H1101    1.0000 0.70890  0.63720  0.94240  Biso   1.000  H
  H1102    1.0000 0.20890  0.86280  0.05760  Biso   1.000  H
  H1103    1.0000 0.29110  0.13720  0.55760  Biso   1.000  H
  H1104    1.0000 0.79110  0.36280  0.44240  Biso   1.000  H
  H1105    1.0000 0.19700  0.87390  0.99770  Biso   1.000  H
  H1106    1.0000 0.30300  0.12610  0.49770  Biso   1.000  H
  H1107    1.0000 0.80300  0.37390  0.50230  Biso   1.000  H
  H1108    1.0000 0.69700  0.62610  0.00230  Biso   1.000  H
  H1109    1.0000 0.99770  0.19700  0.87390  Biso   1.000  H
  H1110    1.0000 0.49770  0.30300  0.12610  Biso   1.000  H
  H1111    1.0000 0.50230  0.80300  0.37390  Biso   1.000  H
  H1112    1.0000 0.00230  0.69700  0.62610  Biso   1.000  H
  H1113    1.0000 0.87390  0.99770  0.19700  Biso   1.000  H
  H1114    1.0000 0.12610  0.49770  0.30300  Biso   1.000  H
  H1115    1.0000 0.37390  0.50230  0.80300  Biso   1.000  H
  H1116    1.0000 0.62610  0.00230  0.69700  Biso   1.000  H
  H1117    1.0000 0.12390  0.44700  0.24770  Biso   1.000  H
  H1118    1.0000 0.37610  0.55300  0.74770  Biso   1.000  H
  H1119    1.0000 0.62390  0.05300  0.75230  Biso   1.000  H
  H1120    1.0000 0.87610  0.94700  0.25230  Biso   1.000  H
  H1121    1.0000 0.44700  0.24770  0.12390  Biso   1.000  H
  H1122    1.0000 0.55300  0.74770  0.37610  Biso   1.000  H
  H1123    1.0000 0.05300  0.75230  0.62390  Biso   1.000  H
  H1124    1.0000 0.94700  0.25230  0.87610  Biso   1.000  H
  H1125    1.0000 0.24770  0.12390  0.44700  Biso   1.000  H
  H1126    1.0000 0.74770  0.37610  0.55300  Biso   1.000  H
  H1127    1.0000 0.75230  0.62390  0.05300  Biso   1.000  H
  H1128    1.0000 0.25230  0.87610  0.94700  Biso   1.000  H
  H1129    1.0000 0.69700  0.37390  0.49770  Biso   1.000  H
  H1130    1.0000 0.80300  0.62610  0.99770  Biso   1.000  H
  H1131    1.0000 0.30300  0.87390  0.00230  Biso   1.000  H
  H1132    1.0000 0.19700  0.12610  0.50230  Biso   1.000  H
  H1133    1.0000 0.49770  0.69700  0.37390  Biso   1.000  H
  H1134    1.0000 0.99770  0.80300  0.62610  Biso   1.000  H
  H1135    1.0000 0.00230  0.30300  0.87390  Biso   1.000  H
  H1136    1.0000 0.50230  0.19700  0.12610  Biso   1.000  H
  H1137    1.0000 0.37390  0.49770  0.69700  Biso   1.000  H
  H1138    1.0000 0.62610  0.99770  0.80300  Biso   1.000  H
  H1139    1.0000 0.87390  0.00230  0.30300  Biso   1.000  H
  H1140    1.0000 0.12610  0.50230  0.19700  Biso   1.000  H
  H1141    1.0000 0.62390  0.94700  0.74770  Biso   1.000  H
  H1142    1.0000 0.87610  0.05300  0.24770  Biso   1.000  H
  H1143    1.0000 0.12390  0.55300  0.25230  Biso   1.000  H
  H1144    1.0000 0.37610  0.44700  0.75230  Biso   1.000  H
  H1145    1.0000 0.94700  0.74770  0.62390  Biso   1.000  H
  H1146    1.0000 0.05300  0.24770  0.87610  Biso   1.000  H
  H1147    1.0000 0.55300  0.25230  0.12390  Biso   1.000  H
  H1148    1.0000 0.44700  0.75230  0.37610  Biso   1.000  H
  H1149    1.0000 0.74770  0.62390  0.94700  Biso   1.000  H
  H1150    1.0000 0.24770  0.87610  0.05300  Biso   1.000  H
  H1151    1.0000 0.25230  0.12390  0.55300  Biso   1.000  H
  H1152    1.0000 0.75230  0.37610  0.44700  Biso   1.000  H
  C1105    1.0000 0.09989  0.09340  0.26028  Biso   1.000  C
  C1106    1.0000 0.40011  0.90660  0.76028  Biso   1.000  C
  C1107    1.0000 0.90011  0.59340  0.23972  Biso   1.000  C
  C1108    1.0000 0.59989  0.40660  0.73972  Biso   1.000  C
  C1109    1.0000 0.26028  0.09989  0.09340  Biso   1.000  C
  C1110    1.0000 0.76028  0.40011  0.90660  Biso   1.000  C
  C1111    1.0000 0.23972  0.90011  0.59340  Biso   1.000  C
  C1112    1.0000 0.73972  0.59989  0.40660  Biso   1.000  C
  C1113    1.0000 0.09340  0.26028  0.09989  Biso   1.000  C
  C1114    1.0000 0.90660  0.76028  0.40011  Biso   1.000  C
  C1115    1.0000 0.59340  0.23972  0.90011  Biso   1.000  C
  C1116    1.0000 0.40660  0.73972  0.59989  Biso   1.000  C
  C1117    1.0000 0.34340  0.34989  0.51028  Biso   1.000  C
  C1118    1.0000 0.15660  0.65011  0.01028  Biso   1.000  C
  C1119    1.0000 0.84340  0.15011  0.48972  Biso   1.000  C
  C1120    1.0000 0.65660  0.84989  0.98972  Biso   1.000  C
  C1121    1.0000 0.34989  0.51028  0.34340  Biso   1.000  C
  C1122    1.0000 0.65011  0.01028  0.15660  Biso   1.000  C
  C1123    1.0000 0.15011  0.48972  0.84340  Biso   1.000  C
  C1124    1.0000 0.84989  0.98972  0.65660  Biso   1.000  C
  C1125    1.0000 0.51028  0.34340  0.34989  Biso   1.000  C
  C1126    1.0000 0.01028  0.15660  0.65011  Biso   1.000  C
  C1127    1.0000 0.48972  0.84340  0.15011  Biso   1.000  C
  C1128    1.0000 0.98972  0.65660  0.84989  Biso   1.000  C
  C1129    1.0000 0.59989  0.59340  0.76028  Biso   1.000  C
  C1130    1.0000 0.90011  0.40660  0.26028  Biso   1.000  C
  C1131    1.0000 0.40011  0.09340  0.73972  Biso   1.000  C
  C1132    1.0000 0.09989  0.90660  0.23972  Biso   1.000  C
  C1133    1.0000 0.76028  0.59989  0.59340  Biso   1.000  C
  C1134    1.0000 0.26028  0.90011  0.40660  Biso   1.000  C
  C1135    1.0000 0.73972  0.40011  0.09340  Biso   1.000  C
  C1136    1.0000 0.23972  0.09989  0.90660  Biso   1.000  C
  C1137    1.0000 0.59340  0.76028  0.59989  Biso   1.000  C
  C1138    1.0000 0.40660  0.26028  0.90011  Biso   1.000  C
  C1139    1.0000 0.09340  0.73972  0.40011  Biso   1.000  C
  C1140    1.0000 0.90660  0.23972  0.09989  Biso   1.000  C
  C1141    1.0000 0.84340  0.84989  0.01028  Biso   1.000  C
  C1142    1.0000 0.65660  0.15011  0.51028  Biso   1.000  C
  C1143    1.0000 0.34340  0.65011  0.98972  Biso   1.000  C
  C1144    1.0000 0.15660  0.34989  0.48972  Biso   1.000  C
  C1145    1.0000 0.84989  0.01028  0.84340  Biso   1.000  C
  C1146    1.0000 0.15011  0.51028  0.65660  Biso   1.000  C
  C1147    1.0000 0.65011  0.98972  0.34340  Biso   1.000  C
  C1148    1.0000 0.34989  0.48972  0.15660  Biso   1.000  C
  C1149    1.0000 0.01028  0.84340  0.84989  Biso   1.000  C
  C1150    1.0000 0.51028  0.65660  0.15011  Biso   1.000  C
  C1151    1.0000 0.98972  0.34340  0.65011  Biso   1.000  C
  C1152    1.0000 0.48972  0.15660  0.34989  Biso   1.000  C
  H1153    1.0000 0.07740  0.08420  0.26880  Biso   1.000  H
  H1154    1.0000 0.42260  0.91580  0.76880  Biso   1.000  H
  H1155    1.0000 0.92260  0.58420  0.23120  Biso   1.000  H
  H1156    1.0000 0.57740  0.41580  0.73120  Biso   1.000  H
  H1157    1.0000 0.26880  0.07740  0.08420  Biso   1.000  H
  H1158    1.0000 0.76880  0.42260  0.91580  Biso   1.000  H
  H1159    1.0000 0.23120  0.92260  0.58420  Biso   1.000  H
  H1160    1.0000 0.73120  0.57740  0.41580  Biso   1.000  H
  H1161    1.0000 0.08420  0.26880  0.07740  Biso   1.000  H
  H1162    1.0000 0.91580  0.76880  0.42260  Biso   1.000  H
  H1163    1.0000 0.58420  0.23120  0.92260  Biso   1.000  H
  H1164    1.0000 0.41580  0.73120  0.57740  Biso   1.000  H
  H1165    1.0000 0.33420  0.32740  0.51880  Biso   1.000  H
  H1166    1.0000 0.16580  0.67260  0.01880  Biso   1.000  H
  H1167    1.0000 0.83420  0.17260  0.48120  Biso   1.000  H
  H1168    1.0000 0.66580  0.82740  0.98120  Biso   1.000  H
  H1169    1.0000 0.32740  0.51880  0.33420  Biso   1.000  H
  H1170    1.0000 0.67260  0.01880  0.16580  Biso   1.000  H
  H1171    1.0000 0.17260  0.48120  0.83420  Biso   1.000  H
  H1172    1.0000 0.82740  0.98120  0.66580  Biso   1.000  H
  H1173    1.0000 0.51880  0.33420  0.32740  Biso   1.000  H
  H1174    1.0000 0.01880  0.16580  0.67260  Biso   1.000  H
  H1175    1.0000 0.48120  0.83420  0.17260  Biso   1.000  H
  H1176    1.0000 0.98120  0.66580  0.82740  Biso   1.000  H
  H1177    1.0000 0.57740  0.58420  0.76880  Biso   1.000  H
  H1178    1.0000 0.92260  0.41580  0.26880  Biso   1.000  H
  H1179    1.0000 0.42260  0.08420  0.73120  Biso   1.000  H
  H1180    1.0000 0.07740  0.91580  0.23120  Biso   1.000  H
  H1181    1.0000 0.76880  0.57740  0.58420  Biso   1.000  H
  H1182    1.0000 0.26880  0.92260  0.41580  Biso   1.000  H
  H1183    1.0000 0.73120  0.42260  0.08420  Biso   1.000  H
  H1184    1.0000 0.23120  0.07740  0.91580  Biso   1.000  H
  H1185    1.0000 0.58420  0.76880  0.57740  Biso   1.000  H
  H1186    1.0000 0.41580  0.26880  0.92260  Biso   1.000  H
  H1187    1.0000 0.08420  0.73120  0.42260  Biso   1.000  H
  H1188    1.0000 0.91580  0.23120  0.07740  Biso   1.000  H
  H1189    1.0000 0.83420  0.82740  0.01880  Biso   1.000  H
  H1190    1.0000 0.66580  0.17260  0.51880  Biso   1.000  H
  H1191    1.0000 0.33420  0.67260  0.98120  Biso   1.000  H
  H1192    1.0000 0.16580  0.32740  0.48120  Biso   1.000  H
  H1193    1.0000 0.82740  0.01880  0.83420  Biso   1.000  H
  H1194    1.0000 0.17260  0.51880  0.66580  Biso   1.000  H
  H1195    1.0000 0.67260  0.98120  0.33420  Biso   1.000  H
  H1196    1.0000 0.32740  0.48120  0.16580  Biso   1.000  H
  H1197    1.0000 0.01880  0.83420  0.82740  Biso   1.000  H
  H1198    1.0000 0.51880  0.66580  0.17260  Biso   1.000  H
  H1199    1.0000 0.98120  0.33420  0.67260  Biso   1.000  H
  H1200    1.0000 0.48120  0.16580  0.32740  Biso   1.000  H
  C1153    1.0000 0.11110  0.91128  0.96290  Biso   1.000  C
  C1154    1.0000 0.38890  0.08872  0.46290  Biso   1.000  C
  C1155    1.0000 0.88890  0.41128  0.53710  Biso   1.000  C
  C1156    1.0000 0.61110  0.58872  0.03710  Biso   1.000  C
  C1157    1.0000 0.96290  0.11110  0.91128  Biso   1.000  C
  C1158    1.0000 0.46290  0.38890  0.08872  Biso   1.000  C
  C1159    1.0000 0.53710  0.88890  0.41128  Biso   1.000  C
  C1160    1.0000 0.03710  0.61110  0.58872  Biso   1.000  C
  C1161    1.0000 0.91128  0.96290  0.11110  Biso   1.000  C
  C1162    1.0000 0.08872  0.46290  0.38890  Biso   1.000  C
  C1163    1.0000 0.41128  0.53710  0.88890  Biso   1.000  C
  C1164    1.0000 0.58872  0.03710  0.61110  Biso   1.000  C
  C1165    1.0000 0.16128  0.36110  0.21290  Biso   1.000  C
  C1166    1.0000 0.33872  0.63890  0.71290  Biso   1.000  C
  C1167    1.0000 0.66128  0.13890  0.78710  Biso   1.000  C
  C1168    1.0000 0.83872  0.86110  0.28710  Biso   1.000  C
  C1169    1.0000 0.36110  0.21290  0.16128  Biso   1.000  C
  C1170    1.0000 0.63890  0.71290  0.33872  Biso   1.000  C
  C1171    1.0000 0.13890  0.78710  0.66128  Biso   1.000  C
  C1172    1.0000 0.86110  0.28710  0.83872  Biso   1.000  C
  C1173    1.0000 0.21290  0.16128  0.36110  Biso   1.000  C
  C1174    1.0000 0.71290  0.33872  0.63890  Biso   1.000  C
  C1175    1.0000 0.78710  0.66128  0.13890  Biso   1.000  C
  C1176    1.0000 0.28710  0.83872  0.86110  Biso   1.000  C
  C1177    1.0000 0.61110  0.41128  0.46290  Biso   1.000  C
  C1178    1.0000 0.88890  0.58872  0.96290  Biso   1.000  C
  C1179    1.0000 0.38890  0.91128  0.03710  Biso   1.000  C
  C1180    1.0000 0.11110  0.08872  0.53710  Biso   1.000  C
  C1181    1.0000 0.46290  0.61110  0.41128  Biso   1.000  C
  C1182    1.0000 0.96290  0.88890  0.58872  Biso   1.000  C
  C1183    1.0000 0.03710  0.38890  0.91128  Biso   1.000  C
  C1184    1.0000 0.53710  0.11110  0.08872  Biso   1.000  C
  C1185    1.0000 0.41128  0.46290  0.61110  Biso   1.000  C
  C1186    1.0000 0.58872  0.96290  0.88890  Biso   1.000  C
  C1187    1.0000 0.91128  0.03710  0.38890  Biso   1.000  C
  C1188    1.0000 0.08872  0.53710  0.11110  Biso   1.000  C
  C1189    1.0000 0.66128  0.86110  0.71290  Biso   1.000  C
  C1190    1.0000 0.83872  0.13890  0.21290  Biso   1.000  C
  C1191    1.0000 0.16128  0.63890  0.28710  Biso   1.000  C
  C1192    1.0000 0.33872  0.36110  0.78710  Biso   1.000  C
  C1193    1.0000 0.86110  0.71290  0.66128  Biso   1.000  C
  C1194    1.0000 0.13890  0.21290  0.83872  Biso   1.000  C
  C1195    1.0000 0.63890  0.28710  0.16128  Biso   1.000  C
  C1196    1.0000 0.36110  0.78710  0.33872  Biso   1.000  C
  C1197    1.0000 0.71290  0.66128  0.86110  Biso   1.000  C
  C1198    1.0000 0.21290  0.83872  0.13890  Biso   1.000  C
  C1199    1.0000 0.28710  0.16128  0.63890  Biso   1.000  C
  C1200    1.0000 0.78710  0.33872  0.36110  Biso   1.000  C
  H1201    1.0000 0.09480  0.92140  0.94570  Biso   1.000  H
  H1202    1.0000 0.40520  0.07860  0.44570  Biso   1.000  H
  H1203    1.0000 0.90520  0.42140  0.55430  Biso   1.000  H
  H1204    1.0000 0.59480  0.57860  0.05430  Biso   1.000  H
  H1205    1.0000 0.94570  0.09480  0.92140  Biso   1.000  H
  H1206    1.0000 0.44570  0.40520  0.07860  Biso   1.000  H
  H1207    1.0000 0.55430  0.90520  0.42140  Biso   1.000  H
  H1208    1.0000 0.05430  0.59480  0.57860  Biso   1.000  H
  H1209    1.0000 0.92140  0.94570  0.09480  Biso   1.000  H
  H1210    1.0000 0.07860  0.44570  0.40520  Biso   1.000  H
  H1211    1.0000 0.42140  0.55430  0.90520  Biso   1.000  H
  H1212    1.0000 0.57860  0.05430  0.59480  Biso   1.000  H
  H1213    1.0000 0.17140  0.34480  0.19570  Biso   1.000  H
  H1214    1.0000 0.32860  0.65520  0.69570  Biso   1.000  H
  H1215    1.0000 0.67140  0.15520  0.80430  Biso   1.000  H
  H1216    1.0000 0.82860  0.84480  0.30430  Biso   1.000  H
  H1217    1.0000 0.34480  0.19570  0.17140  Biso   1.000  H
  H1218    1.0000 0.65520  0.69570  0.32860  Biso   1.000  H
  H1219    1.0000 0.15520  0.80430  0.67140  Biso   1.000  H
  H1220    1.0000 0.84480  0.30430  0.82860  Biso   1.000  H
  H1221    1.0000 0.19570  0.17140  0.34480  Biso   1.000  H
  H1222    1.0000 0.69570  0.32860  0.65520  Biso   1.000  H
  H1223    1.0000 0.80430  0.67140  0.15520  Biso   1.000  H
  H1224    1.0000 0.30430  0.82860  0.84480  Biso   1.000  H
  H1225    1.0000 0.59480  0.42140  0.44570  Biso   1.000  H
  H1226    1.0000 0.90520  0.57860  0.94570  Biso   1.000  H
  H1227    1.0000 0.40520  0.92140  0.05430  Biso   1.000  H
  H1228    1.0000 0.09480  0.07860  0.55430  Biso   1.000  H
  H1229    1.0000 0.44570  0.59480  0.42140  Biso   1.000  H
  H1230    1.0000 0.94570  0.90520  0.57860  Biso   1.000  H
  H1231    1.0000 0.05430  0.40520  0.92140  Biso   1.000  H
  H1232    1.0000 0.55430  0.09480  0.07860  Biso   1.000  H
  H1233    1.0000 0.42140  0.44570  0.59480  Biso   1.000  H
  H1234    1.0000 0.57860  0.94570  0.90520  Biso   1.000  H
  H1235    1.0000 0.92140  0.05430  0.40520  Biso   1.000  H
  H1236    1.0000 0.07860  0.55430  0.09480  Biso   1.000  H
  H1237    1.0000 0.67140  0.84480  0.69570  Biso   1.000  H
  H1238    1.0000 0.82860  0.15520  0.19570  Biso   1.000  H
  H1239    1.0000 0.17140  0.65520  0.30430  Biso   1.000  H
  H1240    1.0000 0.32860  0.34480  0.80430  Biso   1.000  H
  H1241    1.0000 0.84480  0.69570  0.67140  Biso   1.000  H
  H1242    1.0000 0.15520  0.19570  0.82860  Biso   1.000  H
  H1243    1.0000 0.65520  0.30430  0.17140  Biso   1.000  H
  H1244    1.0000 0.34480  0.80430  0.32860  Biso   1.000  H
  H1245    1.0000 0.69570  0.67140  0.84480  Biso   1.000  H
  H1246    1.0000 0.19570  0.82860  0.15520  Biso   1.000  H
  H1247    1.0000 0.30430  0.17140  0.65520  Biso   1.000  H
  H1248    1.0000 0.80430  0.32860  0.34480  Biso   1.000  H
  C1201    1.0000 0.14929  0.91655  0.03013  Biso   1.000  C
  C1202    1.0000 0.35071  0.08345  0.53013  Biso   1.000  C
  C1203    1.0000 0.85071  0.41655  0.46987  Biso   1.000  C
  C1204    1.0000 0.64929  0.58345  0.96987  Biso   1.000  C
  C1205    1.0000 0.03013  0.14929  0.91655  Biso   1.000  C
  C1206    1.0000 0.53013  0.35071  0.08345  Biso   1.000  C
  C1207    1.0000 0.46987  0.85071  0.41655  Biso   1.000  C
  C1208    1.0000 0.96987  0.64929  0.58345  Biso   1.000  C
  C1209    1.0000 0.91655  0.03013  0.14929  Biso   1.000  C
  C1210    1.0000 0.08345  0.53013  0.35071  Biso   1.000  C
  C1211    1.0000 0.41655  0.46987  0.85071  Biso   1.000  C
  C1212    1.0000 0.58345  0.96987  0.64929  Biso   1.000  C
  C1213    1.0000 0.16655  0.39929  0.28013  Biso   1.000  C
  C1214    1.0000 0.33345  0.60071  0.78013  Biso   1.000  C
  C1215    1.0000 0.66655  0.10071  0.71987  Biso   1.000  C
  C1216    1.0000 0.83345  0.89929  0.21987  Biso   1.000  C
  C1217    1.0000 0.39929  0.28013  0.16655  Biso   1.000  C
  C1218    1.0000 0.60071  0.78013  0.33345  Biso   1.000  C
  C1219    1.0000 0.10071  0.71987  0.66655  Biso   1.000  C
  C1220    1.0000 0.89929  0.21987  0.83345  Biso   1.000  C
  C1221    1.0000 0.28013  0.16655  0.39929  Biso   1.000  C
  C1222    1.0000 0.78013  0.33345  0.60071  Biso   1.000  C
  C1223    1.0000 0.71987  0.66655  0.10071  Biso   1.000  C
  C1224    1.0000 0.21987  0.83345  0.89929  Biso   1.000  C
  C1225    1.0000 0.64929  0.41655  0.53013  Biso   1.000  C
  C1226    1.0000 0.85071  0.58345  0.03013  Biso   1.000  C
  C1227    1.0000 0.35071  0.91655  0.96987  Biso   1.000  C
  C1228    1.0000 0.14929  0.08345  0.46987  Biso   1.000  C
  C1229    1.0000 0.53013  0.64929  0.41655  Biso   1.000  C
  C1230    1.0000 0.03013  0.85071  0.58345  Biso   1.000  C
  C1231    1.0000 0.96987  0.35071  0.91655  Biso   1.000  C
  C1232    1.0000 0.46987  0.14929  0.08345  Biso   1.000  C
  C1233    1.0000 0.41655  0.53013  0.64929  Biso   1.000  C
  C1234    1.0000 0.58345  0.03013  0.85071  Biso   1.000  C
  C1235    1.0000 0.91655  0.96987  0.35071  Biso   1.000  C
  C1236    1.0000 0.08345  0.46987  0.14929  Biso   1.000  C
  C1237    1.0000 0.66655  0.89929  0.78013  Biso   1.000  C
  C1238    1.0000 0.83345  0.10071  0.28013  Biso   1.000  C
  C1239    1.0000 0.16655  0.60071  0.21987  Biso   1.000  C
  C1240    1.0000 0.33345  0.39929  0.71987  Biso   1.000  C
  C1241    1.0000 0.89929  0.78013  0.66655  Biso   1.000  C
  C1242    1.0000 0.10071  0.28013  0.83345  Biso   1.000  C
  C1243    1.0000 0.60071  0.21987  0.16655  Biso   1.000  C
  C1244    1.0000 0.39929  0.71987  0.33345  Biso   1.000  C
  C1245    1.0000 0.78013  0.66655  0.89929  Biso   1.000  C
  C1246    1.0000 0.28013  0.83345  0.10071  Biso   1.000  C
  C1247    1.0000 0.21987  0.16655  0.60071  Biso   1.000  C
  C1248    1.0000 0.71987  0.33345  0.39929  Biso   1.000  C
  H1249    1.0000 0.14130  0.93940  0.03820  Biso   1.000  H
  H1250    1.0000 0.35870  0.06060  0.53820  Biso   1.000  H
  H1251    1.0000 0.85870  0.43940  0.46180  Biso   1.000  H
  H1252    1.0000 0.64130  0.56060  0.96180  Biso   1.000  H
  H1253    1.0000 0.03820  0.14130  0.93940  Biso   1.000  H
  H1254    1.0000 0.53820  0.35870  0.06060  Biso   1.000  H
  H1255    1.0000 0.46180  0.85870  0.43940  Biso   1.000  H
  H1256    1.0000 0.96180  0.64130  0.56060  Biso   1.000  H
  H1257    1.0000 0.93940  0.03820  0.14130  Biso   1.000  H
  H1258    1.0000 0.06060  0.53820  0.35870  Biso   1.000  H
  H1259    1.0000 0.43940  0.46180  0.85870  Biso   1.000  H
  H1260    1.0000 0.56060  0.96180  0.64130  Biso   1.000  H
  H1261    1.0000 0.18940  0.39130  0.28820  Biso   1.000  H
  H1262    1.0000 0.31060  0.60870  0.78820  Biso   1.000  H
  H1263    1.0000 0.68940  0.10870  0.71180  Biso   1.000  H
  H1264    1.0000 0.81060  0.89130  0.21180  Biso   1.000  H
  H1265    1.0000 0.39130  0.28820  0.18940  Biso   1.000  H
  H1266    1.0000 0.60870  0.78820  0.31060  Biso   1.000  H
  H1267    1.0000 0.10870  0.71180  0.68940  Biso   1.000  H
  H1268    1.0000 0.89130  0.21180  0.81060  Biso   1.000  H
  H1269    1.0000 0.28820  0.18940  0.39130  Biso   1.000  H
  H1270    1.0000 0.78820  0.31060  0.60870  Biso   1.000  H
  H1271    1.0000 0.71180  0.68940  0.10870  Biso   1.000  H
  H1272    1.0000 0.21180  0.81060  0.89130  Biso   1.000  H
  H1273    1.0000 0.64130  0.43940  0.53820  Biso   1.000  H
  H1274    1.0000 0.85870  0.56060  0.03820  Biso   1.000  H
  H1275    1.0000 0.35870  0.93940  0.96180  Biso   1.000  H
  H1276    1.0000 0.14130  0.06060  0.46180  Biso   1.000  H
  H1277    1.0000 0.53820  0.64130  0.43940  Biso   1.000  H
  H1278    1.0000 0.03820  0.85870  0.56060  Biso   1.000  H
  H1279    1.0000 0.96180  0.35870  0.93940  Biso   1.000  H
  H1280    1.0000 0.46180  0.14130  0.06060  Biso   1.000  H
  H1281    1.0000 0.43940  0.53820  0.64130  Biso   1.000  H
  H1282    1.0000 0.56060  0.03820  0.85870  Biso   1.000  H
  H1283    1.0000 0.93940  0.96180  0.35870  Biso   1.000  H
  H1284    1.0000 0.06060  0.46180  0.14130  Biso   1.000  H
  H1285    1.0000 0.68940  0.89130  0.78820  Biso   1.000  H
  H1286    1.0000 0.81060  0.10870  0.28820  Biso   1.000  H
  H1287    1.0000 0.18940  0.60870  0.21180  Biso   1.000  H
  H1288    1.0000 0.31060  0.39130  0.71180  Biso   1.000  H
  H1289    1.0000 0.89130  0.78820  0.68940  Biso   1.000  H
  H1290    1.0000 0.10870  0.28820  0.81060  Biso   1.000  H
  H1291    1.0000 0.60870  0.21180  0.18940  Biso   1.000  H
  H1292    1.0000 0.39130  0.71180  0.31060  Biso   1.000  H
  H1293    1.0000 0.78820  0.68940  0.89130  Biso   1.000  H
  H1294    1.0000 0.28820  0.81060  0.10870  Biso   1.000  H
  H1295    1.0000 0.21180  0.18940  0.60870  Biso   1.000  H
  H1296    1.0000 0.71180  0.31060  0.39130  Biso   1.000  H
  H1297    1.0000 0.16510  0.90700  0.04770  Biso   1.000  H
  H1298    1.0000 0.33490  0.09300  0.54770  Biso   1.000  H
  H1299    1.0000 0.83490  0.40700  0.45230  Biso   1.000  H
  H1300    1.0000 0.66510  0.59300  0.95230  Biso   1.000  H
  H1301    1.0000 0.04770  0.16510  0.90700  Biso   1.000  H
  H1302    1.0000 0.54770  0.33490  0.09300  Biso   1.000  H
  H1303    1.0000 0.45230  0.83490  0.40700  Biso   1.000  H
  H1304    1.0000 0.95230  0.66510  0.59300  Biso   1.000  H
  H1305    1.0000 0.90700  0.04770  0.16510  Biso   1.000  H
  H1306    1.0000 0.09300  0.54770  0.33490  Biso   1.000  H
  H1307    1.0000 0.40700  0.45230  0.83490  Biso   1.000  H
  H1308    1.0000 0.59300  0.95230  0.66510  Biso   1.000  H
  H1309    1.0000 0.15700  0.41510  0.29770  Biso   1.000  H
  H1310    1.0000 0.34300  0.58490  0.79770  Biso   1.000  H
  H1311    1.0000 0.65700  0.08490  0.70230  Biso   1.000  H
  H1312    1.0000 0.84300  0.91510  0.20230  Biso   1.000  H
  H1313    1.0000 0.41510  0.29770  0.15700  Biso   1.000  H
  H1314    1.0000 0.58490  0.79770  0.34300  Biso   1.000  H
  H1315    1.0000 0.08490  0.70230  0.65700  Biso   1.000  H
  H1316    1.0000 0.91510  0.20230  0.84300  Biso   1.000  H
  H1317    1.0000 0.29770  0.15700  0.41510  Biso   1.000  H
  H1318    1.0000 0.79770  0.34300  0.58490  Biso   1.000  H
  H1319    1.0000 0.70230  0.65700  0.08490  Biso   1.000  H
  H1320    1.0000 0.20230  0.84300  0.91510  Biso   1.000  H
  H1321    1.0000 0.66510  0.40700  0.54770  Biso   1.000  H
  H1322    1.0000 0.83490  0.59300  0.04770  Biso   1.000  H
  H1323    1.0000 0.33490  0.90700  0.95230  Biso   1.000  H
  H1324    1.0000 0.16510  0.09300  0.45230  Biso   1.000  H
  H1325    1.0000 0.54770  0.66510  0.40700  Biso   1.000  H
  H1326    1.0000 0.04770  0.83490  0.59300  Biso   1.000  H
  H1327    1.0000 0.95230  0.33490  0.90700  Biso   1.000  H
  H1328    1.0000 0.45230  0.16510  0.09300  Biso   1.000  H
  H1329    1.0000 0.40700  0.54770  0.66510  Biso   1.000  H
  H1330    1.0000 0.59300  0.04770  0.83490  Biso   1.000  H
  H1331    1.0000 0.90700  0.95230  0.33490  Biso   1.000  H
  H1332    1.0000 0.09300  0.45230  0.16510  Biso   1.000  H
  H1333    1.0000 0.65700  0.91510  0.79770  Biso   1.000  H
  H1334    1.0000 0.84300  0.08490  0.29770  Biso   1.000  H
  H1335    1.0000 0.15700  0.58490  0.20230  Biso   1.000  H
  H1336    1.0000 0.34300  0.41510  0.70230  Biso   1.000  H
  H1337    1.0000 0.91510  0.79770  0.65700  Biso   1.000  H
  H1338    1.0000 0.08490  0.29770  0.84300  Biso   1.000  H
  H1339    1.0000 0.58490  0.20230  0.15700  Biso   1.000  H
  H1340    1.0000 0.41510  0.70230  0.34300  Biso   1.000  H
  H1341    1.0000 0.79770  0.65700  0.91510  Biso   1.000  H
  H1342    1.0000 0.29770  0.84300  0.08490  Biso   1.000  H
  H1343    1.0000 0.20230  0.15700  0.58490  Biso   1.000  H
  H1344    1.0000 0.70230  0.34300  0.41510  Biso   1.000  H
  C1249    1.0000 0.38478  0.09810  0.96636  Biso   1.000  C
  C1250    1.0000 0.11522  0.90190  0.46636  Biso   1.000  C
  C1251    1.0000 0.61522  0.59810  0.53364  Biso   1.000  C
  C1252    1.0000 0.88478  0.40190  0.03364  Biso   1.000  C
  C1253    1.0000 0.96636  0.38478  0.09810  Biso   1.000  C
  C1254    1.0000 0.46636  0.11522  0.90190  Biso   1.000  C
  C1255    1.0000 0.53364  0.61522  0.59810  Biso   1.000  C
  C1256    1.0000 0.03364  0.88478  0.40190  Biso   1.000  C
  C1257    1.0000 0.09810  0.96636  0.38478  Biso   1.000  C
  C1258    1.0000 0.90190  0.46636  0.11522  Biso   1.000  C
  C1259    1.0000 0.59810  0.53364  0.61522  Biso   1.000  C
  C1260    1.0000 0.40190  0.03364  0.88478  Biso   1.000  C
  C1261    1.0000 0.34810  0.63478  0.21636  Biso   1.000  C
  C1262    1.0000 0.15190  0.36522  0.71636  Biso   1.000  C
  C1263    1.0000 0.84810  0.86522  0.78364  Biso   1.000  C
  C1264    1.0000 0.65190  0.13478  0.28364  Biso   1.000  C
  C1265    1.0000 0.63478  0.21636  0.34810  Biso   1.000  C
  C1266    1.0000 0.36522  0.71636  0.15190  Biso   1.000  C
  C1267    1.0000 0.86522  0.78364  0.84810  Biso   1.000  C
  C1268    1.0000 0.13478  0.28364  0.65190  Biso   1.000  C
  C1269    1.0000 0.21636  0.34810  0.63478  Biso   1.000  C
  C1270    1.0000 0.71636  0.15190  0.36522  Biso   1.000  C
  C1271    1.0000 0.78364  0.84810  0.86522  Biso   1.000  C
  C1272    1.0000 0.28364  0.65190  0.13478  Biso   1.000  C
  C1273    1.0000 0.88478  0.59810  0.46636  Biso   1.000  C
  C1274    1.0000 0.61522  0.40190  0.96636  Biso   1.000  C
  C1275    1.0000 0.11522  0.09810  0.03364  Biso   1.000  C
  C1276    1.0000 0.38478  0.90190  0.53364  Biso   1.000  C
  C1277    1.0000 0.46636  0.88478  0.59810  Biso   1.000  C
  C1278    1.0000 0.96636  0.61522  0.40190  Biso   1.000  C
  C1279    1.0000 0.03364  0.11522  0.09810  Biso   1.000  C
  C1280    1.0000 0.53364  0.38478  0.90190  Biso   1.000  C
  C1281    1.0000 0.59810  0.46636  0.88478  Biso   1.000  C
  C1282    1.0000 0.40190  0.96636  0.61522  Biso   1.000  C
  C1283    1.0000 0.09810  0.03364  0.11522  Biso   1.000  C
  C1284    1.0000 0.90190  0.53364  0.38478  Biso   1.000  C
  C1285    1.0000 0.84810  0.13478  0.71636  Biso   1.000  C
  C1286    1.0000 0.65190  0.86522  0.21636  Biso   1.000  C
  C1287    1.0000 0.34810  0.36522  0.28364  Biso   1.000  C
  C1288    1.0000 0.15190  0.63478  0.78364  Biso   1.000  C
  C1289    1.0000 0.13478  0.71636  0.84810  Biso   1.000  C
  C1290    1.0000 0.86522  0.21636  0.65190  Biso   1.000  C
  C1291    1.0000 0.36522  0.28364  0.34810  Biso   1.000  C
  C1292    1.0000 0.63478  0.78364  0.15190  Biso   1.000  C
  C1293    1.0000 0.71636  0.84810  0.13478  Biso   1.000  C
  C1294    1.0000 0.21636  0.65190  0.86522  Biso   1.000  C
  C1295    1.0000 0.28364  0.34810  0.36522  Biso   1.000  C
  C1296    1.0000 0.78364  0.15190  0.63478  Biso   1.000  C
  H1345    1.0000 0.40580  0.11250  0.96530  Biso   1.000  H
  H1346    1.0000 0.09420  0.88750  0.46530  Biso   1.000  H
  H1347    1.0000 0.59420  0.61250  0.53470  Biso   1.000  H
  H1348    1.0000 0.90580  0.38750  0.03470  Biso   1.000  H
  H1349    1.0000 0.96530  0.40580  0.11250  Biso   1.000  H
  H1350    1.0000 0.46530  0.09420  0.88750  Biso   1.000  H
  H1351    1.0000 0.53470  0.59420  0.61250  Biso   1.000  H
  H1352    1.0000 0.03470  0.90580  0.38750  Biso   1.000  H
  H1353    1.0000 0.11250  0.96530  0.40580  Biso   1.000  H
  H1354    1.0000 0.88750  0.46530  0.09420  Biso   1.000  H
  H1355    1.0000 0.61250  0.53470  0.59420  Biso   1.000  H
  H1356    1.0000 0.38750  0.03470  0.90580  Biso   1.000  H
  H1357    1.0000 0.36250  0.65580  0.21530  Biso   1.000  H
  H1358    1.0000 0.13750  0.34420  0.71530  Biso   1.000  H
  H1359    1.0000 0.86250  0.84420  0.78470  Biso   1.000  H
  H1360    1.0000 0.63750  0.15580  0.28470  Biso   1.000  H
  H1361    1.0000 0.65580  0.21530  0.36250  Biso   1.000  H
  H1362    1.0000 0.34420  0.71530  0.13750  Biso   1.000  H
  H1363    1.0000 0.84420  0.78470  0.86250  Biso   1.000  H
  H1364    1.0000 0.15580  0.28470  0.63750  Biso   1.000  H
  H1365    1.0000 0.21530  0.36250  0.65580  Biso   1.000  H
  H1366    1.0000 0.71530  0.13750  0.34420  Biso   1.000  H
  H1367    1.0000 0.78470  0.86250  0.84420  Biso   1.000  H
  H1368    1.0000 0.28470  0.63750  0.15580  Biso   1.000  H
  H1369    1.0000 0.90580  0.61250  0.46530  Biso   1.000  H
  H1370    1.0000 0.59420  0.38750  0.96530  Biso   1.000  H
  H1371    1.0000 0.09420  0.11250  0.03470  Biso   1.000  H
  H1372    1.0000 0.40580  0.88750  0.53470  Biso   1.000  H
  H1373    1.0000 0.46530  0.90580  0.61250  Biso   1.000  H
  H1374    1.0000 0.96530  0.59420  0.38750  Biso   1.000  H
  H1375    1.0000 0.03470  0.09420  0.11250  Biso   1.000  H
  H1376    1.0000 0.53470  0.40580  0.88750  Biso   1.000  H
  H1377    1.0000 0.61250  0.46530  0.90580  Biso   1.000  H
  H1378    1.0000 0.38750  0.96530  0.59420  Biso   1.000  H
  H1379    1.0000 0.11250  0.03470  0.09420  Biso   1.000  H
  H1380    1.0000 0.88750  0.53470  0.40580  Biso   1.000  H
  H1381    1.0000 0.86250  0.15580  0.71530  Biso   1.000  H
  H1382    1.0000 0.63750  0.84420  0.21530  Biso   1.000  H
  H1383    1.0000 0.36250  0.34420  0.28470  Biso   1.000  H
  H1384    1.0000 0.13750  0.65580  0.78470  Biso   1.000  H
  H1385    1.0000 0.15580  0.71530  0.86250  Biso   1.000  H
  H1386    1.0000 0.84420  0.21530  0.63750  Biso   1.000  H
  H1387    1.0000 0.34420  0.28470  0.36250  Biso   1.000  H
  H1388    1.0000 0.65580  0.78470  0.13750  Biso   1.000  H
  H1389    1.0000 0.71530  0.86250  0.15580  Biso   1.000  H
  H1390    1.0000 0.21530  0.63750  0.84420  Biso   1.000  H
  H1391    1.0000 0.28470  0.36250  0.34420  Biso   1.000  H
  H1392    1.0000 0.78470  0.13750  0.65580  Biso   1.000  H
  H1393    1.0000 0.37580  0.09550  0.94270  Biso   1.000  H
  H1394    1.0000 0.12420  0.90450  0.44270  Biso   1.000  H
  H1395    1.0000 0.62420  0.59550  0.55730  Biso   1.000  H
  H1396    1.0000 0.87580  0.40450  0.05730  Biso   1.000  H
  H1397    1.0000 0.94270  0.37580  0.09550  Biso   1.000  H
  H1398    1.0000 0.44270  0.12420  0.90450  Biso   1.000  H
  H1399    1.0000 0.55730  0.62420  0.59550  Biso   1.000  H
  H1400    1.0000 0.05730  0.87580  0.40450  Biso   1.000  H
  H1401    1.0000 0.09550  0.94270  0.37580  Biso   1.000  H
  H1402    1.0000 0.90450  0.44270  0.12420  Biso   1.000  H
  H1403    1.0000 0.59550  0.55730  0.62420  Biso   1.000  H
  H1404    1.0000 0.40450  0.05730  0.87580  Biso   1.000  H
  H1405    1.0000 0.34550  0.62580  0.19270  Biso   1.000  H
  H1406    1.0000 0.15450  0.37420  0.69270  Biso   1.000  H
  H1407    1.0000 0.84550  0.87420  0.80730  Biso   1.000  H
  H1408    1.0000 0.65450  0.12580  0.30730  Biso   1.000  H
  H1409    1.0000 0.62580  0.19270  0.34550  Biso   1.000  H
  H1410    1.0000 0.37420  0.69270  0.15450  Biso   1.000  H
  H1411    1.0000 0.87420  0.80730  0.84550  Biso   1.000  H
  H1412    1.0000 0.12580  0.30730  0.65450  Biso   1.000  H
  H1413    1.0000 0.19270  0.34550  0.62580  Biso   1.000  H
  H1414    1.0000 0.69270  0.15450  0.37420  Biso   1.000  H
  H1415    1.0000 0.80730  0.84550  0.87420  Biso   1.000  H
  H1416    1.0000 0.30730  0.65450  0.12580  Biso   1.000  H
  H1417    1.0000 0.87580  0.59550  0.44270  Biso   1.000  H
  H1418    1.0000 0.62420  0.40450  0.94270  Biso   1.000  H
  H1419    1.0000 0.12420  0.09550  0.05730  Biso   1.000  H
  H1420    1.0000 0.37580  0.90450  0.55730  Biso   1.000  H
  H1421    1.0000 0.44270  0.87580  0.59550  Biso   1.000  H
  H1422    1.0000 0.94270  0.62420  0.40450  Biso   1.000  H
  H1423    1.0000 0.05730  0.12420  0.09550  Biso   1.000  H
  H1424    1.0000 0.55730  0.37580  0.90450  Biso   1.000  H
  H1425    1.0000 0.59550  0.44270  0.87580  Biso   1.000  H
  H1426    1.0000 0.40450  0.94270  0.62420  Biso   1.000  H
  H1427    1.0000 0.09550  0.05730  0.12420  Biso   1.000  H
  H1428    1.0000 0.90450  0.55730  0.37580  Biso   1.000  H
  H1429    1.0000 0.84550  0.12580  0.69270  Biso   1.000  H
  H1430    1.0000 0.65450  0.87420  0.19270  Biso   1.000  H
  H1431    1.0000 0.34550  0.37420  0.30730  Biso   1.000  H
  H1432    1.0000 0.15450  0.62580  0.80730  Biso   1.000  H
  H1433    1.0000 0.12580  0.69270  0.84550  Biso   1.000  H
  H1434    1.0000 0.87420  0.19270  0.65450  Biso   1.000  H
  H1435    1.0000 0.37420  0.30730  0.34550  Biso   1.000  H
  H1436    1.0000 0.62580  0.80730  0.15450  Biso   1.000  H
  H1437    1.0000 0.69270  0.84550  0.12580  Biso   1.000  H
  H1438    1.0000 0.19270  0.65450  0.87420  Biso   1.000  H
  H1439    1.0000 0.30730  0.34550  0.37420  Biso   1.000  H
  H1440    1.0000 0.80730  0.15450  0.62580  Biso   1.000  H
  C1297    1.0000 0.14690  0.13693  0.27159  Biso   1.000  C
  C1298    1.0000 0.35310  0.86307  0.77159  Biso   1.000  C
  C1299    1.0000 0.85310  0.63693  0.22841  Biso   1.000  C
  C1300    1.0000 0.64690  0.36307  0.72841  Biso   1.000  C
  C1301    1.0000 0.27159  0.14690  0.13693  Biso   1.000  C
  C1302    1.0000 0.77159  0.35310  0.86307  Biso   1.000  C
  C1303    1.0000 0.22841  0.85310  0.63693  Biso   1.000  C
  C1304    1.0000 0.72841  0.64690  0.36307  Biso   1.000  C
  C1305    1.0000 0.13693  0.27159  0.14690  Biso   1.000  C
  C1306    1.0000 0.86307  0.77159  0.35310  Biso   1.000  C
  C1307    1.0000 0.63693  0.22841  0.85310  Biso   1.000  C
  C1308    1.0000 0.36307  0.72841  0.64690  Biso   1.000  C
  C1309    1.0000 0.38693  0.39690  0.52159  Biso   1.000  C
  C1310    1.0000 0.11307  0.60310  0.02159  Biso   1.000  C
  C1311    1.0000 0.88693  0.10310  0.47841  Biso   1.000  C
  C1312    1.0000 0.61307  0.89690  0.97841  Biso   1.000  C
  C1313    1.0000 0.39690  0.52159  0.38693  Biso   1.000  C
  C1314    1.0000 0.60310  0.02159  0.11307  Biso   1.000  C
  C1315    1.0000 0.10310  0.47841  0.88693  Biso   1.000  C
  C1316    1.0000 0.89690  0.97841  0.61307  Biso   1.000  C
  C1317    1.0000 0.52159  0.38693  0.39690  Biso   1.000  C
  C1318    1.0000 0.02159  0.11307  0.60310  Biso   1.000  C
  C1319    1.0000 0.47841  0.88693  0.10310  Biso   1.000  C
  C1320    1.0000 0.97841  0.61307  0.89690  Biso   1.000  C
  C1321    1.0000 0.64690  0.63693  0.77159  Biso   1.000  C
  C1322    1.0000 0.85310  0.36307  0.27159  Biso   1.000  C
  C1323    1.0000 0.35310  0.13693  0.72841  Biso   1.000  C
  C1324    1.0000 0.14690  0.86307  0.22841  Biso   1.000  C
  C1325    1.0000 0.77159  0.64690  0.63693  Biso   1.000  C
  C1326    1.0000 0.27159  0.85310  0.36307  Biso   1.000  C
  C1327    1.0000 0.72841  0.35310  0.13693  Biso   1.000  C
  C1328    1.0000 0.22841  0.14690  0.86307  Biso   1.000  C
  C1329    1.0000 0.63693  0.77159  0.64690  Biso   1.000  C
  C1330    1.0000 0.36307  0.27159  0.85310  Biso   1.000  C
  C1331    1.0000 0.13693  0.72841  0.35310  Biso   1.000  C
  C1332    1.0000 0.86307  0.22841  0.14690  Biso   1.000  C
  C1333    1.0000 0.88693  0.89690  0.02159  Biso   1.000  C
  C1334    1.0000 0.61307  0.10310  0.52159  Biso   1.000  C
  C1335    1.0000 0.38693  0.60310  0.97841  Biso   1.000  C
  C1336    1.0000 0.11307  0.39690  0.47841  Biso   1.000  C
  C1337    1.0000 0.89690  0.02159  0.88693  Biso   1.000  C
  C1338    1.0000 0.10310  0.52159  0.61307  Biso   1.000  C
  C1339    1.0000 0.60310  0.97841  0.38693  Biso   1.000  C
  C1340    1.0000 0.39690  0.47841  0.11307  Biso   1.000  C
  C1341    1.0000 0.02159  0.88693  0.89690  Biso   1.000  C
  C1342    1.0000 0.52159  0.61307  0.10310  Biso   1.000  C
  C1343    1.0000 0.97841  0.38693  0.60310  Biso   1.000  C
  C1344    1.0000 0.47841  0.11307  0.39690  Biso   1.000  C
  H1441    1.0000 0.15470  0.15550  0.28760  Biso   1.000  H
  H1442    1.0000 0.34530  0.84450  0.78760  Biso   1.000  H
  H1443    1.0000 0.84530  0.65550  0.21240  Biso   1.000  H
  H1444    1.0000 0.65470  0.34450  0.71240  Biso   1.000  H
  H1445    1.0000 0.28760  0.15470  0.15550  Biso   1.000  H
  H1446    1.0000 0.78760  0.34530  0.84450  Biso   1.000  H
  H1447    1.0000 0.21240  0.84530  0.65550  Biso   1.000  H
  H1448    1.0000 0.71240  0.65470  0.34450  Biso   1.000  H
  H1449    1.0000 0.15550  0.28760  0.15470  Biso   1.000  H
  H1450    1.0000 0.84450  0.78760  0.34530  Biso   1.000  H
  H1451    1.0000 0.65550  0.21240  0.84530  Biso   1.000  H
  H1452    1.0000 0.34450  0.71240  0.65470  Biso   1.000  H
  H1453    1.0000 0.40550  0.40470  0.53760  Biso   1.000  H
  H1454    1.0000 0.09450  0.59530  0.03760  Biso   1.000  H
  H1455    1.0000 0.90550  0.09530  0.46240  Biso   1.000  H
  H1456    1.0000 0.59450  0.90470  0.96240  Biso   1.000  H
  H1457    1.0000 0.40470  0.53760  0.40550  Biso   1.000  H
  H1458    1.0000 0.59530  0.03760  0.09450  Biso   1.000  H
  H1459    1.0000 0.09530  0.46240  0.90550  Biso   1.000  H
  H1460    1.0000 0.90470  0.96240  0.59450  Biso   1.000  H
  H1461    1.0000 0.53760  0.40550  0.40470  Biso   1.000  H
  H1462    1.0000 0.03760  0.09450  0.59530  Biso   1.000  H
  H1463    1.0000 0.46240  0.90550  0.09530  Biso   1.000  H
  H1464    1.0000 0.96240  0.59450  0.90470  Biso   1.000  H
  H1465    1.0000 0.65470  0.65550  0.78760  Biso   1.000  H
  H1466    1.0000 0.84530  0.34450  0.28760  Biso   1.000  H
  H1467    1.0000 0.34530  0.15550  0.71240  Biso   1.000  H
  H1468    1.0000 0.15470  0.84450  0.21240  Biso   1.000  H
  H1469    1.0000 0.78760  0.65470  0.65550  Biso   1.000  H
  H1470    1.0000 0.28760  0.84530  0.34450  Biso   1.000  H
  H1471    1.0000 0.71240  0.34530  0.15550  Biso   1.000  H
  H1472    1.0000 0.21240  0.15470  0.84450  Biso   1.000  H
  H1473    1.0000 0.65550  0.78760  0.65470  Biso   1.000  H
  H1474    1.0000 0.34450  0.28760  0.84530  Biso   1.000  H
  H1475    1.0000 0.15550  0.71240  0.34530  Biso   1.000  H
  H1476    1.0000 0.84450  0.21240  0.15470  Biso   1.000  H
  H1477    1.0000 0.90550  0.90470  0.03760  Biso   1.000  H
  H1478    1.0000 0.59450  0.09530  0.53760  Biso   1.000  H
  H1479    1.0000 0.40550  0.59530  0.96240  Biso   1.000  H
  H1480    1.0000 0.09450  0.40470  0.46240  Biso   1.000  H
  H1481    1.0000 0.90470  0.03760  0.90550  Biso   1.000  H
  H1482    1.0000 0.09530  0.53760  0.59450  Biso   1.000  H
  H1483    1.0000 0.59530  0.96240  0.40550  Biso   1.000  H
  H1484    1.0000 0.40470  0.46240  0.09450  Biso   1.000  H
  H1485    1.0000 0.03760  0.90550  0.90470  Biso   1.000  H
  H1486    1.0000 0.53760  0.59450  0.09530  Biso   1.000  H
  H1487    1.0000 0.96240  0.40550  0.59530  Biso   1.000  H
  H1488    1.0000 0.46240  0.09450  0.40470  Biso   1.000  H
  C1345    1.0000 0.12765  0.06379  0.25960  Biso   1.000  C
  C1346    1.0000 0.37235  0.93621  0.75960  Biso   1.000  C
  C1347    1.0000 0.87235  0.56379  0.24040  Biso   1.000  C
  C1348    1.0000 0.62765  0.43621  0.74040  Biso   1.000  C
  C1349    1.0000 0.25960  0.12765  0.06379  Biso   1.000  C
  C1350    1.0000 0.75960  0.37235  0.93621  Biso   1.000  C
  C1351    1.0000 0.24040  0.87235  0.56379  Biso   1.000  C
  C1352    1.0000 0.74040  0.62765  0.43621  Biso   1.000  C
  C1353    1.0000 0.06379  0.25960  0.12765  Biso   1.000  C
  C1354    1.0000 0.93621  0.75960  0.37235  Biso   1.000  C
  C1355    1.0000 0.56379  0.24040  0.87235  Biso   1.000  C
  C1356    1.0000 0.43621  0.74040  0.62765  Biso   1.000  C
  C1357    1.0000 0.31379  0.37765  0.50960  Biso   1.000  C
  C1358    1.0000 0.18621  0.62235  0.00960  Biso   1.000  C
  C1359    1.0000 0.81379  0.12235  0.49040  Biso   1.000  C
  C1360    1.0000 0.68621  0.87765  0.99040  Biso   1.000  C
  C1361    1.0000 0.37765  0.50960  0.31379  Biso   1.000  C
  C1362    1.0000 0.62235  0.00960  0.18621  Biso   1.000  C
  C1363    1.0000 0.12235  0.49040  0.81379  Biso   1.000  C
  C1364    1.0000 0.87765  0.99040  0.68621  Biso   1.000  C
  C1365    1.0000 0.50960  0.31379  0.37765  Biso   1.000  C
  C1366    1.0000 0.00960  0.18621  0.62235  Biso   1.000  C
  C1367    1.0000 0.49040  0.81379  0.12235  Biso   1.000  C
  C1368    1.0000 0.99040  0.68621  0.87765  Biso   1.000  C
  C1369    1.0000 0.62765  0.56379  0.75960  Biso   1.000  C
  C1370    1.0000 0.87235  0.43621  0.25960  Biso   1.000  C
  C1371    1.0000 0.37235  0.06379  0.74040  Biso   1.000  C
  C1372    1.0000 0.12765  0.93621  0.24040  Biso   1.000  C
  C1373    1.0000 0.75960  0.62765  0.56379  Biso   1.000  C
  C1374    1.0000 0.25960  0.87235  0.43621  Biso   1.000  C
  C1375    1.0000 0.74040  0.37235  0.06379  Biso   1.000  C
  C1376    1.0000 0.24040  0.12765  0.93621  Biso   1.000  C
  C1377    1.0000 0.56379  0.75960  0.62765  Biso   1.000  C
  C1378    1.0000 0.43621  0.25960  0.87235  Biso   1.000  C
  C1379    1.0000 0.06379  0.74040  0.37235  Biso   1.000  C
  C1380    1.0000 0.93621  0.24040  0.12765  Biso   1.000  C
  C1381    1.0000 0.81379  0.87765  0.00960  Biso   1.000  C
  C1382    1.0000 0.68621  0.12235  0.50960  Biso   1.000  C
  C1383    1.0000 0.31379  0.62235  0.99040  Biso   1.000  C
  C1384    1.0000 0.18621  0.37765  0.49040  Biso   1.000  C
  C1385    1.0000 0.87765  0.00960  0.81379  Biso   1.000  C
  C1386    1.0000 0.12235  0.50960  0.68621  Biso   1.000  C
  C1387    1.0000 0.62235  0.99040  0.31379  Biso   1.000  C
  C1388    1.0000 0.37765  0.49040  0.18621  Biso   1.000  C
  C1389    1.0000 0.00960  0.81379  0.87765  Biso   1.000  C
  C1390    1.0000 0.50960  0.68621  0.12235  Biso   1.000  C
  C1391    1.0000 0.99040  0.31379  0.62235  Biso   1.000  C
  C1392    1.0000 0.49040  0.18621  0.37765  Biso   1.000  C
  H1489    1.0000 0.13060  0.05430  0.28310  Biso   1.000  H
  H1490    1.0000 0.36940  0.94570  0.78310  Biso   1.000  H
  H1491    1.0000 0.86940  0.55430  0.21690  Biso   1.000  H
  H1492    1.0000 0.63060  0.44570  0.71690  Biso   1.000  H
  H1493    1.0000 0.28310  0.13060  0.05430  Biso   1.000  H
  H1494    1.0000 0.78310  0.36940  0.94570  Biso   1.000  H
  H1495    1.0000 0.21690  0.86940  0.55430  Biso   1.000  H
  H1496    1.0000 0.71690  0.63060  0.44570  Biso   1.000  H
  H1497    1.0000 0.05430  0.28310  0.13060  Biso   1.000  H
  H1498    1.0000 0.94570  0.78310  0.36940  Biso   1.000  H
  H1499    1.0000 0.55430  0.21690  0.86940  Biso   1.000  H
  H1500    1.0000 0.44570  0.71690  0.63060  Biso   1.000  H
  H1501    1.0000 0.30430  0.38060  0.53310  Biso   1.000  H
  H1502    1.0000 0.19570  0.61940  0.03310  Biso   1.000  H
  H1503    1.0000 0.80430  0.11940  0.46690  Biso   1.000  H
  H1504    1.0000 0.69570  0.88060  0.96690  Biso   1.000  H
  H1505    1.0000 0.38060  0.53310  0.30430  Biso   1.000  H
  H1506    1.0000 0.61940  0.03310  0.19570  Biso   1.000  H
  H1507    1.0000 0.11940  0.46690  0.80430  Biso   1.000  H
  H1508    1.0000 0.88060  0.96690  0.69570  Biso   1.000  H
  H1509    1.0000 0.53310  0.30430  0.38060  Biso   1.000  H
  H1510    1.0000 0.03310  0.19570  0.61940  Biso   1.000  H
  H1511    1.0000 0.46690  0.80430  0.11940  Biso   1.000  H
  H1512    1.0000 0.96690  0.69570  0.88060  Biso   1.000  H
  H1513    1.0000 0.63060  0.55430  0.78310  Biso   1.000  H
  H1514    1.0000 0.86940  0.44570  0.28310  Biso   1.000  H
  H1515    1.0000 0.36940  0.05430  0.71690  Biso   1.000  H
  H1516    1.0000 0.13060  0.94570  0.21690  Biso   1.000  H
  H1517    1.0000 0.78310  0.63060  0.55430  Biso   1.000  H
  H1518    1.0000 0.28310  0.86940  0.44570  Biso   1.000  H
  H1519    1.0000 0.71690  0.36940  0.05430  Biso   1.000  H
  H1520    1.0000 0.21690  0.13060  0.94570  Biso   1.000  H
  H1521    1.0000 0.55430  0.78310  0.63060  Biso   1.000  H
  H1522    1.0000 0.44570  0.28310  0.86940  Biso   1.000  H
  H1523    1.0000 0.05430  0.71690  0.36940  Biso   1.000  H
  H1524    1.0000 0.94570  0.21690  0.13060  Biso   1.000  H
  H1525    1.0000 0.80430  0.88060  0.03310  Biso   1.000  H
  H1526    1.0000 0.69570  0.11940  0.53310  Biso   1.000  H
  H1527    1.0000 0.30430  0.61940  0.96690  Biso   1.000  H
  H1528    1.0000 0.19570  0.38060  0.46690  Biso   1.000  H
  H1529    1.0000 0.88060  0.03310  0.80430  Biso   1.000  H
  H1530    1.0000 0.11940  0.53310  0.69570  Biso   1.000  H
  H1531    1.0000 0.61940  0.96690  0.30430  Biso   1.000  H
  H1532    1.0000 0.38060  0.46690  0.19570  Biso   1.000  H
  H1533    1.0000 0.03310  0.80430  0.88060  Biso   1.000  H
  H1534    1.0000 0.53310  0.69570  0.11940  Biso   1.000  H
  H1535    1.0000 0.96690  0.30430  0.61940  Biso   1.000  H
  H1536    1.0000 0.46690  0.19570  0.38060  Biso   1.000  H
  H1537    1.0000 0.11970  0.04500  0.24430  Biso   1.000  H
  H1538    1.0000 0.38030  0.95500  0.74430  Biso   1.000  H
  H1539    1.0000 0.88030  0.54500  0.25570  Biso   1.000  H
  H1540    1.0000 0.61970  0.45500  0.75570  Biso   1.000  H
  H1541    1.0000 0.24430  0.11970  0.04500  Biso   1.000  H
  H1542    1.0000 0.74430  0.38030  0.95500  Biso   1.000  H
  H1543    1.0000 0.25570  0.88030  0.54500  Biso   1.000  H
  H1544    1.0000 0.75570  0.61970  0.45500  Biso   1.000  H
  H1545    1.0000 0.04500  0.24430  0.11970  Biso   1.000  H
  H1546    1.0000 0.95500  0.74430  0.38030  Biso   1.000  H
  H1547    1.0000 0.54500  0.25570  0.88030  Biso   1.000  H
  H1548    1.0000 0.45500  0.75570  0.61970  Biso   1.000  H
  H1549    1.0000 0.29500  0.36970  0.49430  Biso   1.000  H
  H1550    1.0000 0.20500  0.63030  0.99430  Biso   1.000  H
  H1551    1.0000 0.79500  0.13030  0.50570  Biso   1.000  H
  H1552    1.0000 0.70500  0.86970  0.00570  Biso   1.000  H
  H1553    1.0000 0.36970  0.49430  0.29500  Biso   1.000  H
  H1554    1.0000 0.63030  0.99430  0.20500  Biso   1.000  H
  H1555    1.0000 0.13030  0.50570  0.79500  Biso   1.000  H
  H1556    1.0000 0.86970  0.00570  0.70500  Biso   1.000  H
  H1557    1.0000 0.49430  0.29500  0.36970  Biso   1.000  H
  H1558    1.0000 0.99430  0.20500  0.63030  Biso   1.000  H
  H1559    1.0000 0.50570  0.79500  0.13030  Biso   1.000  H
  H1560    1.0000 0.00570  0.70500  0.86970  Biso   1.000  H
  H1561    1.0000 0.61970  0.54500  0.74430  Biso   1.000  H
  H1562    1.0000 0.88030  0.45500  0.24430  Biso   1.000  H
  H1563    1.0000 0.38030  0.04500  0.75570  Biso   1.000  H
  H1564    1.0000 0.11970  0.95500  0.25570  Biso   1.000  H
  H1565    1.0000 0.74430  0.61970  0.54500  Biso   1.000  H
  H1566    1.0000 0.24430  0.88030  0.45500  Biso   1.000  H
  H1567    1.0000 0.75570  0.38030  0.04500  Biso   1.000  H
  H1568    1.0000 0.25570  0.11970  0.95500  Biso   1.000  H
  H1569    1.0000 0.54500  0.74430  0.61970  Biso   1.000  H
  H1570    1.0000 0.45500  0.24430  0.88030  Biso   1.000  H
  H1571    1.0000 0.04500  0.75570  0.38030  Biso   1.000  H
  H1572    1.0000 0.95500  0.25570  0.11970  Biso   1.000  H
  H1573    1.0000 0.79500  0.86970  0.99430  Biso   1.000  H
  H1574    1.0000 0.70500  0.13030  0.49430  Biso   1.000  H
  H1575    1.0000 0.29500  0.63030  0.00570  Biso   1.000  H
  H1576    1.0000 0.20500  0.36970  0.50570  Biso   1.000  H
  H1577    1.0000 0.86970  0.99430  0.79500  Biso   1.000  H
  H1578    1.0000 0.13030  0.49430  0.70500  Biso   1.000  H
  H1579    1.0000 0.63030  0.00570  0.29500  Biso   1.000  H
  H1580    1.0000 0.36970  0.50570  0.20500  Biso   1.000  H
  H1581    1.0000 0.99430  0.79500  0.86970  Biso   1.000  H
  H1582    1.0000 0.49430  0.70500  0.13030  Biso   1.000  H
  H1583    1.0000 0.00570  0.29500  0.63030  Biso   1.000  H
  H1584    1.0000 0.50570  0.20500  0.36970  Biso   1.000  H
  C1393    1.0000 0.34595  0.05982  0.25822  Biso   1.000  C
  C1394    1.0000 0.15405  0.94018  0.75822  Biso   1.000  C
  C1395    1.0000 0.65405  0.55982  0.24178  Biso   1.000  C
  C1396    1.0000 0.84595  0.44018  0.74178  Biso   1.000  C
  C1397    1.0000 0.25822  0.34595  0.05982  Biso   1.000  C
  C1398    1.0000 0.75822  0.15405  0.94018  Biso   1.000  C
  C1399    1.0000 0.24178  0.65405  0.55982  Biso   1.000  C
  C1400    1.0000 0.74178  0.84595  0.44018  Biso   1.000  C
  C1401    1.0000 0.05982  0.25822  0.34595  Biso   1.000  C
  C1402    1.0000 0.94018  0.75822  0.15405  Biso   1.000  C
  C1403    1.0000 0.55982  0.24178  0.65405  Biso   1.000  C
  C1404    1.0000 0.44018  0.74178  0.84595  Biso   1.000  C
  C1405    1.0000 0.30982  0.59595  0.50822  Biso   1.000  C
  C1406    1.0000 0.19018  0.40405  0.00822  Biso   1.000  C
  C1407    1.0000 0.80982  0.90405  0.49178  Biso   1.000  C
  C1408    1.0000 0.69018  0.09595  0.99178  Biso   1.000  C
  C1409    1.0000 0.59595  0.50822  0.30982  Biso   1.000  C
  C1410    1.0000 0.40405  0.00822  0.19018  Biso   1.000  C
  C1411    1.0000 0.90405  0.49178  0.80982  Biso   1.000  C
  C1412    1.0000 0.09595  0.99178  0.69018  Biso   1.000  C
  C1413    1.0000 0.50822  0.30982  0.59595  Biso   1.000  C
  C1414    1.0000 0.00822  0.19018  0.40405  Biso   1.000  C
  C1415    1.0000 0.49178  0.80982  0.90405  Biso   1.000  C
  C1416    1.0000 0.99178  0.69018  0.09595  Biso   1.000  C
  C1417    1.0000 0.84595  0.55982  0.75822  Biso   1.000  C
  C1418    1.0000 0.65405  0.44018  0.25822  Biso   1.000  C
  C1419    1.0000 0.15405  0.05982  0.74178  Biso   1.000  C
  C1420    1.0000 0.34595  0.94018  0.24178  Biso   1.000  C
  C1421    1.0000 0.75822  0.84595  0.55982  Biso   1.000  C
  C1422    1.0000 0.25822  0.65405  0.44018  Biso   1.000  C
  C1423    1.0000 0.74178  0.15405  0.05982  Biso   1.000  C
  C1424    1.0000 0.24178  0.34595  0.94018  Biso   1.000  C
  C1425    1.0000 0.55982  0.75822  0.84595  Biso   1.000  C
  C1426    1.0000 0.44018  0.25822  0.65405  Biso   1.000  C
  C1427    1.0000 0.05982  0.74178  0.15405  Biso   1.000  C
  C1428    1.0000 0.94018  0.24178  0.34595  Biso   1.000  C
  C1429    1.0000 0.80982  0.09595  0.00822  Biso   1.000  C
  C1430    1.0000 0.69018  0.90405  0.50822  Biso   1.000  C
  C1431    1.0000 0.30982  0.40405  0.99178  Biso   1.000  C
  C1432    1.0000 0.19018  0.59595  0.49178  Biso   1.000  C
  C1433    1.0000 0.09595  0.00822  0.80982  Biso   1.000  C
  C1434    1.0000 0.90405  0.50822  0.69018  Biso   1.000  C
  C1435    1.0000 0.40405  0.99178  0.30982  Biso   1.000  C
  C1436    1.0000 0.59595  0.49178  0.19018  Biso   1.000  C
  C1437    1.0000 0.00822  0.80982  0.09595  Biso   1.000  C
  C1438    1.0000 0.50822  0.69018  0.90405  Biso   1.000  C
  C1439    1.0000 0.99178  0.30982  0.40405  Biso   1.000  C
  C1440    1.0000 0.49178  0.19018  0.59595  Biso   1.000  C
  H1585    1.0000 0.35220  0.04210  0.24100  Biso   1.000  H
  H1586    1.0000 0.14780  0.95790  0.74100  Biso   1.000  H
  H1587    1.0000 0.64780  0.54210  0.25900  Biso   1.000  H
  H1588    1.0000 0.85220  0.45790  0.75900  Biso   1.000  H
  H1589    1.0000 0.24100  0.35220  0.04210  Biso   1.000  H
  H1590    1.0000 0.74100  0.14780  0.95790  Biso   1.000  H
  H1591    1.0000 0.25900  0.64780  0.54210  Biso   1.000  H
  H1592    1.0000 0.75900  0.85220  0.45790  Biso   1.000  H
  H1593    1.0000 0.04210  0.24100  0.35220  Biso   1.000  H
  H1594    1.0000 0.95790  0.74100  0.14780  Biso   1.000  H
  H1595    1.0000 0.54210  0.25900  0.64780  Biso   1.000  H
  H1596    1.0000 0.45790  0.75900  0.85220  Biso   1.000  H
  H1597    1.0000 0.29210  0.60220  0.49100  Biso   1.000  H
  H1598    1.0000 0.20790  0.39780  0.99100  Biso   1.000  H
  H1599    1.0000 0.79210  0.89780  0.50900  Biso   1.000  H
  H1600    1.0000 0.70790  0.10220  0.00900  Biso   1.000  H
  H1601    1.0000 0.60220  0.49100  0.29210  Biso   1.000  H
  H1602    1.0000 0.39780  0.99100  0.20790  Biso   1.000  H
  H1603    1.0000 0.89780  0.50900  0.79210  Biso   1.000  H
  H1604    1.0000 0.10220  0.00900  0.70790  Biso   1.000  H
  H1605    1.0000 0.49100  0.29210  0.60220  Biso   1.000  H
  H1606    1.0000 0.99100  0.20790  0.39780  Biso   1.000  H
  H1607    1.0000 0.50900  0.79210  0.89780  Biso   1.000  H
  H1608    1.0000 0.00900  0.70790  0.10220  Biso   1.000  H
  H1609    1.0000 0.85220  0.54210  0.74100  Biso   1.000  H
  H1610    1.0000 0.64780  0.45790  0.24100  Biso   1.000  H
  H1611    1.0000 0.14780  0.04210  0.75900  Biso   1.000  H
  H1612    1.0000 0.35220  0.95790  0.25900  Biso   1.000  H
  H1613    1.0000 0.74100  0.85220  0.54210  Biso   1.000  H
  H1614    1.0000 0.24100  0.64780  0.45790  Biso   1.000  H
  H1615    1.0000 0.75900  0.14780  0.04210  Biso   1.000  H
  H1616    1.0000 0.25900  0.35220  0.95790  Biso   1.000  H
  H1617    1.0000 0.54210  0.74100  0.85220  Biso   1.000  H
  H1618    1.0000 0.45790  0.24100  0.64780  Biso   1.000  H
  H1619    1.0000 0.04210  0.75900  0.14780  Biso   1.000  H
  H1620    1.0000 0.95790  0.25900  0.35220  Biso   1.000  H
  H1621    1.0000 0.79210  0.10220  0.99100  Biso   1.000  H
  H1622    1.0000 0.70790  0.89780  0.49100  Biso   1.000  H
  H1623    1.0000 0.29210  0.39780  0.00900  Biso   1.000  H
  H1624    1.0000 0.20790  0.60220  0.50900  Biso   1.000  H
  H1625    1.0000 0.10220  0.99100  0.79210  Biso   1.000  H
  H1626    1.0000 0.89780  0.49100  0.70790  Biso   1.000  H
  H1627    1.0000 0.39780  0.00900  0.29210  Biso   1.000  H
  H1628    1.0000 0.60220  0.50900  0.20790  Biso   1.000  H
  H1629    1.0000 0.99100  0.79210  0.10220  Biso   1.000  H
  H1630    1.0000 0.49100  0.70790  0.89780  Biso   1.000  H
  H1631    1.0000 0.00900  0.29210  0.39780  Biso   1.000  H
  H1632    1.0000 0.50900  0.20790  0.60220  Biso   1.000  H
  H1633    1.0000 0.34390  0.04850  0.28100  Biso   1.000  H
  H1634    1.0000 0.15610  0.95150  0.78100  Biso   1.000  H
  H1635    1.0000 0.65610  0.54850  0.21900  Biso   1.000  H
  H1636    1.0000 0.84390  0.45150  0.71900  Biso   1.000  H
  H1637    1.0000 0.28100  0.34390  0.04850  Biso   1.000  H
  H1638    1.0000 0.78100  0.15610  0.95150  Biso   1.000  H
  H1639    1.0000 0.21900  0.65610  0.54850  Biso   1.000  H
  H1640    1.0000 0.71900  0.84390  0.45150  Biso   1.000  H
  H1641    1.0000 0.04850  0.28100  0.34390  Biso   1.000  H
  H1642    1.0000 0.95150  0.78100  0.15610  Biso   1.000  H
  H1643    1.0000 0.54850  0.21900  0.65610  Biso   1.000  H
  H1644    1.0000 0.45150  0.71900  0.84390  Biso   1.000  H
  H1645    1.0000 0.29850  0.59390  0.53100  Biso   1.000  H
  H1646    1.0000 0.20150  0.40610  0.03100  Biso   1.000  H
  H1647    1.0000 0.79850  0.90610  0.46900  Biso   1.000  H
  H1648    1.0000 0.70150  0.09390  0.96900  Biso   1.000  H
  H1649    1.0000 0.59390  0.53100  0.29850  Biso   1.000  H
  H1650    1.0000 0.40610  0.03100  0.20150  Biso   1.000  H
  H1651    1.0000 0.90610  0.46900  0.79850  Biso   1.000  H
  H1652    1.0000 0.09390  0.96900  0.70150  Biso   1.000  H
  H1653    1.0000 0.53100  0.29850  0.59390  Biso   1.000  H
  H1654    1.0000 0.03100  0.20150  0.40610  Biso   1.000  H
  H1655    1.0000 0.46900  0.79850  0.90610  Biso   1.000  H
  H1656    1.0000 0.96900  0.70150  0.09390  Biso   1.000  H
  H1657    1.0000 0.84390  0.54850  0.78100  Biso   1.000  H
  H1658    1.0000 0.65610  0.45150  0.28100  Biso   1.000  H
  H1659    1.0000 0.15610  0.04850  0.71900  Biso   1.000  H
  H1660    1.0000 0.34390  0.95150  0.21900  Biso   1.000  H
  H1661    1.0000 0.78100  0.84390  0.54850  Biso   1.000  H
  H1662    1.0000 0.28100  0.65610  0.45150  Biso   1.000  H
  H1663    1.0000 0.71900  0.15610  0.04850  Biso   1.000  H
  H1664    1.0000 0.21900  0.34390  0.95150  Biso   1.000  H
  H1665    1.0000 0.54850  0.78100  0.84390  Biso   1.000  H
  H1666    1.0000 0.45150  0.28100  0.65610  Biso   1.000  H
  H1667    1.0000 0.04850  0.71900  0.15610  Biso   1.000  H
  H1668    1.0000 0.95150  0.21900  0.34390  Biso   1.000  H
  H1669    1.0000 0.79850  0.09390  0.03100  Biso   1.000  H
  H1670    1.0000 0.70150  0.90610  0.53100  Biso   1.000  H
  H1671    1.0000 0.29850  0.40610  0.96900  Biso   1.000  H
  H1672    1.0000 0.20150  0.59390  0.46900  Biso   1.000  H
  H1673    1.0000 0.09390  0.03100  0.79850  Biso   1.000  H
  H1674    1.0000 0.90610  0.53100  0.70150  Biso   1.000  H
  H1675    1.0000 0.40610  0.96900  0.29850  Biso   1.000  H
  H1676    1.0000 0.59390  0.46900  0.20150  Biso   1.000  H
  H1677    1.0000 0.03100  0.79850  0.09390  Biso   1.000  H
  H1678    1.0000 0.53100  0.70150  0.90610  Biso   1.000  H
  H1679    1.0000 0.96900  0.29850  0.40610  Biso   1.000  H
  H1680    1.0000 0.46900  0.20150  0.59390  Biso   1.000  H
  C1441    1.0000 0.13070  0.12324  0.21004  Biso   1.000  C
  C1442    1.0000 0.36930  0.87676  0.71004  Biso   1.000  C
  C1443    1.0000 0.86930  0.62324  0.28996  Biso   1.000  C
  C1444    1.0000 0.63070  0.37676  0.78996  Biso   1.000  C
  C1445    1.0000 0.21004  0.13070  0.12324  Biso   1.000  C
  C1446    1.0000 0.71004  0.36930  0.87676  Biso   1.000  C
  C1447    1.0000 0.28996  0.86930  0.62324  Biso   1.000  C
  C1448    1.0000 0.78996  0.63070  0.37676  Biso   1.000  C
  C1449    1.0000 0.12324  0.21004  0.13070  Biso   1.000  C
  C1450    1.0000 0.87676  0.71004  0.36930  Biso   1.000  C
  C1451    1.0000 0.62324  0.28996  0.86930  Biso   1.000  C
  C1452    1.0000 0.37676  0.78996  0.63070  Biso   1.000  C
  C1453    1.0000 0.37324  0.38070  0.46004  Biso   1.000  C
  C1454    1.0000 0.12676  0.61930  0.96004  Biso   1.000  C
  C1455    1.0000 0.87324  0.11930  0.53996  Biso   1.000  C
  C1456    1.0000 0.62676  0.88070  0.03996  Biso   1.000  C
  C1457    1.0000 0.38070  0.46004  0.37324  Biso   1.000  C
  C1458    1.0000 0.61930  0.96004  0.12676  Biso   1.000  C
  C1459    1.0000 0.11930  0.53996  0.87324  Biso   1.000  C
  C1460    1.0000 0.88070  0.03996  0.62676  Biso   1.000  C
  C1461    1.0000 0.46004  0.37324  0.38070  Biso   1.000  C
  C1462    1.0000 0.96004  0.12676  0.61930  Biso   1.000  C
  C1463    1.0000 0.53996  0.87324  0.11930  Biso   1.000  C
  C1464    1.0000 0.03996  0.62676  0.88070  Biso   1.000  C
  C1465    1.0000 0.63070  0.62324  0.71004  Biso   1.000  C
  C1466    1.0000 0.86930  0.37676  0.21004  Biso   1.000  C
  C1467    1.0000 0.36930  0.12324  0.78996  Biso   1.000  C
  C1468    1.0000 0.13070  0.87676  0.28996  Biso   1.000  C
  C1469    1.0000 0.71004  0.63070  0.62324  Biso   1.000  C
  C1470    1.0000 0.21004  0.86930  0.37676  Biso   1.000  C
  C1471    1.0000 0.78996  0.36930  0.12324  Biso   1.000  C
  C1472    1.0000 0.28996  0.13070  0.87676  Biso   1.000  C
  C1473    1.0000 0.62324  0.71004  0.63070  Biso   1.000  C
  C1474    1.0000 0.37676  0.21004  0.86930  Biso   1.000  C
  C1475    1.0000 0.12324  0.78996  0.36930  Biso   1.000  C
  C1476    1.0000 0.87676  0.28996  0.13070  Biso   1.000  C
  C1477    1.0000 0.87324  0.88070  0.96004  Biso   1.000  C
  C1478    1.0000 0.62676  0.11930  0.46004  Biso   1.000  C
  C1479    1.0000 0.37324  0.61930  0.03996  Biso   1.000  C
  C1480    1.0000 0.12676  0.38070  0.53996  Biso   1.000  C
  C1481    1.0000 0.88070  0.96004  0.87324  Biso   1.000  C
  C1482    1.0000 0.11930  0.46004  0.62676  Biso   1.000  C
  C1483    1.0000 0.61930  0.03996  0.37324  Biso   1.000  C
  C1484    1.0000 0.38070  0.53996  0.12676  Biso   1.000  C
  C1485    1.0000 0.96004  0.87324  0.88070  Biso   1.000  C
  C1486    1.0000 0.46004  0.62676  0.11930  Biso   1.000  C
  C1487    1.0000 0.03996  0.37324  0.61930  Biso   1.000  C
  C1488    1.0000 0.53996  0.12676  0.38070  Biso   1.000  C
  H1681    1.0000 0.12740  0.13280  0.18630  Biso   1.000  H
  H1682    1.0000 0.37260  0.86720  0.68630  Biso   1.000  H
  H1683    1.0000 0.87260  0.63280  0.31370  Biso   1.000  H
  H1684    1.0000 0.62740  0.36720  0.81370  Biso   1.000  H
  H1685    1.0000 0.18630  0.12740  0.13280  Biso   1.000  H
  H1686    1.0000 0.68630  0.37260  0.86720  Biso   1.000  H
  H1687    1.0000 0.31370  0.87260  0.63280  Biso   1.000  H
  H1688    1.0000 0.81370  0.62740  0.36720  Biso   1.000  H
  H1689    1.0000 0.13280  0.18630  0.12740  Biso   1.000  H
  H1690    1.0000 0.86720  0.68630  0.37260  Biso   1.000  H
  H1691    1.0000 0.63280  0.31370  0.87260  Biso   1.000  H
  H1692    1.0000 0.36720  0.81370  0.62740  Biso   1.000  H
  H1693    1.0000 0.38280  0.37740  0.43630  Biso   1.000  H
  H1694    1.0000 0.11720  0.62260  0.93630  Biso   1.000  H
  H1695    1.0000 0.88280  0.12260  0.56370  Biso   1.000  H
  H1696    1.0000 0.61720  0.87740  0.06370  Biso   1.000  H
  H1697    1.0000 0.37740  0.43630  0.38280  Biso   1.000  H
  H1698    1.0000 0.62260  0.93630  0.11720  Biso   1.000  H
  H1699    1.0000 0.12260  0.56370  0.88280  Biso   1.000  H
  H1700    1.0000 0.87740  0.06370  0.61720  Biso   1.000  H
  H1701    1.0000 0.43630  0.38280  0.37740  Biso   1.000  H
  H1702    1.0000 0.93630  0.11720  0.62260  Biso   1.000  H
  H1703    1.0000 0.56370  0.88280  0.12260  Biso   1.000  H
  H1704    1.0000 0.06370  0.61720  0.87740  Biso   1.000  H
  H1705    1.0000 0.62740  0.63280  0.68630  Biso   1.000  H
  H1706    1.0000 0.87260  0.36720  0.18630  Biso   1.000  H
  H1707    1.0000 0.37260  0.13280  0.81370  Biso   1.000  H
  H1708    1.0000 0.12740  0.86720  0.31370  Biso   1.000  H
  H1709    1.0000 0.68630  0.62740  0.63280  Biso   1.000  H
  H1710    1.0000 0.18630  0.87260  0.36720  Biso   1.000  H
  H1711    1.0000 0.81370  0.37260  0.13280  Biso   1.000  H
  H1712    1.0000 0.31370  0.12740  0.86720  Biso   1.000  H
  H1713    1.0000 0.63280  0.68630  0.62740  Biso   1.000  H
  H1714    1.0000 0.36720  0.18630  0.87260  Biso   1.000  H
  H1715    1.0000 0.13280  0.81370  0.37260  Biso   1.000  H
  H1716    1.0000 0.86720  0.31370  0.12740  Biso   1.000  H
  H1717    1.0000 0.88280  0.87740  0.93630  Biso   1.000  H
  H1718    1.0000 0.61720  0.12260  0.43630  Biso   1.000  H
  H1719    1.0000 0.38280  0.62260  0.06370  Biso   1.000  H
  H1720    1.0000 0.11720  0.37740  0.56370  Biso   1.000  H
  H1721    1.0000 0.87740  0.93630  0.88280  Biso   1.000  H
  H1722    1.0000 0.12260  0.43630  0.61720  Biso   1.000  H
  H1723    1.0000 0.62260  0.06370  0.38280  Biso   1.000  H
  H1724    1.0000 0.37740  0.56370  0.11720  Biso   1.000  H
  H1725    1.0000 0.93630  0.88280  0.87740  Biso   1.000  H
  H1726    1.0000 0.43630  0.61720  0.12260  Biso   1.000  H
  H1727    1.0000 0.06370  0.38280  0.62260  Biso   1.000  H
  H1728    1.0000 0.56370  0.11720  0.37740  Biso   1.000  H
  C1489    1.0000 0.36410  0.11652  0.28670  Biso   1.000  C
  C1490    1.0000 0.13590  0.88348  0.78670  Biso   1.000  C
  C1491    1.0000 0.63590  0.61652  0.21330  Biso   1.000  C
  C1492    1.0000 0.86410  0.38348  0.71330  Biso   1.000  C
  C1493    1.0000 0.28670  0.36410  0.11652  Biso   1.000  C
  C1494    1.0000 0.78670  0.13590  0.88348  Biso   1.000  C
  C1495    1.0000 0.21330  0.63590  0.61652  Biso   1.000  C
  C1496    1.0000 0.71330  0.86410  0.38348  Biso   1.000  C
  C1497    1.0000 0.11652  0.28670  0.36410  Biso   1.000  C
  C1498    1.0000 0.88348  0.78670  0.13590  Biso   1.000  C
  C1499    1.0000 0.61652  0.21330  0.63590  Biso   1.000  C
  C1500    1.0000 0.38348  0.71330  0.86410  Biso   1.000  C
  C1501    1.0000 0.36652  0.61410  0.53670  Biso   1.000  C
  C1502    1.0000 0.13348  0.38590  0.03670  Biso   1.000  C
  C1503    1.0000 0.86652  0.88590  0.46330  Biso   1.000  C
  C1504    1.0000 0.63348  0.11410  0.96330  Biso   1.000  C
  C1505    1.0000 0.61410  0.53670  0.36652  Biso   1.000  C
  C1506    1.0000 0.38590  0.03670  0.13348  Biso   1.000  C
  C1507    1.0000 0.88590  0.46330  0.86652  Biso   1.000  C
  C1508    1.0000 0.11410  0.96330  0.63348  Biso   1.000  C
  C1509    1.0000 0.53670  0.36652  0.61410  Biso   1.000  C
  C1510    1.0000 0.03670  0.13348  0.38590  Biso   1.000  C
  C1511    1.0000 0.46330  0.86652  0.88590  Biso   1.000  C
  C1512    1.0000 0.96330  0.63348  0.11410  Biso   1.000  C
  C1513    1.0000 0.86410  0.61652  0.78670  Biso   1.000  C
  C1514    1.0000 0.63590  0.38348  0.28670  Biso   1.000  C
  C1515    1.0000 0.13590  0.11652  0.71330  Biso   1.000  C
  C1516    1.0000 0.36410  0.88348  0.21330  Biso   1.000  C
  C1517    1.0000 0.78670  0.86410  0.61652  Biso   1.000  C
  C1518    1.0000 0.28670  0.63590  0.38348  Biso   1.000  C
  C1519    1.0000 0.71330  0.13590  0.11652  Biso   1.000  C
  C1520    1.0000 0.21330  0.36410  0.88348  Biso   1.000  C
  C1521    1.0000 0.61652  0.78670  0.86410  Biso   1.000  C
  C1522    1.0000 0.38348  0.28670  0.63590  Biso   1.000  C
  C1523    1.0000 0.11652  0.71330  0.13590  Biso   1.000  C
  C1524    1.0000 0.88348  0.21330  0.36410  Biso   1.000  C
  C1525    1.0000 0.86652  0.11410  0.03670  Biso   1.000  C
  C1526    1.0000 0.63348  0.88590  0.53670  Biso   1.000  C
  C1527    1.0000 0.36652  0.38590  0.96330  Biso   1.000  C
  C1528    1.0000 0.13348  0.61410  0.46330  Biso   1.000  C
  C1529    1.0000 0.11410  0.03670  0.86652  Biso   1.000  C
  C1530    1.0000 0.88590  0.53670  0.63348  Biso   1.000  C
  C1531    1.0000 0.38590  0.96330  0.36652  Biso   1.000  C
  C1532    1.0000 0.61410  0.46330  0.13348  Biso   1.000  C
  C1533    1.0000 0.03670  0.86652  0.11410  Biso   1.000  C
  C1534    1.0000 0.53670  0.63348  0.88590  Biso   1.000  C
  C1535    1.0000 0.96330  0.36652  0.38590  Biso   1.000  C
  C1536    1.0000 0.46330  0.13348  0.61410  Biso   1.000  C
  H1729    1.0000 0.36160  0.10570  0.30970  Biso   1.000  H
  H1730    1.0000 0.13840  0.89430  0.80970  Biso   1.000  H
  H1731    1.0000 0.63840  0.60570  0.19030  Biso   1.000  H
  H1732    1.0000 0.86160  0.39430  0.69030  Biso   1.000  H
  H1733    1.0000 0.30970  0.36160  0.10570  Biso   1.000  H
  H1734    1.0000 0.80970  0.13840  0.89430  Biso   1.000  H
  H1735    1.0000 0.19030  0.63840  0.60570  Biso   1.000  H
  H1736    1.0000 0.69030  0.86160  0.39430  Biso   1.000  H
  H1737    1.0000 0.10570  0.30970  0.36160  Biso   1.000  H
  H1738    1.0000 0.89430  0.80970  0.13840  Biso   1.000  H
  H1739    1.0000 0.60570  0.19030  0.63840  Biso   1.000  H
  H1740    1.0000 0.39430  0.69030  0.86160  Biso   1.000  H
  H1741    1.0000 0.35570  0.61160  0.55970  Biso   1.000  H
  H1742    1.0000 0.14430  0.38840  0.05970  Biso   1.000  H
  H1743    1.0000 0.85570  0.88840  0.44030  Biso   1.000  H
  H1744    1.0000 0.64430  0.11160  0.94030  Biso   1.000  H
  H1745    1.0000 0.61160  0.55970  0.35570  Biso   1.000  H
  H1746    1.0000 0.38840  0.05970  0.14430  Biso   1.000  H
  H1747    1.0000 0.88840  0.44030  0.85570  Biso   1.000  H
  H1748    1.0000 0.11160  0.94030  0.64430  Biso   1.000  H
  H1749    1.0000 0.55970  0.35570  0.61160  Biso   1.000  H
  H1750    1.0000 0.05970  0.14430  0.38840  Biso   1.000  H
  H1751    1.0000 0.44030  0.85570  0.88840  Biso   1.000  H
  H1752    1.0000 0.94030  0.64430  0.11160  Biso   1.000  H
  H1753    1.0000 0.86160  0.60570  0.80970  Biso   1.000  H
  H1754    1.0000 0.63840  0.39430  0.30970  Biso   1.000  H
  H1755    1.0000 0.13840  0.10570  0.69030  Biso   1.000  H
  H1756    1.0000 0.36160  0.89430  0.19030  Biso   1.000  H
  H1757    1.0000 0.80970  0.86160  0.60570  Biso   1.000  H
  H1758    1.0000 0.30970  0.63840  0.39430  Biso   1.000  H
  H1759    1.0000 0.69030  0.13840  0.10570  Biso   1.000  H
  H1760    1.0000 0.19030  0.36160  0.89430  Biso   1.000  H
  H1761    1.0000 0.60570  0.80970  0.86160  Biso   1.000  H
  H1762    1.0000 0.39430  0.30970  0.63840  Biso   1.000  H
  H1763    1.0000 0.10570  0.69030  0.13840  Biso   1.000  H
  H1764    1.0000 0.89430  0.19030  0.36160  Biso   1.000  H
  H1765    1.0000 0.85570  0.11160  0.05970  Biso   1.000  H
  H1766    1.0000 0.64430  0.88840  0.55970  Biso   1.000  H
  H1767    1.0000 0.35570  0.38840  0.94030  Biso   1.000  H
  H1768    1.0000 0.14430  0.61160  0.44030  Biso   1.000  H
  H1769    1.0000 0.11160  0.05970  0.85570  Biso   1.000  H
  H1770    1.0000 0.88840  0.55970  0.64430  Biso   1.000  H
  H1771    1.0000 0.38840  0.94030  0.35570  Biso   1.000  H
  H1772    1.0000 0.61160  0.44030  0.14430  Biso   1.000  H
  H1773    1.0000 0.05970  0.85570  0.11160  Biso   1.000  H
  H1774    1.0000 0.55970  0.64430  0.88840  Biso   1.000  H
  H1775    1.0000 0.94030  0.35570  0.38840  Biso   1.000  H
  H1776    1.0000 0.44030  0.14430  0.61160  Biso   1.000  H
  H1777    1.0000 0.38230  0.13430  0.28820  Biso   1.000  H
  H1778    1.0000 0.11770  0.86570  0.78820  Biso   1.000  H
  H1779    1.0000 0.61770  0.63430  0.21180  Biso   1.000  H
  H1780    1.0000 0.88230  0.36570  0.71180  Biso   1.000  H
  H1781    1.0000 0.28820  0.38230  0.13430  Biso   1.000  H
  H1782    1.0000 0.78820  0.11770  0.86570  Biso   1.000  H
  H1783    1.0000 0.21180  0.61770  0.63430  Biso   1.000  H
  H1784    1.0000 0.71180  0.88230  0.36570  Biso   1.000  H
  H1785    1.0000 0.13430  0.28820  0.38230  Biso   1.000  H
  H1786    1.0000 0.86570  0.78820  0.11770  Biso   1.000  H
  H1787    1.0000 0.63430  0.21180  0.61770  Biso   1.000  H
  H1788    1.0000 0.36570  0.71180  0.88230  Biso   1.000  H
  H1789    1.0000 0.38430  0.63230  0.53820  Biso   1.000  H
  H1790    1.0000 0.11570  0.36770  0.03820  Biso   1.000  H
  H1791    1.0000 0.88430  0.86770  0.46180  Biso   1.000  H
  H1792    1.0000 0.61570  0.13230  0.96180  Biso   1.000  H
  H1793    1.0000 0.63230  0.53820  0.38430  Biso   1.000  H
  H1794    1.0000 0.36770  0.03820  0.11570  Biso   1.000  H
  H1795    1.0000 0.86770  0.46180  0.88430  Biso   1.000  H
  H1796    1.0000 0.13230  0.96180  0.61570  Biso   1.000  H
  H1797    1.0000 0.53820  0.38430  0.63230  Biso   1.000  H
  H1798    1.0000 0.03820  0.11570  0.36770  Biso   1.000  H
  H1799    1.0000 0.46180  0.88430  0.86770  Biso   1.000  H
  H1800    1.0000 0.96180  0.61570  0.13230  Biso   1.000  H
  H1801    1.0000 0.88230  0.63430  0.78820  Biso   1.000  H
  H1802    1.0000 0.61770  0.36570  0.28820  Biso   1.000  H
  H1803    1.0000 0.11770  0.13430  0.71180  Biso   1.000  H
  H1804    1.0000 0.38230  0.86570  0.21180  Biso   1.000  H
  H1805    1.0000 0.78820  0.88230  0.63430  Biso   1.000  H
  H1806    1.0000 0.28820  0.61770  0.36570  Biso   1.000  H
  H1807    1.0000 0.71180  0.11770  0.13430  Biso   1.000  H
  H1808    1.0000 0.21180  0.38230  0.86570  Biso   1.000  H
  H1809    1.0000 0.63430  0.78820  0.88230  Biso   1.000  H
  H1810    1.0000 0.36570  0.28820  0.61770  Biso   1.000  H
  H1811    1.0000 0.13430  0.71180  0.11770  Biso   1.000  H
  H1812    1.0000 0.86570  0.21180  0.38230  Biso   1.000  H
  H1813    1.0000 0.88430  0.13230  0.03820  Biso   1.000  H
  H1814    1.0000 0.61570  0.86770  0.53820  Biso   1.000  H
  H1815    1.0000 0.38430  0.36770  0.96180  Biso   1.000  H
  H1816    1.0000 0.11570  0.63230  0.46180  Biso   1.000  H
  H1817    1.0000 0.13230  0.03820  0.88430  Biso   1.000  H
  H1818    1.0000 0.86770  0.53820  0.61570  Biso   1.000  H
  H1819    1.0000 0.36770  0.96180  0.38430  Biso   1.000  H
  H1820    1.0000 0.63230  0.46180  0.11570  Biso   1.000  H
  H1821    1.0000 0.03820  0.88430  0.13230  Biso   1.000  H
  H1822    1.0000 0.53820  0.61570  0.86770  Biso   1.000  H
  H1823    1.0000 0.96180  0.38430  0.36770  Biso   1.000  H
  H1824    1.0000 0.46180  0.11570  0.63230  Biso   1.000  H
  C1537    1.0000 0.12374  0.87595  0.95014  Biso   1.000  C
  C1538    1.0000 0.37626  0.12405  0.45014  Biso   1.000  C
  C1539    1.0000 0.87626  0.37595  0.54986  Biso   1.000  C
  C1540    1.0000 0.62374  0.62405  0.04986  Biso   1.000  C
  C1541    1.0000 0.95014  0.12374  0.87595  Biso   1.000  C
  C1542    1.0000 0.45014  0.37626  0.12405  Biso   1.000  C
  C1543    1.0000 0.54986  0.87626  0.37595  Biso   1.000  C
  C1544    1.0000 0.04986  0.62374  0.62405  Biso   1.000  C
  C1545    1.0000 0.87595  0.95014  0.12374  Biso   1.000  C
  C1546    1.0000 0.12405  0.45014  0.37626  Biso   1.000  C
  C1547    1.0000 0.37595  0.54986  0.87626  Biso   1.000  C
  C1548    1.0000 0.62405  0.04986  0.62374  Biso   1.000  C
  C1549    1.0000 0.12595  0.37374  0.20014  Biso   1.000  C
  C1550    1.0000 0.37405  0.62626  0.70014  Biso   1.000  C
  C1551    1.0000 0.62595  0.12626  0.79986  Biso   1.000  C
  C1552    1.0000 0.87405  0.87374  0.29986  Biso   1.000  C
  C1553    1.0000 0.37374  0.20014  0.12595  Biso   1.000  C
  C1554    1.0000 0.62626  0.70014  0.37405  Biso   1.000  C
  C1555    1.0000 0.12626  0.79986  0.62595  Biso   1.000  C
  C1556    1.0000 0.87374  0.29986  0.87405  Biso   1.000  C
  C1557    1.0000 0.20014  0.12595  0.37374  Biso   1.000  C
  C1558    1.0000 0.70014  0.37405  0.62626  Biso   1.000  C
  C1559    1.0000 0.79986  0.62595  0.12626  Biso   1.000  C
  C1560    1.0000 0.29986  0.87405  0.87374  Biso   1.000  C
  C1561    1.0000 0.62374  0.37595  0.45014  Biso   1.000  C
  C1562    1.0000 0.87626  0.62405  0.95014  Biso   1.000  C
  C1563    1.0000 0.37626  0.87595  0.04986  Biso   1.000  C
  C1564    1.0000 0.12374  0.12405  0.54986  Biso   1.000  C
  C1565    1.0000 0.45014  0.62374  0.37595  Biso   1.000  C
  C1566    1.0000 0.95014  0.87626  0.62405  Biso   1.000  C
  C1567    1.0000 0.04986  0.37626  0.87595  Biso   1.000  C
  C1568    1.0000 0.54986  0.12374  0.12405  Biso   1.000  C
  C1569    1.0000 0.37595  0.45014  0.62374  Biso   1.000  C
  C1570    1.0000 0.62405  0.95014  0.87626  Biso   1.000  C
  C1571    1.0000 0.87595  0.04986  0.37626  Biso   1.000  C
  C1572    1.0000 0.12405  0.54986  0.12374  Biso   1.000  C
  C1573    1.0000 0.62595  0.87374  0.70014  Biso   1.000  C
  C1574    1.0000 0.87405  0.12626  0.20014  Biso   1.000  C
  C1575    1.0000 0.12595  0.62626  0.29986  Biso   1.000  C
  C1576    1.0000 0.37405  0.37374  0.79986  Biso   1.000  C
  C1577    1.0000 0.87374  0.70014  0.62595  Biso   1.000  C
  C1578    1.0000 0.12626  0.20014  0.87405  Biso   1.000  C
  C1579    1.0000 0.62626  0.29986  0.12595  Biso   1.000  C
  C1580    1.0000 0.37374  0.79986  0.37405  Biso   1.000  C
  C1581    1.0000 0.70014  0.62595  0.87374  Biso   1.000  C
  C1582    1.0000 0.20014  0.87405  0.12626  Biso   1.000  C
  C1583    1.0000 0.29986  0.12595  0.62626  Biso   1.000  C
  C1584    1.0000 0.79986  0.37405  0.37374  Biso   1.000  C
  H1825    1.0000 0.13560  0.87870  0.92780  Biso   1.000  H
  H1826    1.0000 0.36440  0.12130  0.42780  Biso   1.000  H
  H1827    1.0000 0.86440  0.37870  0.57220  Biso   1.000  H
  H1828    1.0000 0.63560  0.62130  0.07220  Biso   1.000  H
  H1829    1.0000 0.92780  0.13560  0.87870  Biso   1.000  H
  H1830    1.0000 0.42780  0.36440  0.12130  Biso   1.000  H
  H1831    1.0000 0.57220  0.86440  0.37870  Biso   1.000  H
  H1832    1.0000 0.07220  0.63560  0.62130  Biso   1.000  H
  H1833    1.0000 0.87870  0.92780  0.13560  Biso   1.000  H
  H1834    1.0000 0.12130  0.42780  0.36440  Biso   1.000  H
  H1835    1.0000 0.37870  0.57220  0.86440  Biso   1.000  H
  H1836    1.0000 0.62130  0.07220  0.63560  Biso   1.000  H
  H1837    1.0000 0.12870  0.38560  0.17780  Biso   1.000  H
  H1838    1.0000 0.37130  0.61440  0.67780  Biso   1.000  H
  H1839    1.0000 0.62870  0.11440  0.82220  Biso   1.000  H
  H1840    1.0000 0.87130  0.88560  0.32220  Biso   1.000  H
  H1841    1.0000 0.38560  0.17780  0.12870  Biso   1.000  H
  H1842    1.0000 0.61440  0.67780  0.37130  Biso   1.000  H
  H1843    1.0000 0.11440  0.82220  0.62870  Biso   1.000  H
  H1844    1.0000 0.88560  0.32220  0.87130  Biso   1.000  H
  H1845    1.0000 0.17780  0.12870  0.38560  Biso   1.000  H
  H1846    1.0000 0.67780  0.37130  0.61440  Biso   1.000  H
  H1847    1.0000 0.82220  0.62870  0.11440  Biso   1.000  H
  H1848    1.0000 0.32220  0.87130  0.88560  Biso   1.000  H
  H1849    1.0000 0.63560  0.37870  0.42780  Biso   1.000  H
  H1850    1.0000 0.86440  0.62130  0.92780  Biso   1.000  H
  H1851    1.0000 0.36440  0.87870  0.07220  Biso   1.000  H
  H1852    1.0000 0.13560  0.12130  0.57220  Biso   1.000  H
  H1853    1.0000 0.42780  0.63560  0.37870  Biso   1.000  H
  H1854    1.0000 0.92780  0.86440  0.62130  Biso   1.000  H
  H1855    1.0000 0.07220  0.36440  0.87870  Biso   1.000  H
  H1856    1.0000 0.57220  0.13560  0.12130  Biso   1.000  H
  H1857    1.0000 0.37870  0.42780  0.63560  Biso   1.000  H
  H1858    1.0000 0.62130  0.92780  0.86440  Biso   1.000  H
  H1859    1.0000 0.87870  0.07220  0.36440  Biso   1.000  H
  H1860    1.0000 0.12130  0.57220  0.13560  Biso   1.000  H
  H1861    1.0000 0.62870  0.88560  0.67780  Biso   1.000  H
  H1862    1.0000 0.87130  0.11440  0.17780  Biso   1.000  H
  H1863    1.0000 0.12870  0.61440  0.32220  Biso   1.000  H
  H1864    1.0000 0.37130  0.38560  0.82220  Biso   1.000  H
  H1865    1.0000 0.88560  0.67780  0.62870  Biso   1.000  H
  H1866    1.0000 0.11440  0.17780  0.87130  Biso   1.000  H
  H1867    1.0000 0.61440  0.32220  0.12870  Biso   1.000  H
  H1868    1.0000 0.38560  0.82220  0.37130  Biso   1.000  H
  H1869    1.0000 0.67780  0.62870  0.88560  Biso   1.000  H
  H1870    1.0000 0.17780  0.87130  0.11440  Biso   1.000  H
  H1871    1.0000 0.32220  0.12870  0.61440  Biso   1.000  H
  H1872    1.0000 0.82220  0.37130  0.38560  Biso   1.000  H
  H1873    1.0000 0.10380  0.86050  0.94670  Biso   1.000  H
  H1874    1.0000 0.39620  0.13950  0.44670  Biso   1.000  H
  H1875    1.0000 0.89620  0.36050  0.55330  Biso   1.000  H
  H1876    1.0000 0.60380  0.63950  0.05330  Biso   1.000  H
  H1877    1.0000 0.94670  0.10380  0.86050  Biso   1.000  H
  H1878    1.0000 0.44670  0.39620  0.13950  Biso   1.000  H
  H1879    1.0000 0.55330  0.89620  0.36050  Biso   1.000  H
  H1880    1.0000 0.05330  0.60380  0.63950  Biso   1.000  H
  H1881    1.0000 0.86050  0.94670  0.10380  Biso   1.000  H
  H1882    1.0000 0.13950  0.44670  0.39620  Biso   1.000  H
  H1883    1.0000 0.36050  0.55330  0.89620  Biso   1.000  H
  H1884    1.0000 0.63950  0.05330  0.60380  Biso   1.000  H
  H1885    1.0000 0.11050  0.35380  0.19670  Biso   1.000  H
  H1886    1.0000 0.38950  0.64620  0.69670  Biso   1.000  H
  H1887    1.0000 0.61050  0.14620  0.80330  Biso   1.000  H
  H1888    1.0000 0.88950  0.85380  0.30330  Biso   1.000  H
  H1889    1.0000 0.35380  0.19670  0.11050  Biso   1.000  H
  H1890    1.0000 0.64620  0.69670  0.38950  Biso   1.000  H
  H1891    1.0000 0.14620  0.80330  0.61050  Biso   1.000  H
  H1892    1.0000 0.85380  0.30330  0.88950  Biso   1.000  H
  H1893    1.0000 0.19670  0.11050  0.35380  Biso   1.000  H
  H1894    1.0000 0.69670  0.38950  0.64620  Biso   1.000  H
  H1895    1.0000 0.80330  0.61050  0.14620  Biso   1.000  H
  H1896    1.0000 0.30330  0.88950  0.85380  Biso   1.000  H
  H1897    1.0000 0.60380  0.36050  0.44670  Biso   1.000  H
  H1898    1.0000 0.89620  0.63950  0.94670  Biso   1.000  H
  H1899    1.0000 0.39620  0.86050  0.05330  Biso   1.000  H
  H1900    1.0000 0.10380  0.13950  0.55330  Biso   1.000  H
  H1901    1.0000 0.44670  0.60380  0.36050  Biso   1.000  H
  H1902    1.0000 0.94670  0.89620  0.63950  Biso   1.000  H
  H1903    1.0000 0.05330  0.39620  0.86050  Biso   1.000  H
  H1904    1.0000 0.55330  0.10380  0.13950  Biso   1.000  H
  H1905    1.0000 0.36050  0.44670  0.60380  Biso   1.000  H
  H1906    1.0000 0.63950  0.94670  0.89620  Biso   1.000  H
  H1907    1.0000 0.86050  0.05330  0.39620  Biso   1.000  H
  H1908    1.0000 0.13950  0.55330  0.10380  Biso   1.000  H
  H1909    1.0000 0.61050  0.85380  0.69670  Biso   1.000  H
  H1910    1.0000 0.88950  0.14620  0.19670  Biso   1.000  H
  H1911    1.0000 0.11050  0.64620  0.30330  Biso   1.000  H
  H1912    1.0000 0.38950  0.35380  0.80330  Biso   1.000  H
  H1913    1.0000 0.85380  0.69670  0.61050  Biso   1.000  H
  H1914    1.0000 0.14620  0.19670  0.88950  Biso   1.000  H
  H1915    1.0000 0.64620  0.30330  0.11050  Biso   1.000  H
  H1916    1.0000 0.35380  0.80330  0.38950  Biso   1.000  H
  H1917    1.0000 0.69670  0.61050  0.85380  Biso   1.000  H
  H1918    1.0000 0.19670  0.88950  0.14620  Biso   1.000  H
  H1919    1.0000 0.30330  0.11050  0.64620  Biso   1.000  H
  H1920    1.0000 0.80330  0.38950  0.35380  Biso   1.000  H
  C1585    1.0000 0.37472  0.08853  0.25956  Biso   1.000  C
  C1586    1.0000 0.12528  0.91147  0.75956  Biso   1.000  C
  C1587    1.0000 0.62528  0.58853  0.24044  Biso   1.000  C
  C1588    1.0000 0.87472  0.41147  0.74044  Biso   1.000  C
  C1589    1.0000 0.25956  0.37472  0.08853  Biso   1.000  C
  C1590    1.0000 0.75956  0.12528  0.91147  Biso   1.000  C
  C1591    1.0000 0.24044  0.62528  0.58853  Biso   1.000  C
  C1592    1.0000 0.74044  0.87472  0.41147  Biso   1.000  C
  C1593    1.0000 0.08853  0.25956  0.37472  Biso   1.000  C
  C1594    1.0000 0.91147  0.75956  0.12528  Biso   1.000  C
  C1595    1.0000 0.58853  0.24044  0.62528  Biso   1.000  C
  C1596    1.0000 0.41147  0.74044  0.87472  Biso   1.000  C
  C1597    1.0000 0.33853  0.62472  0.50956  Biso   1.000  C
  C1598    1.0000 0.16147  0.37528  0.00956  Biso   1.000  C
  C1599    1.0000 0.83853  0.87528  0.49044  Biso   1.000  C
  C1600    1.0000 0.66147  0.12472  0.99044  Biso   1.000  C
  C1601    1.0000 0.62472  0.50956  0.33853  Biso   1.000  C
  C1602    1.0000 0.37528  0.00956  0.16147  Biso   1.000  C
  C1603    1.0000 0.87528  0.49044  0.83853  Biso   1.000  C
  C1604    1.0000 0.12472  0.99044  0.66147  Biso   1.000  C
  C1605    1.0000 0.50956  0.33853  0.62472  Biso   1.000  C
  C1606    1.0000 0.00956  0.16147  0.37528  Biso   1.000  C
  C1607    1.0000 0.49044  0.83853  0.87528  Biso   1.000  C
  C1608    1.0000 0.99044  0.66147  0.12472  Biso   1.000  C
  C1609    1.0000 0.87472  0.58853  0.75956  Biso   1.000  C
  C1610    1.0000 0.62528  0.41147  0.25956  Biso   1.000  C
  C1611    1.0000 0.12528  0.08853  0.74044  Biso   1.000  C
  C1612    1.0000 0.37472  0.91147  0.24044  Biso   1.000  C
  C1613    1.0000 0.75956  0.87472  0.58853  Biso   1.000  C
  C1614    1.0000 0.25956  0.62528  0.41147  Biso   1.000  C
  C1615    1.0000 0.74044  0.12528  0.08853  Biso   1.000  C
  C1616    1.0000 0.24044  0.37472  0.91147  Biso   1.000  C
  C1617    1.0000 0.58853  0.75956  0.87472  Biso   1.000  C
  C1618    1.0000 0.41147  0.25956  0.62528  Biso   1.000  C
  C1619    1.0000 0.08853  0.74044  0.12528  Biso   1.000  C
  C1620    1.0000 0.91147  0.24044  0.37472  Biso   1.000  C
  C1621    1.0000 0.83853  0.12472  0.00956  Biso   1.000  C
  C1622    1.0000 0.66147  0.87528  0.50956  Biso   1.000  C
  C1623    1.0000 0.33853  0.37528  0.99044  Biso   1.000  C
  C1624    1.0000 0.16147  0.62472  0.49044  Biso   1.000  C
  C1625    1.0000 0.12472  0.00956  0.83853  Biso   1.000  C
  C1626    1.0000 0.87528  0.50956  0.66147  Biso   1.000  C
  C1627    1.0000 0.37528  0.99044  0.33853  Biso   1.000  C
  C1628    1.0000 0.62472  0.49044  0.16147  Biso   1.000  C
  C1629    1.0000 0.00956  0.83853  0.12472  Biso   1.000  C
  C1630    1.0000 0.50956  0.66147  0.87528  Biso   1.000  C
  C1631    1.0000 0.99044  0.33853  0.37528  Biso   1.000  C
  C1632    1.0000 0.49044  0.16147  0.62472  Biso   1.000  C
  H1921    1.0000 0.39730  0.07800  0.26620  Biso   1.000  H
  H1922    1.0000 0.10270  0.92200  0.76620  Biso   1.000  H
  H1923    1.0000 0.60270  0.57800  0.23380  Biso   1.000  H
  H1924    1.0000 0.89730  0.42200  0.73380  Biso   1.000  H
  H1925    1.0000 0.26620  0.39730  0.07800  Biso   1.000  H
  H1926    1.0000 0.76620  0.10270  0.92200  Biso   1.000  H
  H1927    1.0000 0.23380  0.60270  0.57800  Biso   1.000  H
  H1928    1.0000 0.73380  0.89730  0.42200  Biso   1.000  H
  H1929    1.0000 0.07800  0.26620  0.39730  Biso   1.000  H
  H1930    1.0000 0.92200  0.76620  0.10270  Biso   1.000  H
  H1931    1.0000 0.57800  0.23380  0.60270  Biso   1.000  H
  H1932    1.0000 0.42200  0.73380  0.89730  Biso   1.000  H
  H1933    1.0000 0.32800  0.64730  0.51620  Biso   1.000  H
  H1934    1.0000 0.17200  0.35270  0.01620  Biso   1.000  H
  H1935    1.0000 0.82800  0.85270  0.48380  Biso   1.000  H
  H1936    1.0000 0.67200  0.14730  0.98380  Biso   1.000  H
  H1937    1.0000 0.64730  0.51620  0.32800  Biso   1.000  H
  H1938    1.0000 0.35270  0.01620  0.17200  Biso   1.000  H
  H1939    1.0000 0.85270  0.48380  0.82800  Biso   1.000  H
  H1940    1.0000 0.14730  0.98380  0.67200  Biso   1.000  H
  H1941    1.0000 0.51620  0.32800  0.64730  Biso   1.000  H
  H1942    1.0000 0.01620  0.17200  0.35270  Biso   1.000  H
  H1943    1.0000 0.48380  0.82800  0.85270  Biso   1.000  H
  H1944    1.0000 0.98380  0.67200  0.14730  Biso   1.000  H
  H1945    1.0000 0.89730  0.57800  0.76620  Biso   1.000  H
  H1946    1.0000 0.60270  0.42200  0.26620  Biso   1.000  H
  H1947    1.0000 0.10270  0.07800  0.73380  Biso   1.000  H
  H1948    1.0000 0.39730  0.92200  0.23380  Biso   1.000  H
  H1949    1.0000 0.76620  0.89730  0.57800  Biso   1.000  H
  H1950    1.0000 0.26620  0.60270  0.42200  Biso   1.000  H
  H1951    1.0000 0.73380  0.10270  0.07800  Biso   1.000  H
  H1952    1.0000 0.23380  0.39730  0.92200  Biso   1.000  H
  H1953    1.0000 0.57800  0.76620  0.89730  Biso   1.000  H
  H1954    1.0000 0.42200  0.26620  0.60270  Biso   1.000  H
  H1955    1.0000 0.07800  0.73380  0.10270  Biso   1.000  H
  H1956    1.0000 0.92200  0.23380  0.39730  Biso   1.000  H
  H1957    1.0000 0.82800  0.14730  0.01620  Biso   1.000  H
  H1958    1.0000 0.67200  0.85270  0.51620  Biso   1.000  H
  H1959    1.0000 0.32800  0.35270  0.98380  Biso   1.000  H
  H1960    1.0000 0.17200  0.64730  0.48380  Biso   1.000  H
  H1961    1.0000 0.14730  0.01620  0.82800  Biso   1.000  H
  H1962    1.0000 0.85270  0.51620  0.67200  Biso   1.000  H
  H1963    1.0000 0.35270  0.98380  0.32800  Biso   1.000  H
  H1964    1.0000 0.64730  0.48380  0.17200  Biso   1.000  H
  H1965    1.0000 0.01620  0.82800  0.14730  Biso   1.000  H
  H1966    1.0000 0.51620  0.67200  0.85270  Biso   1.000  H
  H1967    1.0000 0.98380  0.32800  0.35270  Biso   1.000  H
  H1968    1.0000 0.48380  0.17200  0.64730  Biso   1.000  H
  C1633    1.0000 0.14285  0.93612  0.96772  Biso   1.000  C
  C1634    1.0000 0.35715  0.06388  0.46772  Biso   1.000  C
  C1635    1.0000 0.85715  0.43612  0.53228  Biso   1.000  C
  C1636    1.0000 0.64285  0.56388  0.03228  Biso   1.000  C
  C1637    1.0000 0.96772  0.14285  0.93612  Biso   1.000  C
  C1638    1.0000 0.46772  0.35715  0.06388  Biso   1.000  C
  C1639    1.0000 0.53228  0.85715  0.43612  Biso   1.000  C
  C1640    1.0000 0.03228  0.64285  0.56388  Biso   1.000  C
  C1641    1.0000 0.93612  0.96772  0.14285  Biso   1.000  C
  C1642    1.0000 0.06388  0.46772  0.35715  Biso   1.000  C
  C1643    1.0000 0.43612  0.53228  0.85715  Biso   1.000  C
  C1644    1.0000 0.56388  0.03228  0.64285  Biso   1.000  C
  C1645    1.0000 0.18612  0.39285  0.21772  Biso   1.000  C
  C1646    1.0000 0.31388  0.60715  0.71772  Biso   1.000  C
  C1647    1.0000 0.68612  0.10715  0.78228  Biso   1.000  C
  C1648    1.0000 0.81388  0.89285  0.28228  Biso   1.000  C
  C1649    1.0000 0.39285  0.21772  0.18612  Biso   1.000  C
  C1650    1.0000 0.60715  0.71772  0.31388  Biso   1.000  C
  C1651    1.0000 0.10715  0.78228  0.68612  Biso   1.000  C
  C1652    1.0000 0.89285  0.28228  0.81388  Biso   1.000  C
  C1653    1.0000 0.21772  0.18612  0.39285  Biso   1.000  C
  C1654    1.0000 0.71772  0.31388  0.60715  Biso   1.000  C
  C1655    1.0000 0.78228  0.68612  0.10715  Biso   1.000  C
  C1656    1.0000 0.28228  0.81388  0.89285  Biso   1.000  C
  C1657    1.0000 0.64285  0.43612  0.46772  Biso   1.000  C
  C1658    1.0000 0.85715  0.56388  0.96772  Biso   1.000  C
  C1659    1.0000 0.35715  0.93612  0.03228  Biso   1.000  C
  C1660    1.0000 0.14285  0.06388  0.53228  Biso   1.000  C
  C1661    1.0000 0.46772  0.64285  0.43612  Biso   1.000  C
  C1662    1.0000 0.96772  0.85715  0.56388  Biso   1.000  C
  C1663    1.0000 0.03228  0.35715  0.93612  Biso   1.000  C
  C1664    1.0000 0.53228  0.14285  0.06388  Biso   1.000  C
  C1665    1.0000 0.43612  0.46772  0.64285  Biso   1.000  C
  C1666    1.0000 0.56388  0.96772  0.85715  Biso   1.000  C
  C1667    1.0000 0.93612  0.03228  0.35715  Biso   1.000  C
  C1668    1.0000 0.06388  0.53228  0.14285  Biso   1.000  C
  C1669    1.0000 0.68612  0.89285  0.71772  Biso   1.000  C
  C1670    1.0000 0.81388  0.10715  0.21772  Biso   1.000  C
  C1671    1.0000 0.18612  0.60715  0.28228  Biso   1.000  C
  C1672    1.0000 0.31388  0.39285  0.78228  Biso   1.000  C
  C1673    1.0000 0.89285  0.71772  0.68612  Biso   1.000  C
  C1674    1.0000 0.10715  0.21772  0.81388  Biso   1.000  C
  C1675    1.0000 0.60715  0.28228  0.18612  Biso   1.000  C
  C1676    1.0000 0.39285  0.78228  0.31388  Biso   1.000  C
  C1677    1.0000 0.71772  0.68612  0.89285  Biso   1.000  C
  C1678    1.0000 0.21772  0.81388  0.10715  Biso   1.000  C
  C1679    1.0000 0.28228  0.18612  0.60715  Biso   1.000  C
  C1680    1.0000 0.78228  0.31388  0.39285  Biso   1.000  C
  H1969    1.0000 0.13480  0.95900  0.97560  Biso   1.000  H
  H1970    1.0000 0.36520  0.04100  0.47560  Biso   1.000  H
  H1971    1.0000 0.86520  0.45900  0.52440  Biso   1.000  H
  H1972    1.0000 0.63480  0.54100  0.02440  Biso   1.000  H
  H1973    1.0000 0.97560  0.13480  0.95900  Biso   1.000  H
  H1974    1.0000 0.47560  0.36520  0.04100  Biso   1.000  H
  H1975    1.0000 0.52440  0.86520  0.45900  Biso   1.000  H
  H1976    1.0000 0.02440  0.63480  0.54100  Biso   1.000  H
  H1977    1.0000 0.95900  0.97560  0.13480  Biso   1.000  H
  H1978    1.0000 0.04100  0.47560  0.36520  Biso   1.000  H
  H1979    1.0000 0.45900  0.52440  0.86520  Biso   1.000  H
  H1980    1.0000 0.54100  0.02440  0.63480  Biso   1.000  H
  H1981    1.0000 0.20900  0.38480  0.22560  Biso   1.000  H
  H1982    1.0000 0.29100  0.61520  0.72560  Biso   1.000  H
  H1983    1.0000 0.70900  0.11520  0.77440  Biso   1.000  H
  H1984    1.0000 0.79100  0.88480  0.27440  Biso   1.000  H
  H1985    1.0000 0.38480  0.22560  0.20900  Biso   1.000  H
  H1986    1.0000 0.61520  0.72560  0.29100  Biso   1.000  H
  H1987    1.0000 0.11520  0.77440  0.70900  Biso   1.000  H
  H1988    1.0000 0.88480  0.27440  0.79100  Biso   1.000  H
  H1989    1.0000 0.22560  0.20900  0.38480  Biso   1.000  H
  H1990    1.0000 0.72560  0.29100  0.61520  Biso   1.000  H
  H1991    1.0000 0.77440  0.70900  0.11520  Biso   1.000  H
  H1992    1.0000 0.27440  0.79100  0.88480  Biso   1.000  H
  H1993    1.0000 0.63480  0.45900  0.47560  Biso   1.000  H
  H1994    1.0000 0.86520  0.54100  0.97560  Biso   1.000  H
  H1995    1.0000 0.36520  0.95900  0.02440  Biso   1.000  H
  H1996    1.0000 0.13480  0.04100  0.52440  Biso   1.000  H
  H1997    1.0000 0.47560  0.63480  0.45900  Biso   1.000  H
  H1998    1.0000 0.97560  0.86520  0.54100  Biso   1.000  H
  H1999    1.0000 0.02440  0.36520  0.95900  Biso   1.000  H
  H2000    1.0000 0.52440  0.13480  0.04100  Biso   1.000  H
  H2001    1.0000 0.45900  0.47560  0.63480  Biso   1.000  H
  H2002    1.0000 0.54100  0.97560  0.86520  Biso   1.000  H
  H2003    1.0000 0.95900  0.02440  0.36520  Biso   1.000  H
  H2004    1.0000 0.04100  0.52440  0.13480  Biso   1.000  H
  H2005    1.0000 0.70900  0.88480  0.72560  Biso   1.000  H
  H2006    1.0000 0.79100  0.11520  0.22560  Biso   1.000  H
  H2007    1.0000 0.20900  0.61520  0.27440  Biso   1.000  H
  H2008    1.0000 0.29100  0.38480  0.77440  Biso   1.000  H
  H2009    1.0000 0.88480  0.72560  0.70900  Biso   1.000  H
  H2010    1.0000 0.11520  0.22560  0.79100  Biso   1.000  H
  H2011    1.0000 0.61520  0.27440  0.20900  Biso   1.000  H
  H2012    1.0000 0.38480  0.77440  0.29100  Biso   1.000  H
  H2013    1.0000 0.72560  0.70900  0.88480  Biso   1.000  H
  H2014    1.0000 0.22560  0.79100  0.11520  Biso   1.000  H
  H2015    1.0000 0.27440  0.20900  0.61520  Biso   1.000  H
  H2016    1.0000 0.77440  0.29100  0.38480  Biso   1.000  H
  H2017    1.0000 0.15480  0.93920  0.94540  Biso   1.000  H
  H2018    1.0000 0.34520  0.06080  0.44540  Biso   1.000  H
  H2019    1.0000 0.84520  0.43920  0.55460  Biso   1.000  H
  H2020    1.0000 0.65480  0.56080  0.05460  Biso   1.000  H
  H2021    1.0000 0.94540  0.15480  0.93920  Biso   1.000  H
  H2022    1.0000 0.44540  0.34520  0.06080  Biso   1.000  H
  H2023    1.0000 0.55460  0.84520  0.43920  Biso   1.000  H
  H2024    1.0000 0.05460  0.65480  0.56080  Biso   1.000  H
  H2025    1.0000 0.93920  0.94540  0.15480  Biso   1.000  H
  H2026    1.0000 0.06080  0.44540  0.34520  Biso   1.000  H
  H2027    1.0000 0.43920  0.55460  0.84520  Biso   1.000  H
  H2028    1.0000 0.56080  0.05460  0.65480  Biso   1.000  H
  H2029    1.0000 0.18920  0.40480  0.19540  Biso   1.000  H
  H2030    1.0000 0.31080  0.59520  0.69540  Biso   1.000  H
  H2031    1.0000 0.68920  0.09520  0.80460  Biso   1.000  H
  H2032    1.0000 0.81080  0.90480  0.30460  Biso   1.000  H
  H2033    1.0000 0.40480  0.19540  0.18920  Biso   1.000  H
  H2034    1.0000 0.59520  0.69540  0.31080  Biso   1.000  H
  H2035    1.0000 0.09520  0.80460  0.68920  Biso   1.000  H
  H2036    1.0000 0.90480  0.30460  0.81080  Biso   1.000  H
  H2037    1.0000 0.19540  0.18920  0.40480  Biso   1.000  H
  H2038    1.0000 0.69540  0.31080  0.59520  Biso   1.000  H
  H2039    1.0000 0.80460  0.68920  0.09520  Biso   1.000  H
  H2040    1.0000 0.30460  0.81080  0.90480  Biso   1.000  H
  H2041    1.0000 0.65480  0.43920  0.44540  Biso   1.000  H
  H2042    1.0000 0.84520  0.56080  0.94540  Biso   1.000  H
  H2043    1.0000 0.34520  0.93920  0.05460  Biso   1.000  H
  H2044    1.0000 0.15480  0.06080  0.55460  Biso   1.000  H
  H2045    1.0000 0.44540  0.65480  0.43920  Biso   1.000  H
  H2046    1.0000 0.94540  0.84520  0.56080  Biso   1.000  H
  H2047    1.0000 0.05460  0.34520  0.93920  Biso   1.000  H
  H2048    1.0000 0.55460  0.15480  0.06080  Biso   1.000  H
  H2049    1.0000 0.43920  0.44540  0.65480  Biso   1.000  H
  H2050    1.0000 0.56080  0.94540  0.84520  Biso   1.000  H
  H2051    1.0000 0.93920  0.05460  0.34520  Biso   1.000  H
  H2052    1.0000 0.06080  0.55460  0.15480  Biso   1.000  H
  H2053    1.0000 0.68920  0.90480  0.69540  Biso   1.000  H
  H2054    1.0000 0.81080  0.09520  0.19540  Biso   1.000  H
  H2055    1.0000 0.18920  0.59520  0.30460  Biso   1.000  H
  H2056    1.0000 0.31080  0.40480  0.80460  Biso   1.000  H
  H2057    1.0000 0.90480  0.69540  0.68920  Biso   1.000  H
  H2058    1.0000 0.09520  0.19540  0.81080  Biso   1.000  H
  H2059    1.0000 0.59520  0.30460  0.18920  Biso   1.000  H
  H2060    1.0000 0.40480  0.80460  0.31080  Biso   1.000  H
  H2061    1.0000 0.69540  0.68920  0.90480  Biso   1.000  H
  H2062    1.0000 0.19540  0.81080  0.09520  Biso   1.000  H
  H2063    1.0000 0.30460  0.18920  0.59520  Biso   1.000  H
  H2064    1.0000 0.80460  0.31080  0.40480  Biso   1.000  H
  C1681    1.0000 0.21471  0.98618  0.10529  Biso   1.000  C
  C1682    1.0000 0.28529  0.01382  0.60529  Biso   1.000  C
  C1683    1.0000 0.78529  0.48618  0.39471  Biso   1.000  C
  C1684    1.0000 0.71471  0.51382  0.89471  Biso   1.000  C
  C1685    1.0000 0.10529  0.21471  0.98618  Biso   1.000  C
  C1686    1.0000 0.60529  0.28529  0.01382  Biso   1.000  C
  C1687    1.0000 0.39471  0.78529  0.48618  Biso   1.000  C
  C1688    1.0000 0.89471  0.71471  0.51382  Biso   1.000  C
  C1689    1.0000 0.98618  0.10529  0.21471  Biso   1.000  C
  C1690    1.0000 0.01382  0.60529  0.28529  Biso   1.000  C
  C1691    1.0000 0.48618  0.39471  0.78529  Biso   1.000  C
  C1692    1.0000 0.51382  0.89471  0.71471  Biso   1.000  C
  C1693    1.0000 0.23618  0.46471  0.35529  Biso   1.000  C
  C1694    1.0000 0.26382  0.53529  0.85529  Biso   1.000  C
  C1695    1.0000 0.73618  0.03529  0.64471  Biso   1.000  C
  C1696    1.0000 0.76382  0.96471  0.14471  Biso   1.000  C
  C1697    1.0000 0.46471  0.35529  0.23618  Biso   1.000  C
  C1698    1.0000 0.53529  0.85529  0.26382  Biso   1.000  C
  C1699    1.0000 0.03529  0.64471  0.73618  Biso   1.000  C
  C1700    1.0000 0.96471  0.14471  0.76382  Biso   1.000  C
  C1701    1.0000 0.35529  0.23618  0.46471  Biso   1.000  C
  C1702    1.0000 0.85529  0.26382  0.53529  Biso   1.000  C
  C1703    1.0000 0.64471  0.73618  0.03529  Biso   1.000  C
  C1704    1.0000 0.14471  0.76382  0.96471  Biso   1.000  C
  C1705    1.0000 0.71471  0.48618  0.60529  Biso   1.000  C
  C1706    1.0000 0.78529  0.51382  0.10529  Biso   1.000  C
  C1707    1.0000 0.28529  0.98618  0.89471  Biso   1.000  C
  C1708    1.0000 0.21471  0.01382  0.39471  Biso   1.000  C
  C1709    1.0000 0.60529  0.71471  0.48618  Biso   1.000  C
  C1710    1.0000 0.10529  0.78529  0.51382  Biso   1.000  C
  C1711    1.0000 0.89471  0.28529  0.98618  Biso   1.000  C
  C1712    1.0000 0.39471  0.21471  0.01382  Biso   1.000  C
  C1713    1.0000 0.48618  0.60529  0.71471  Biso   1.000  C
  C1714    1.0000 0.51382  0.10529  0.78529  Biso   1.000  C
  C1715    1.0000 0.98618  0.89471  0.28529  Biso   1.000  C
  C1716    1.0000 0.01382  0.39471  0.21471  Biso   1.000  C
  C1717    1.0000 0.73618  0.96471  0.85529  Biso   1.000  C
  C1718    1.0000 0.76382  0.03529  0.35529  Biso   1.000  C
  C1719    1.0000 0.23618  0.53529  0.14471  Biso   1.000  C
  C1720    1.0000 0.26382  0.46471  0.64471  Biso   1.000  C
  C1721    1.0000 0.96471  0.85529  0.73618  Biso   1.000  C
  C1722    1.0000 0.03529  0.35529  0.76382  Biso   1.000  C
  C1723    1.0000 0.53529  0.14471  0.23618  Biso   1.000  C
  C1724    1.0000 0.46471  0.64471  0.26382  Biso   1.000  C
  C1725    1.0000 0.85529  0.73618  0.96471  Biso   1.000  C
  C1726    1.0000 0.35529  0.76382  0.03529  Biso   1.000  C
  C1727    1.0000 0.14471  0.23618  0.53529  Biso   1.000  C
  C1728    1.0000 0.64471  0.26382  0.46471  Biso   1.000  C
  H2065    1.0000 0.19490  0.98100  0.09200  Biso   1.000  H
  H2066    1.0000 0.30510  0.01900  0.59200  Biso   1.000  H
  H2067    1.0000 0.80510  0.48100  0.40800  Biso   1.000  H
  H2068    1.0000 0.69490  0.51900  0.90800  Biso   1.000  H
  H2069    1.0000 0.09200  0.19490  0.98100  Biso   1.000  H
  H2070    1.0000 0.59200  0.30510  0.01900  Biso   1.000  H
  H2071    1.0000 0.40800  0.80510  0.48100  Biso   1.000  H
  H2072    1.0000 0.90800  0.69490  0.51900  Biso   1.000  H
  H2073    1.0000 0.98100  0.09200  0.19490  Biso   1.000  H
  H2074    1.0000 0.01900  0.59200  0.30510  Biso   1.000  H
  H2075    1.0000 0.48100  0.40800  0.80510  Biso   1.000  H
  H2076    1.0000 0.51900  0.90800  0.69490  Biso   1.000  H
  H2077    1.0000 0.23100  0.44490  0.34200  Biso   1.000  H
  H2078    1.0000 0.26900  0.55510  0.84200  Biso   1.000  H
  H2079    1.0000 0.73100  0.05510  0.65800  Biso   1.000  H
  H2080    1.0000 0.76900  0.94490  0.15800  Biso   1.000  H
  H2081    1.0000 0.44490  0.34200  0.23100  Biso   1.000  H
  H2082    1.0000 0.55510  0.84200  0.26900  Biso   1.000  H
  H2083    1.0000 0.05510  0.65800  0.73100  Biso   1.000  H
  H2084    1.0000 0.94490  0.15800  0.76900  Biso   1.000  H
  H2085    1.0000 0.34200  0.23100  0.44490  Biso   1.000  H
  H2086    1.0000 0.84200  0.26900  0.55510  Biso   1.000  H
  H2087    1.0000 0.65800  0.73100  0.05510  Biso   1.000  H
  H2088    1.0000 0.15800  0.76900  0.94490  Biso   1.000  H
  H2089    1.0000 0.69490  0.48100  0.59200  Biso   1.000  H
  H2090    1.0000 0.80510  0.51900  0.09200  Biso   1.000  H
  H2091    1.0000 0.30510  0.98100  0.90800  Biso   1.000  H
  H2092    1.0000 0.19490  0.01900  0.40800  Biso   1.000  H
  H2093    1.0000 0.59200  0.69490  0.48100  Biso   1.000  H
  H2094    1.0000 0.09200  0.80510  0.51900  Biso   1.000  H
  H2095    1.0000 0.90800  0.30510  0.98100  Biso   1.000  H
  H2096    1.0000 0.40800  0.19490  0.01900  Biso   1.000  H
  H2097    1.0000 0.48100  0.59200  0.69490  Biso   1.000  H
  H2098    1.0000 0.51900  0.09200  0.80510  Biso   1.000  H
  H2099    1.0000 0.98100  0.90800  0.30510  Biso   1.000  H
  H2100    1.0000 0.01900  0.40800  0.19490  Biso   1.000  H
  H2101    1.0000 0.73100  0.94490  0.84200  Biso   1.000  H
  H2102    1.0000 0.76900  0.05510  0.34200  Biso   1.000  H
  H2103    1.0000 0.23100  0.55510  0.15800  Biso   1.000  H
  H2104    1.0000 0.26900  0.44490  0.65800  Biso   1.000  H
  H2105    1.0000 0.94490  0.84200  0.73100  Biso   1.000  H
  H2106    1.0000 0.05510  0.34200  0.76900  Biso   1.000  H
  H2107    1.0000 0.55510  0.15800  0.23100  Biso   1.000  H
  H2108    1.0000 0.44490  0.65800  0.26900  Biso   1.000  H
  H2109    1.0000 0.84200  0.73100  0.94490  Biso   1.000  H
  H2110    1.0000 0.34200  0.76900  0.05510  Biso   1.000  H
  H2111    1.0000 0.15800  0.23100  0.55510  Biso   1.000  H
  H2112    1.0000 0.65800  0.26900  0.44490  Biso   1.000  H
  C1729    1.0000 0.37160  0.11941  0.02653  Biso   1.000  C
  C1730    1.0000 0.12840  0.88059  0.52653  Biso   1.000  C
  C1731    1.0000 0.62840  0.61941  0.47347  Biso   1.000  C
  C1732    1.0000 0.87160  0.38059  0.97347  Biso   1.000  C
  C1733    1.0000 0.02653  0.37160  0.11941  Biso   1.000  C
  C1734    1.0000 0.52653  0.12840  0.88059  Biso   1.000  C
  C1735    1.0000 0.47347  0.62840  0.61941  Biso   1.000  C
  C1736    1.0000 0.97347  0.87160  0.38059  Biso   1.000  C
  C1737    1.0000 0.11941  0.02653  0.37160  Biso   1.000  C
  C1738    1.0000 0.88059  0.52653  0.12840  Biso   1.000  C
  C1739    1.0000 0.61941  0.47347  0.62840  Biso   1.000  C
  C1740    1.0000 0.38059  0.97347  0.87160  Biso   1.000  C
  C1741    1.0000 0.36941  0.62160  0.27653  Biso   1.000  C
  C1742    1.0000 0.13059  0.37840  0.77653  Biso   1.000  C
  C1743    1.0000 0.86941  0.87840  0.72347  Biso   1.000  C
  C1744    1.0000 0.63059  0.12160  0.22347  Biso   1.000  C
  C1745    1.0000 0.62160  0.27653  0.36941  Biso   1.000  C
  C1746    1.0000 0.37840  0.77653  0.13059  Biso   1.000  C
  C1747    1.0000 0.87840  0.72347  0.86941  Biso   1.000  C
  C1748    1.0000 0.12160  0.22347  0.63059  Biso   1.000  C
  C1749    1.0000 0.27653  0.36941  0.62160  Biso   1.000  C
  C1750    1.0000 0.77653  0.13059  0.37840  Biso   1.000  C
  C1751    1.0000 0.72347  0.86941  0.87840  Biso   1.000  C
  C1752    1.0000 0.22347  0.63059  0.12160  Biso   1.000  C
  C1753    1.0000 0.87160  0.61941  0.52653  Biso   1.000  C
  C1754    1.0000 0.62840  0.38059  0.02653  Biso   1.000  C
  C1755    1.0000 0.12840  0.11941  0.97347  Biso   1.000  C
  C1756    1.0000 0.37160  0.88059  0.47347  Biso   1.000  C
  C1757    1.0000 0.52653  0.87160  0.61941  Biso   1.000  C
  C1758    1.0000 0.02653  0.62840  0.38059  Biso   1.000  C
  C1759    1.0000 0.97347  0.12840  0.11941  Biso   1.000  C
  C1760    1.0000 0.47347  0.37160  0.88059  Biso   1.000  C
  C1761    1.0000 0.61941  0.52653  0.87160  Biso   1.000  C
  C1762    1.0000 0.38059  0.02653  0.62840  Biso   1.000  C
  C1763    1.0000 0.11941  0.97347  0.12840  Biso   1.000  C
  C1764    1.0000 0.88059  0.47347  0.37160  Biso   1.000  C
  C1765    1.0000 0.86941  0.12160  0.77653  Biso   1.000  C
  C1766    1.0000 0.63059  0.87840  0.27653  Biso   1.000  C
  C1767    1.0000 0.36941  0.37840  0.22347  Biso   1.000  C
  C1768    1.0000 0.13059  0.62160  0.72347  Biso   1.000  C
  C1769    1.0000 0.12160  0.77653  0.86941  Biso   1.000  C
  C1770    1.0000 0.87840  0.27653  0.63059  Biso   1.000  C
  C1771    1.0000 0.37840  0.22347  0.36941  Biso   1.000  C
  C1772    1.0000 0.62160  0.72347  0.13059  Biso   1.000  C
  C1773    1.0000 0.77653  0.86941  0.12160  Biso   1.000  C
  C1774    1.0000 0.27653  0.63059  0.87840  Biso   1.000  C
  C1775    1.0000 0.22347  0.36941  0.37840  Biso   1.000  C
  C1776    1.0000 0.72347  0.13059  0.62160  Biso   1.000  C
  H2113    1.0000 0.39250  0.13400  0.02650  Biso   1.000  H
  H2114    1.0000 0.10750  0.86600  0.52650  Biso   1.000  H
  H2115    1.0000 0.60750  0.63400  0.47350  Biso   1.000  H
  H2116    1.0000 0.89250  0.36600  0.97350  Biso   1.000  H
  H2117    1.0000 0.02650  0.39250  0.13400  Biso   1.000  H
  H2118    1.0000 0.52650  0.10750  0.86600  Biso   1.000  H
  H2119    1.0000 0.47350  0.60750  0.63400  Biso   1.000  H
  H2120    1.0000 0.97350  0.89250  0.36600  Biso   1.000  H
  H2121    1.0000 0.13400  0.02650  0.39250  Biso   1.000  H
  H2122    1.0000 0.86600  0.52650  0.10750  Biso   1.000  H
  H2123    1.0000 0.63400  0.47350  0.60750  Biso   1.000  H
  H2124    1.0000 0.36600  0.97350  0.89250  Biso   1.000  H
  H2125    1.0000 0.38400  0.64250  0.27650  Biso   1.000  H
  H2126    1.0000 0.11600  0.35750  0.77650  Biso   1.000  H
  H2127    1.0000 0.88400  0.85750  0.72350  Biso   1.000  H
  H2128    1.0000 0.61600  0.14250  0.22350  Biso   1.000  H
  H2129    1.0000 0.64250  0.27650  0.38400  Biso   1.000  H
  H2130    1.0000 0.35750  0.77650  0.11600  Biso   1.000  H
  H2131    1.0000 0.85750  0.72350  0.88400  Biso   1.000  H
  H2132    1.0000 0.14250  0.22350  0.61600  Biso   1.000  H
  H2133    1.0000 0.27650  0.38400  0.64250  Biso   1.000  H
  H2134    1.0000 0.77650  0.11600  0.35750  Biso   1.000  H
  H2135    1.0000 0.72350  0.88400  0.85750  Biso   1.000  H
  H2136    1.0000 0.22350  0.61600  0.14250  Biso   1.000  H
  H2137    1.0000 0.89250  0.63400  0.52650  Biso   1.000  H
  H2138    1.0000 0.60750  0.36600  0.02650  Biso   1.000  H
  H2139    1.0000 0.10750  0.13400  0.97350  Biso   1.000  H
  H2140    1.0000 0.39250  0.86600  0.47350  Biso   1.000  H
  H2141    1.0000 0.52650  0.89250  0.63400  Biso   1.000  H
  H2142    1.0000 0.02650  0.60750  0.36600  Biso   1.000  H
  H2143    1.0000 0.97350  0.10750  0.13400  Biso   1.000  H
  H2144    1.0000 0.47350  0.39250  0.86600  Biso   1.000  H
  H2145    1.0000 0.63400  0.52650  0.89250  Biso   1.000  H
  H2146    1.0000 0.36600  0.02650  0.60750  Biso   1.000  H
  H2147    1.0000 0.13400  0.97350  0.10750  Biso   1.000  H
  H2148    1.0000 0.86600  0.47350  0.39250  Biso   1.000  H
  H2149    1.0000 0.88400  0.14250  0.77650  Biso   1.000  H
  H2150    1.0000 0.61600  0.85750  0.27650  Biso   1.000  H
  H2151    1.0000 0.38400  0.35750  0.22350  Biso   1.000  H
  H2152    1.0000 0.11600  0.64250  0.72350  Biso   1.000  H
  H2153    1.0000 0.14250  0.77650  0.88400  Biso   1.000  H
  H2154    1.0000 0.85750  0.27650  0.61600  Biso   1.000  H
  H2155    1.0000 0.35750  0.22350  0.38400  Biso   1.000  H
  H2156    1.0000 0.64250  0.72350  0.11600  Biso   1.000  H
  H2157    1.0000 0.77650  0.88400  0.14250  Biso   1.000  H
  H2158    1.0000 0.27650  0.61600  0.85750  Biso   1.000  H
  H2159    1.0000 0.22350  0.38400  0.35750  Biso   1.000  H
  H2160    1.0000 0.72350  0.11600  0.64250  Biso   1.000  H
  H2161    1.0000 0.35400  0.13070  0.04120  Biso   1.000  H
  H2162    1.0000 0.14600  0.86930  0.54120  Biso   1.000  H
  H2163    1.0000 0.64600  0.63070  0.45880  Biso   1.000  H
  H2164    1.0000 0.85400  0.36930  0.95880  Biso   1.000  H
  H2165    1.0000 0.04120  0.35400  0.13070  Biso   1.000  H
  H2166    1.0000 0.54120  0.14600  0.86930  Biso   1.000  H
  H2167    1.0000 0.45880  0.64600  0.63070  Biso   1.000  H
  H2168    1.0000 0.95880  0.85400  0.36930  Biso   1.000  H
  H2169    1.0000 0.13070  0.04120  0.35400  Biso   1.000  H
  H2170    1.0000 0.86930  0.54120  0.14600  Biso   1.000  H
  H2171    1.0000 0.63070  0.45880  0.64600  Biso   1.000  H
  H2172    1.0000 0.36930  0.95880  0.85400  Biso   1.000  H
  H2173    1.0000 0.38070  0.60400  0.29120  Biso   1.000  H
  H2174    1.0000 0.11930  0.39600  0.79120  Biso   1.000  H
  H2175    1.0000 0.88070  0.89600  0.70880  Biso   1.000  H
  H2176    1.0000 0.61930  0.10400  0.20880  Biso   1.000  H
  H2177    1.0000 0.60400  0.29120  0.38070  Biso   1.000  H
  H2178    1.0000 0.39600  0.79120  0.11930  Biso   1.000  H
  H2179    1.0000 0.89600  0.70880  0.88070  Biso   1.000  H
  H2180    1.0000 0.10400  0.20880  0.61930  Biso   1.000  H
  H2181    1.0000 0.29120  0.38070  0.60400  Biso   1.000  H
  H2182    1.0000 0.79120  0.11930  0.39600  Biso   1.000  H
  H2183    1.0000 0.70880  0.88070  0.89600  Biso   1.000  H
  H2184    1.0000 0.20880  0.61930  0.10400  Biso   1.000  H
  H2185    1.0000 0.85400  0.63070  0.54120  Biso   1.000  H
  H2186    1.0000 0.64600  0.36930  0.04120  Biso   1.000  H
  H2187    1.0000 0.14600  0.13070  0.95880  Biso   1.000  H
  H2188    1.0000 0.35400  0.86930  0.45880  Biso   1.000  H
  H2189    1.0000 0.54120  0.85400  0.63070  Biso   1.000  H
  H2190    1.0000 0.04120  0.64600  0.36930  Biso   1.000  H
  H2191    1.0000 0.95880  0.14600  0.13070  Biso   1.000  H
  H2192    1.0000 0.45880  0.35400  0.86930  Biso   1.000  H
  H2193    1.0000 0.63070  0.54120  0.85400  Biso   1.000  H
  H2194    1.0000 0.36930  0.04120  0.64600  Biso   1.000  H
  H2195    1.0000 0.13070  0.95880  0.14600  Biso   1.000  H
  H2196    1.0000 0.86930  0.45880  0.35400  Biso   1.000  H
  H2197    1.0000 0.88070  0.10400  0.79120  Biso   1.000  H
  H2198    1.0000 0.61930  0.89600  0.29120  Biso   1.000  H
  H2199    1.0000 0.38070  0.39600  0.20880  Biso   1.000  H
  H2200    1.0000 0.11930  0.60400  0.70880  Biso   1.000  H
  H2201    1.0000 0.10400  0.79120  0.88070  Biso   1.000  H
  H2202    1.0000 0.89600  0.29120  0.61930  Biso   1.000  H
  H2203    1.0000 0.39600  0.20880  0.38070  Biso   1.000  H
  H2204    1.0000 0.60400  0.70880  0.11930  Biso   1.000  H
  H2205    1.0000 0.79120  0.88070  0.10400  Biso   1.000  H
  H2206    1.0000 0.29120  0.61930  0.89600  Biso   1.000  H
  H2207    1.0000 0.20880  0.38070  0.39600  Biso   1.000  H
  H2208    1.0000 0.70880  0.11930  0.60400  Biso   1.000  H
  C1777    1.0000 0.30117  0.10475  0.27505  Biso   1.000  C
  C1778    1.0000 0.19883  0.89525  0.77505  Biso   1.000  C
  C1779    1.0000 0.69883  0.60475  0.22495  Biso   1.000  C
  C1780    1.0000 0.80117  0.39525  0.72495  Biso   1.000  C
  C1781    1.0000 0.27505  0.30117  0.10475  Biso   1.000  C
  C1782    1.0000 0.77505  0.19883  0.89525  Biso   1.000  C
  C1783    1.0000 0.22495  0.69883  0.60475  Biso   1.000  C
  C1784    1.0000 0.72495  0.80117  0.39525  Biso   1.000  C
  C1785    1.0000 0.10475  0.27505  0.30117  Biso   1.000  C
  C1786    1.0000 0.89525  0.77505  0.19883  Biso   1.000  C
  C1787    1.0000 0.60475  0.22495  0.69883  Biso   1.000  C
  C1788    1.0000 0.39525  0.72495  0.80117  Biso   1.000  C
  C1789    1.0000 0.35475  0.55117  0.52505  Biso   1.000  C
  C1790    1.0000 0.14525  0.44883  0.02505  Biso   1.000  C
  C1791    1.0000 0.85475  0.94883  0.47495  Biso   1.000  C
  C1792    1.0000 0.64525  0.05117  0.97495  Biso   1.000  C
  C1793    1.0000 0.55117  0.52505  0.35475  Biso   1.000  C
  C1794    1.0000 0.44883  0.02505  0.14525  Biso   1.000  C
  C1795    1.0000 0.94883  0.47495  0.85475  Biso   1.000  C
  C1796    1.0000 0.05117  0.97495  0.64525  Biso   1.000  C
  C1797    1.0000 0.52505  0.35475  0.55117  Biso   1.000  C
  C1798    1.0000 0.02505  0.14525  0.44883  Biso   1.000  C
  C1799    1.0000 0.47495  0.85475  0.94883  Biso   1.000  C
  C1800    1.0000 0.97495  0.64525  0.05117  Biso   1.000  C
  C1801    1.0000 0.80117  0.60475  0.77505  Biso   1.000  C
  C1802    1.0000 0.69883  0.39525  0.27505  Biso   1.000  C
  C1803    1.0000 0.19883  0.10475  0.72495  Biso   1.000  C
  C1804    1.0000 0.30117  0.89525  0.22495  Biso   1.000  C
  C1805    1.0000 0.77505  0.80117  0.60475  Biso   1.000  C
  C1806    1.0000 0.27505  0.69883  0.39525  Biso   1.000  C
  C1807    1.0000 0.72495  0.19883  0.10475  Biso   1.000  C
  C1808    1.0000 0.22495  0.30117  0.89525  Biso   1.000  C
  C1809    1.0000 0.60475  0.77505  0.80117  Biso   1.000  C
  C1810    1.0000 0.39525  0.27505  0.69883  Biso   1.000  C
  C1811    1.0000 0.10475  0.72495  0.19883  Biso   1.000  C
  C1812    1.0000 0.89525  0.22495  0.30117  Biso   1.000  C
  C1813    1.0000 0.85475  0.05117  0.02505  Biso   1.000  C
  C1814    1.0000 0.64525  0.94883  0.52505  Biso   1.000  C
  C1815    1.0000 0.35475  0.44883  0.97495  Biso   1.000  C
  C1816    1.0000 0.14525  0.55117  0.47495  Biso   1.000  C
  C1817    1.0000 0.05117  0.02505  0.85475  Biso   1.000  C
  C1818    1.0000 0.94883  0.52505  0.64525  Biso   1.000  C
  C1819    1.0000 0.44883  0.97495  0.35475  Biso   1.000  C
  C1820    1.0000 0.55117  0.47495  0.14525  Biso   1.000  C
  C1821    1.0000 0.02505  0.85475  0.05117  Biso   1.000  C
  C1822    1.0000 0.52505  0.64525  0.94883  Biso   1.000  C
  C1823    1.0000 0.97495  0.35475  0.44883  Biso   1.000  C
  C1824    1.0000 0.47495  0.14525  0.55117  Biso   1.000  C
  H2209    1.0000 0.29880  0.09410  0.29810  Biso   1.000  H
  H2210    1.0000 0.20120  0.90590  0.79810  Biso   1.000  H
  H2211    1.0000 0.70120  0.59410  0.20190  Biso   1.000  H
  H2212    1.0000 0.79880  0.40590  0.70190  Biso   1.000  H
  H2213    1.0000 0.29810  0.29880  0.09410  Biso   1.000  H
  H2214    1.0000 0.79810  0.20120  0.90590  Biso   1.000  H
  H2215    1.0000 0.20190  0.70120  0.59410  Biso   1.000  H
  H2216    1.0000 0.70190  0.79880  0.40590  Biso   1.000  H
  H2217    1.0000 0.09410  0.29810  0.29880  Biso   1.000  H
  H2218    1.0000 0.90590  0.79810  0.20120  Biso   1.000  H
  H2219    1.0000 0.59410  0.20190  0.70120  Biso   1.000  H
  H2220    1.0000 0.40590  0.70190  0.79880  Biso   1.000  H
  H2221    1.0000 0.34410  0.54880  0.54810  Biso   1.000  H
  H2222    1.0000 0.15590  0.45120  0.04810  Biso   1.000  H
  H2223    1.0000 0.84410  0.95120  0.45190  Biso   1.000  H
  H2224    1.0000 0.65590  0.04880  0.95190  Biso   1.000  H
  H2225    1.0000 0.54880  0.54810  0.34410  Biso   1.000  H
  H2226    1.0000 0.45120  0.04810  0.15590  Biso   1.000  H
  H2227    1.0000 0.95120  0.45190  0.84410  Biso   1.000  H
  H2228    1.0000 0.04880  0.95190  0.65590  Biso   1.000  H
  H2229    1.0000 0.54810  0.34410  0.54880  Biso   1.000  H
  H2230    1.0000 0.04810  0.15590  0.45120  Biso   1.000  H
  H2231    1.0000 0.45190  0.84410  0.95120  Biso   1.000  H
  H2232    1.0000 0.95190  0.65590  0.04880  Biso   1.000  H
  H2233    1.0000 0.79880  0.59410  0.79810  Biso   1.000  H
  H2234    1.0000 0.70120  0.40590  0.29810  Biso   1.000  H
  H2235    1.0000 0.20120  0.09410  0.70190  Biso   1.000  H
  H2236    1.0000 0.29880  0.90590  0.20190  Biso   1.000  H
  H2237    1.0000 0.79810  0.79880  0.59410  Biso   1.000  H
  H2238    1.0000 0.29810  0.70120  0.40590  Biso   1.000  H
  H2239    1.0000 0.70190  0.20120  0.09410  Biso   1.000  H
  H2240    1.0000 0.20190  0.29880  0.90590  Biso   1.000  H
  H2241    1.0000 0.59410  0.79810  0.79880  Biso   1.000  H
  H2242    1.0000 0.40590  0.29810  0.70120  Biso   1.000  H
  H2243    1.0000 0.09410  0.70190  0.20120  Biso   1.000  H
  H2244    1.0000 0.90590  0.20190  0.29880  Biso   1.000  H
  H2245    1.0000 0.84410  0.04880  0.04810  Biso   1.000  H
  H2246    1.0000 0.65590  0.95120  0.54810  Biso   1.000  H
  H2247    1.0000 0.34410  0.45120  0.95190  Biso   1.000  H
  H2248    1.0000 0.15590  0.54880  0.45190  Biso   1.000  H
  H2249    1.0000 0.04880  0.04810  0.84410  Biso   1.000  H
  H2250    1.0000 0.95120  0.54810  0.65590  Biso   1.000  H
  H2251    1.0000 0.45120  0.95190  0.34410  Biso   1.000  H
  H2252    1.0000 0.54880  0.45190  0.15590  Biso   1.000  H
  H2253    1.0000 0.04810  0.84410  0.04880  Biso   1.000  H
  H2254    1.0000 0.54810  0.65590  0.95120  Biso   1.000  H
  H2255    1.0000 0.95190  0.34410  0.45120  Biso   1.000  H
  H2256    1.0000 0.45190  0.15590  0.54880  Biso   1.000  H
  H2257    1.0000 0.27880  0.11530  0.26880  Biso   1.000  H
  H2258    1.0000 0.22120  0.88470  0.76880  Biso   1.000  H
  H2259    1.0000 0.72120  0.61530  0.23120  Biso   1.000  H
  H2260    1.0000 0.77880  0.38470  0.73120  Biso   1.000  H
  H2261    1.0000 0.26880  0.27880  0.11530  Biso   1.000  H
  H2262    1.0000 0.76880  0.22120  0.88470  Biso   1.000  H
  H2263    1.0000 0.23120  0.72120  0.61530  Biso   1.000  H
  H2264    1.0000 0.73120  0.77880  0.38470  Biso   1.000  H
  H2265    1.0000 0.11530  0.26880  0.27880  Biso   1.000  H
  H2266    1.0000 0.88470  0.76880  0.22120  Biso   1.000  H
  H2267    1.0000 0.61530  0.23120  0.72120  Biso   1.000  H
  H2268    1.0000 0.38470  0.73120  0.77880  Biso   1.000  H
  H2269    1.0000 0.36530  0.52880  0.51880  Biso   1.000  H
  H2270    1.0000 0.13470  0.47120  0.01880  Biso   1.000  H
  H2271    1.0000 0.86530  0.97120  0.48120  Biso   1.000  H
  H2272    1.0000 0.63470  0.02880  0.98120  Biso   1.000  H
  H2273    1.0000 0.52880  0.51880  0.36530  Biso   1.000  H
  H2274    1.0000 0.47120  0.01880  0.13470  Biso   1.000  H
  H2275    1.0000 0.97120  0.48120  0.86530  Biso   1.000  H
  H2276    1.0000 0.02880  0.98120  0.63470  Biso   1.000  H
  H2277    1.0000 0.51880  0.36530  0.52880  Biso   1.000  H
  H2278    1.0000 0.01880  0.13470  0.47120  Biso   1.000  H
  H2279    1.0000 0.48120  0.86530  0.97120  Biso   1.000  H
  H2280    1.0000 0.98120  0.63470  0.02880  Biso   1.000  H
  H2281    1.0000 0.77880  0.61530  0.76880  Biso   1.000  H
  H2282    1.0000 0.72120  0.38470  0.26880  Biso   1.000  H
  H2283    1.0000 0.22120  0.11530  0.73120  Biso   1.000  H
  H2284    1.0000 0.27880  0.88470  0.23120  Biso   1.000  H
  H2285    1.0000 0.76880  0.77880  0.61530  Biso   1.000  H
  H2286    1.0000 0.26880  0.72120  0.38470  Biso   1.000  H
  H2287    1.0000 0.73120  0.22120  0.11530  Biso   1.000  H
  H2288    1.0000 0.23120  0.27880  0.88470  Biso   1.000  H
  H2289    1.0000 0.61530  0.76880  0.77880  Biso   1.000  H
  H2290    1.0000 0.38470  0.26880  0.72120  Biso   1.000  H
  H2291    1.0000 0.11530  0.73120  0.22120  Biso   1.000  H
  H2292    1.0000 0.88470  0.23120  0.27880  Biso   1.000  H
  H2293    1.0000 0.86530  0.02880  0.01880  Biso   1.000  H
  H2294    1.0000 0.63470  0.97120  0.51880  Biso   1.000  H
  H2295    1.0000 0.36530  0.47120  0.98120  Biso   1.000  H
  H2296    1.0000 0.13470  0.52880  0.48120  Biso   1.000  H
  H2297    1.0000 0.02880  0.01880  0.86530  Biso   1.000  H
  H2298    1.0000 0.97120  0.51880  0.63470  Biso   1.000  H
  H2299    1.0000 0.47120  0.98120  0.36530  Biso   1.000  H
  H2300    1.0000 0.52880  0.48120  0.13470  Biso   1.000  H
  H2301    1.0000 0.01880  0.86530  0.02880  Biso   1.000  H
  H2302    1.0000 0.51880  0.63470  0.97120  Biso   1.000  H
  H2303    1.0000 0.98120  0.36530  0.47120  Biso   1.000  H
  H2304    1.0000 0.48120  0.13470  0.52880  Biso   1.000  H
  C1825    1.0000 0.33323  0.15020  0.23996  Biso   1.000  C
  C1826    1.0000 0.16677  0.84980  0.73996  Biso   1.000  C
  C1827    1.0000 0.66677  0.65020  0.26004  Biso   1.000  C
  C1828    1.0000 0.83323  0.34980  0.76004  Biso   1.000  C
  C1829    1.0000 0.23996  0.33323  0.15020  Biso   1.000  C
  C1830    1.0000 0.73996  0.16677  0.84980  Biso   1.000  C
  C1831    1.0000 0.26004  0.66677  0.65020  Biso   1.000  C
  C1832    1.0000 0.76004  0.83323  0.34980  Biso   1.000  C
  C1833    1.0000 0.15020  0.23996  0.33323  Biso   1.000  C
  C1834    1.0000 0.84980  0.73996  0.16677  Biso   1.000  C
  C1835    1.0000 0.65020  0.26004  0.66677  Biso   1.000  C
  C1836    1.0000 0.34980  0.76004  0.83323  Biso   1.000  C
  C1837    1.0000 0.40020  0.58323  0.48996  Biso   1.000  C
  C1838    1.0000 0.09980  0.41677  0.98996  Biso   1.000  C
  C1839    1.0000 0.90020  0.91677  0.51004  Biso   1.000  C
  C1840    1.0000 0.59980  0.08323  0.01004  Biso   1.000  C
  C1841    1.0000 0.58323  0.48996  0.40020  Biso   1.000  C
  C1842    1.0000 0.41677  0.98996  0.09980  Biso   1.000  C
  C1843    1.0000 0.91677  0.51004  0.90020  Biso   1.000  C
  C1844    1.0000 0.08323  0.01004  0.59980  Biso   1.000  C
  C1845    1.0000 0.48996  0.40020  0.58323  Biso   1.000  C
  C1846    1.0000 0.98996  0.09980  0.41677  Biso   1.000  C
  C1847    1.0000 0.51004  0.90020  0.91677  Biso   1.000  C
  C1848    1.0000 0.01004  0.59980  0.08323  Biso   1.000  C
  C1849    1.0000 0.83323  0.65020  0.73996  Biso   1.000  C
  C1850    1.0000 0.66677  0.34980  0.23996  Biso   1.000  C
  C1851    1.0000 0.16677  0.15020  0.76004  Biso   1.000  C
  C1852    1.0000 0.33323  0.84980  0.26004  Biso   1.000  C
  C1853    1.0000 0.73996  0.83323  0.65020  Biso   1.000  C
  C1854    1.0000 0.23996  0.66677  0.34980  Biso   1.000  C
  C1855    1.0000 0.76004  0.16677  0.15020  Biso   1.000  C
  C1856    1.0000 0.26004  0.33323  0.84980  Biso   1.000  C
  C1857    1.0000 0.65020  0.73996  0.83323  Biso   1.000  C
  C1858    1.0000 0.34980  0.23996  0.66677  Biso   1.000  C
  C1859    1.0000 0.15020  0.76004  0.16677  Biso   1.000  C
  C1860    1.0000 0.84980  0.26004  0.33323  Biso   1.000  C
  C1861    1.0000 0.90020  0.08323  0.98996  Biso   1.000  C
  C1862    1.0000 0.59980  0.91677  0.48996  Biso   1.000  C
  C1863    1.0000 0.40020  0.41677  0.01004  Biso   1.000  C
  C1864    1.0000 0.09980  0.58323  0.51004  Biso   1.000  C
  C1865    1.0000 0.08323  0.98996  0.90020  Biso   1.000  C
  C1866    1.0000 0.91677  0.48996  0.59980  Biso   1.000  C
  C1867    1.0000 0.41677  0.01004  0.40020  Biso   1.000  C
  C1868    1.0000 0.58323  0.51004  0.09980  Biso   1.000  C
  C1869    1.0000 0.98996  0.90020  0.08323  Biso   1.000  C
  C1870    1.0000 0.48996  0.59980  0.91677  Biso   1.000  C
  C1871    1.0000 0.01004  0.40020  0.41677  Biso   1.000  C
  C1872    1.0000 0.51004  0.09980  0.58323  Biso   1.000  C
  H2305    1.0000 0.31110  0.16110  0.23350  Biso   1.000  H
  H2306    1.0000 0.18890  0.83890  0.73350  Biso   1.000  H
  H2307    1.0000 0.68890  0.66110  0.26650  Biso   1.000  H
  H2308    1.0000 0.81110  0.33890  0.76650  Biso   1.000  H
  H2309    1.0000 0.23350  0.31110  0.16110  Biso   1.000  H
  H2310    1.0000 0.73350  0.18890  0.83890  Biso   1.000  H
  H2311    1.0000 0.26650  0.68890  0.66110  Biso   1.000  H
  H2312    1.0000 0.76650  0.81110  0.33890  Biso   1.000  H
  H2313    1.0000 0.16110  0.23350  0.31110  Biso   1.000  H
  H2314    1.0000 0.83890  0.73350  0.18890  Biso   1.000  H
  H2315    1.0000 0.66110  0.26650  0.68890  Biso   1.000  H
  H2316    1.0000 0.33890  0.76650  0.81110  Biso   1.000  H
  H2317    1.0000 0.41110  0.56110  0.48350  Biso   1.000  H
  H2318    1.0000 0.08890  0.43890  0.98350  Biso   1.000  H
  H2319    1.0000 0.91110  0.93890  0.51650  Biso   1.000  H
  H2320    1.0000 0.58890  0.06110  0.01650  Biso   1.000  H
  H2321    1.0000 0.56110  0.48350  0.41110  Biso   1.000  H
  H2322    1.0000 0.43890  0.98350  0.08890  Biso   1.000  H
  H2323    1.0000 0.93890  0.51650  0.91110  Biso   1.000  H
  H2324    1.0000 0.06110  0.01650  0.58890  Biso   1.000  H
  H2325    1.0000 0.48350  0.41110  0.56110  Biso   1.000  H
  H2326    1.0000 0.98350  0.08890  0.43890  Biso   1.000  H
  H2327    1.0000 0.51650  0.91110  0.93890  Biso   1.000  H
  H2328    1.0000 0.01650  0.58890  0.06110  Biso   1.000  H
  H2329    1.0000 0.81110  0.66110  0.73350  Biso   1.000  H
  H2330    1.0000 0.68890  0.33890  0.23350  Biso   1.000  H
  H2331    1.0000 0.18890  0.16110  0.76650  Biso   1.000  H
  H2332    1.0000 0.31110  0.83890  0.26650  Biso   1.000  H
  H2333    1.0000 0.73350  0.81110  0.66110  Biso   1.000  H
  H2334    1.0000 0.23350  0.68890  0.33890  Biso   1.000  H
  H2335    1.0000 0.76650  0.18890  0.16110  Biso   1.000  H
  H2336    1.0000 0.26650  0.31110  0.83890  Biso   1.000  H
  H2337    1.0000 0.66110  0.73350  0.81110  Biso   1.000  H
  H2338    1.0000 0.33890  0.23350  0.68890  Biso   1.000  H
  H2339    1.0000 0.16110  0.76650  0.18890  Biso   1.000  H
  H2340    1.0000 0.83890  0.26650  0.31110  Biso   1.000  H
  H2341    1.0000 0.91110  0.06110  0.98350  Biso   1.000  H
  H2342    1.0000 0.58890  0.93890  0.48350  Biso   1.000  H
  H2343    1.0000 0.41110  0.43890  0.01650  Biso   1.000  H
  H2344    1.0000 0.08890  0.56110  0.51650  Biso   1.000  H
  H2345    1.0000 0.06110  0.98350  0.91110  Biso   1.000  H
  H2346    1.0000 0.93890  0.48350  0.58890  Biso   1.000  H
  H2347    1.0000 0.43890  0.01650  0.41110  Biso   1.000  H
  H2348    1.0000 0.56110  0.51650  0.08890  Biso   1.000  H
  H2349    1.0000 0.98350  0.91110  0.06110  Biso   1.000  H
  H2350    1.0000 0.48350  0.58890  0.93890  Biso   1.000  H
  H2351    1.0000 0.01650  0.41110  0.43890  Biso   1.000  H
  H2352    1.0000 0.51650  0.08890  0.56110  Biso   1.000  H
  H2353    1.0000 0.35110  0.16830  0.24060  Biso   1.000  H
  H2354    1.0000 0.14890  0.83170  0.74060  Biso   1.000  H
  H2355    1.0000 0.64890  0.66830  0.25940  Biso   1.000  H
  H2356    1.0000 0.85110  0.33170  0.75940  Biso   1.000  H
  H2357    1.0000 0.24060  0.35110  0.16830  Biso   1.000  H
  H2358    1.0000 0.74060  0.14890  0.83170  Biso   1.000  H
  H2359    1.0000 0.25940  0.64890  0.66830  Biso   1.000  H
  H2360    1.0000 0.75940  0.85110  0.33170  Biso   1.000  H
  H2361    1.0000 0.16830  0.24060  0.35110  Biso   1.000  H
  H2362    1.0000 0.83170  0.74060  0.14890  Biso   1.000  H
  H2363    1.0000 0.66830  0.25940  0.64890  Biso   1.000  H
  H2364    1.0000 0.33170  0.75940  0.85110  Biso   1.000  H
  H2365    1.0000 0.41830  0.60110  0.49060  Biso   1.000  H
  H2366    1.0000 0.08170  0.39890  0.99060  Biso   1.000  H
  H2367    1.0000 0.91830  0.89890  0.50940  Biso   1.000  H
  H2368    1.0000 0.58170  0.10110  0.00940  Biso   1.000  H
  H2369    1.0000 0.60110  0.49060  0.41830  Biso   1.000  H
  H2370    1.0000 0.39890  0.99060  0.08170  Biso   1.000  H
  H2371    1.0000 0.89890  0.50940  0.91830  Biso   1.000  H
  H2372    1.0000 0.10110  0.00940  0.58170  Biso   1.000  H
  H2373    1.0000 0.49060  0.41830  0.60110  Biso   1.000  H
  H2374    1.0000 0.99060  0.08170  0.39890  Biso   1.000  H
  H2375    1.0000 0.50940  0.91830  0.89890  Biso   1.000  H
  H2376    1.0000 0.00940  0.58170  0.10110  Biso   1.000  H
  H2377    1.0000 0.85110  0.66830  0.74060  Biso   1.000  H
  H2378    1.0000 0.64890  0.33170  0.24060  Biso   1.000  H
  H2379    1.0000 0.14890  0.16830  0.75940  Biso   1.000  H
  H2380    1.0000 0.35110  0.83170  0.25940  Biso   1.000  H
  H2381    1.0000 0.74060  0.85110  0.66830  Biso   1.000  H
  H2382    1.0000 0.24060  0.64890  0.33170  Biso   1.000  H
  H2383    1.0000 0.75940  0.14890  0.16830  Biso   1.000  H
  H2384    1.0000 0.25940  0.35110  0.83170  Biso   1.000  H
  H2385    1.0000 0.66830  0.74060  0.85110  Biso   1.000  H
  H2386    1.0000 0.33170  0.24060  0.64890  Biso   1.000  H
  H2387    1.0000 0.16830  0.75940  0.14890  Biso   1.000  H
  H2388    1.0000 0.83170  0.25940  0.35110  Biso   1.000  H
  H2389    1.0000 0.91830  0.10110  0.99060  Biso   1.000  H
  H2390    1.0000 0.58170  0.89890  0.49060  Biso   1.000  H
  H2391    1.0000 0.41830  0.39890  0.00940  Biso   1.000  H
  H2392    1.0000 0.08170  0.60110  0.50940  Biso   1.000  H
  H2393    1.0000 0.10110  0.99060  0.91830  Biso   1.000  H
  H2394    1.0000 0.89890  0.49060  0.58170  Biso   1.000  H
  H2395    1.0000 0.39890  0.00940  0.41830  Biso   1.000  H
  H2396    1.0000 0.60110  0.50940  0.08170  Biso   1.000  H
  H2397    1.0000 0.99060  0.91830  0.10110  Biso   1.000  H
  H2398    1.0000 0.49060  0.58170  0.89890  Biso   1.000  H
  H2399    1.0000 0.00940  0.41830  0.39890  Biso   1.000  H
  H2400    1.0000 0.50940  0.08170  0.60110  Biso   1.000  H
  C1873    1.0000 0.35757  0.11579  0.98906  Biso   1.000  C
  C1874    1.0000 0.14243  0.88421  0.48906  Biso   1.000  C
  C1875    1.0000 0.64243  0.61579  0.51094  Biso   1.000  C
  C1876    1.0000 0.85757  0.38421  0.01094  Biso   1.000  C
  C1877    1.0000 0.98906  0.35757  0.11579  Biso   1.000  C
  C1878    1.0000 0.48906  0.14243  0.88421  Biso   1.000  C
  C1879    1.0000 0.51094  0.64243  0.61579  Biso   1.000  C
  C1880    1.0000 0.01094  0.85757  0.38421  Biso   1.000  C
  C1881    1.0000 0.11579  0.98906  0.35757  Biso   1.000  C
  C1882    1.0000 0.88421  0.48906  0.14243  Biso   1.000  C
  C1883    1.0000 0.61579  0.51094  0.64243  Biso   1.000  C
  C1884    1.0000 0.38421  0.01094  0.85757  Biso   1.000  C
  C1885    1.0000 0.36579  0.60757  0.23906  Biso   1.000  C
  C1886    1.0000 0.13421  0.39243  0.73906  Biso   1.000  C
  C1887    1.0000 0.86579  0.89243  0.76094  Biso   1.000  C
  C1888    1.0000 0.63421  0.10757  0.26094  Biso   1.000  C
  C1889    1.0000 0.60757  0.23906  0.36579  Biso   1.000  C
  C1890    1.0000 0.39243  0.73906  0.13421  Biso   1.000  C
  C1891    1.0000 0.89243  0.76094  0.86579  Biso   1.000  C
  C1892    1.0000 0.10757  0.26094  0.63421  Biso   1.000  C
  C1893    1.0000 0.23906  0.36579  0.60757  Biso   1.000  C
  C1894    1.0000 0.73906  0.13421  0.39243  Biso   1.000  C
  C1895    1.0000 0.76094  0.86579  0.89243  Biso   1.000  C
  C1896    1.0000 0.26094  0.63421  0.10757  Biso   1.000  C
  C1897    1.0000 0.85757  0.61579  0.48906  Biso   1.000  C
  C1898    1.0000 0.64243  0.38421  0.98906  Biso   1.000  C
  C1899    1.0000 0.14243  0.11579  0.01094  Biso   1.000  C
  C1900    1.0000 0.35757  0.88421  0.51094  Biso   1.000  C
  C1901    1.0000 0.48906  0.85757  0.61579  Biso   1.000  C
  C1902    1.0000 0.98906  0.64243  0.38421  Biso   1.000  C
  C1903    1.0000 0.01094  0.14243  0.11579  Biso   1.000  C
  C1904    1.0000 0.51094  0.35757  0.88421  Biso   1.000  C
  C1905    1.0000 0.61579  0.48906  0.85757  Biso   1.000  C
  C1906    1.0000 0.38421  0.98906  0.64243  Biso   1.000  C
  C1907    1.0000 0.11579  0.01094  0.14243  Biso   1.000  C
  C1908    1.0000 0.88421  0.51094  0.35757  Biso   1.000  C
  C1909    1.0000 0.86579  0.10757  0.73906  Biso   1.000  C
  C1910    1.0000 0.63421  0.89243  0.23906  Biso   1.000  C
  C1911    1.0000 0.36579  0.39243  0.26094  Biso   1.000  C
  C1912    1.0000 0.13421  0.60757  0.76094  Biso   1.000  C
  C1913    1.0000 0.10757  0.73906  0.86579  Biso   1.000  C
  C1914    1.0000 0.89243  0.23906  0.63421  Biso   1.000  C
  C1915    1.0000 0.39243  0.26094  0.36579  Biso   1.000  C
  C1916    1.0000 0.60757  0.76094  0.13421  Biso   1.000  C
  C1917    1.0000 0.73906  0.86579  0.10757  Biso   1.000  C
  C1918    1.0000 0.23906  0.63421  0.89243  Biso   1.000  C
  C1919    1.0000 0.26094  0.36579  0.39243  Biso   1.000  C
  C1920    1.0000 0.76094  0.13421  0.60757  Biso   1.000  C
  H2401    1.0000 0.35230  0.13910  0.97960  Biso   1.000  H
  H2402    1.0000 0.14770  0.86090  0.47960  Biso   1.000  H
  H2403    1.0000 0.64770  0.63910  0.52040  Biso   1.000  H
  H2404    1.0000 0.85230  0.36090  0.02040  Biso   1.000  H
  H2405    1.0000 0.97960  0.35230  0.13910  Biso   1.000  H
  H2406    1.0000 0.47960  0.14770  0.86090  Biso   1.000  H
  H2407    1.0000 0.52040  0.64770  0.63910  Biso   1.000  H
  H2408    1.0000 0.02040  0.85230  0.36090  Biso   1.000  H
  H2409    1.0000 0.13910  0.97960  0.35230  Biso   1.000  H
  H2410    1.0000 0.86090  0.47960  0.14770  Biso   1.000  H
  H2411    1.0000 0.63910  0.52040  0.64770  Biso   1.000  H
  H2412    1.0000 0.36090  0.02040  0.85230  Biso   1.000  H
  H2413    1.0000 0.38910  0.60230  0.22960  Biso   1.000  H
  H2414    1.0000 0.11090  0.39770  0.72960  Biso   1.000  H
  H2415    1.0000 0.88910  0.89770  0.77040  Biso   1.000  H
  H2416    1.0000 0.61090  0.10230  0.27040  Biso   1.000  H
  H2417    1.0000 0.60230  0.22960  0.38910  Biso   1.000  H
  H2418    1.0000 0.39770  0.72960  0.11090  Biso   1.000  H
  H2419    1.0000 0.89770  0.77040  0.88910  Biso   1.000  H
  H2420    1.0000 0.10230  0.27040  0.61090  Biso   1.000  H
  H2421    1.0000 0.22960  0.38910  0.60230  Biso   1.000  H
  H2422    1.0000 0.72960  0.11090  0.39770  Biso   1.000  H
  H2423    1.0000 0.77040  0.88910  0.89770  Biso   1.000  H
  H2424    1.0000 0.27040  0.61090  0.10230  Biso   1.000  H
  H2425    1.0000 0.85230  0.63910  0.47960  Biso   1.000  H
  H2426    1.0000 0.64770  0.36090  0.97960  Biso   1.000  H
  H2427    1.0000 0.14770  0.13910  0.02040  Biso   1.000  H
  H2428    1.0000 0.35230  0.86090  0.52040  Biso   1.000  H
  H2429    1.0000 0.47960  0.85230  0.63910  Biso   1.000  H
  H2430    1.0000 0.97960  0.64770  0.36090  Biso   1.000  H
  H2431    1.0000 0.02040  0.14770  0.13910  Biso   1.000  H
  H2432    1.0000 0.52040  0.35230  0.86090  Biso   1.000  H
  H2433    1.0000 0.63910  0.47960  0.85230  Biso   1.000  H
  H2434    1.0000 0.36090  0.97960  0.64770  Biso   1.000  H
  H2435    1.0000 0.13910  0.02040  0.14770  Biso   1.000  H
  H2436    1.0000 0.86090  0.52040  0.35230  Biso   1.000  H
  H2437    1.0000 0.88910  0.10230  0.72960  Biso   1.000  H
  H2438    1.0000 0.61090  0.89770  0.22960  Biso   1.000  H
  H2439    1.0000 0.38910  0.39770  0.27040  Biso   1.000  H
  H2440    1.0000 0.11090  0.60230  0.77040  Biso   1.000  H
  H2441    1.0000 0.10230  0.72960  0.88910  Biso   1.000  H
  H2442    1.0000 0.89770  0.22960  0.61090  Biso   1.000  H
  H2443    1.0000 0.39770  0.27040  0.38910  Biso   1.000  H
  H2444    1.0000 0.60230  0.77040  0.11090  Biso   1.000  H
  H2445    1.0000 0.72960  0.88910  0.10230  Biso   1.000  H
  H2446    1.0000 0.22960  0.61090  0.89770  Biso   1.000  H
  H2447    1.0000 0.27040  0.38910  0.39770  Biso   1.000  H
  H2448    1.0000 0.77040  0.11090  0.60230  Biso   1.000  H
  C1921    1.0000 0.32990  0.13323  0.27606  Biso   1.000  C
  C1922    1.0000 0.17010  0.86677  0.77606  Biso   1.000  C
  C1923    1.0000 0.67010  0.63323  0.22394  Biso   1.000  C
  C1924    1.0000 0.82990  0.36677  0.72394  Biso   1.000  C
  C1925    1.0000 0.27606  0.32990  0.13323  Biso   1.000  C
  C1926    1.0000 0.77606  0.17010  0.86677  Biso   1.000  C
  C1927    1.0000 0.22394  0.67010  0.63323  Biso   1.000  C
  C1928    1.0000 0.72394  0.82990  0.36677  Biso   1.000  C
  C1929    1.0000 0.13323  0.27606  0.32990  Biso   1.000  C
  C1930    1.0000 0.86677  0.77606  0.17010  Biso   1.000  C
  C1931    1.0000 0.63323  0.22394  0.67010  Biso   1.000  C
  C1932    1.0000 0.36677  0.72394  0.82990  Biso   1.000  C
  C1933    1.0000 0.38323  0.57990  0.52606  Biso   1.000  C
  C1934    1.0000 0.11677  0.42010  0.02606  Biso   1.000  C
  C1935    1.0000 0.88323  0.92010  0.47394  Biso   1.000  C
  C1936    1.0000 0.61677  0.07990  0.97394  Biso   1.000  C
  C1937    1.0000 0.57990  0.52606  0.38323  Biso   1.000  C
  C1938    1.0000 0.42010  0.02606  0.11677  Biso   1.000  C
  C1939    1.0000 0.92010  0.47394  0.88323  Biso   1.000  C
  C1940    1.0000 0.07990  0.97394  0.61677  Biso   1.000  C
  C1941    1.0000 0.52606  0.38323  0.57990  Biso   1.000  C
  C1942    1.0000 0.02606  0.11677  0.42010  Biso   1.000  C
  C1943    1.0000 0.47394  0.88323  0.92010  Biso   1.000  C
  C1944    1.0000 0.97394  0.61677  0.07990  Biso   1.000  C
  C1945    1.0000 0.82990  0.63323  0.77606  Biso   1.000  C
  C1946    1.0000 0.67010  0.36677  0.27606  Biso   1.000  C
  C1947    1.0000 0.17010  0.13323  0.72394  Biso   1.000  C
  C1948    1.0000 0.32990  0.86677  0.22394  Biso   1.000  C
  C1949    1.0000 0.77606  0.82990  0.63323  Biso   1.000  C
  C1950    1.0000 0.27606  0.67010  0.36677  Biso   1.000  C
  C1951    1.0000 0.72394  0.17010  0.13323  Biso   1.000  C
  C1952    1.0000 0.22394  0.32990  0.86677  Biso   1.000  C
  C1953    1.0000 0.63323  0.77606  0.82990  Biso   1.000  C
  C1954    1.0000 0.36677  0.27606  0.67010  Biso   1.000  C
  C1955    1.0000 0.13323  0.72394  0.17010  Biso   1.000  C
  C1956    1.0000 0.86677  0.22394  0.32990  Biso   1.000  C
  C1957    1.0000 0.88323  0.07990  0.02606  Biso   1.000  C
  C1958    1.0000 0.61677  0.92010  0.52606  Biso   1.000  C
  C1959    1.0000 0.38323  0.42010  0.97394  Biso   1.000  C
  C1960    1.0000 0.11677  0.57990  0.47394  Biso   1.000  C
  C1961    1.0000 0.07990  0.02606  0.88323  Biso   1.000  C
  C1962    1.0000 0.92010  0.52606  0.61677  Biso   1.000  C
  C1963    1.0000 0.42010  0.97394  0.38323  Biso   1.000  C
  C1964    1.0000 0.57990  0.47394  0.11677  Biso   1.000  C
  C1965    1.0000 0.02606  0.88323  0.07990  Biso   1.000  C
  C1966    1.0000 0.52606  0.61677  0.92010  Biso   1.000  C
  C1967    1.0000 0.97394  0.38323  0.42010  Biso   1.000  C
  C1968    1.0000 0.47394  0.11677  0.57990  Biso   1.000  C
  H2449    1.0000 0.32350  0.15120  0.29340  Biso   1.000  H
  H2450    1.0000 0.17650  0.84880  0.79340  Biso   1.000  H
  H2451    1.0000 0.67650  0.65120  0.20660  Biso   1.000  H
  H2452    1.0000 0.82350  0.34880  0.70660  Biso   1.000  H
  H2453    1.0000 0.29340  0.32350  0.15120  Biso   1.000  H
  H2454    1.0000 0.79340  0.17650  0.84880  Biso   1.000  H
  H2455    1.0000 0.20660  0.67650  0.65120  Biso   1.000  H
  H2456    1.0000 0.70660  0.82350  0.34880  Biso   1.000  H
  H2457    1.0000 0.15120  0.29340  0.32350  Biso   1.000  H
  H2458    1.0000 0.84880  0.79340  0.17650  Biso   1.000  H
  H2459    1.0000 0.65120  0.20660  0.67650  Biso   1.000  H
  H2460    1.0000 0.34880  0.70660  0.82350  Biso   1.000  H
  H2461    1.0000 0.40120  0.57350  0.54340  Biso   1.000  H
  H2462    1.0000 0.09880  0.42650  0.04340  Biso   1.000  H
  H2463    1.0000 0.90120  0.92650  0.45660  Biso   1.000  H
  H2464    1.0000 0.59880  0.07350  0.95660  Biso   1.000  H
  H2465    1.0000 0.57350  0.54340  0.40120  Biso   1.000  H
  H2466    1.0000 0.42650  0.04340  0.09880  Biso   1.000  H
  H2467    1.0000 0.92650  0.45660  0.90120  Biso   1.000  H
  H2468    1.0000 0.07350  0.95660  0.59880  Biso   1.000  H
  H2469    1.0000 0.54340  0.40120  0.57350  Biso   1.000  H
  H2470    1.0000 0.04340  0.09880  0.42650  Biso   1.000  H
  H2471    1.0000 0.45660  0.90120  0.92650  Biso   1.000  H
  H2472    1.0000 0.95660  0.59880  0.07350  Biso   1.000  H
  H2473    1.0000 0.82350  0.65120  0.79340  Biso   1.000  H
  H2474    1.0000 0.67650  0.34880  0.29340  Biso   1.000  H
  H2475    1.0000 0.17650  0.15120  0.70660  Biso   1.000  H
  H2476    1.0000 0.32350  0.84880  0.20660  Biso   1.000  H
  H2477    1.0000 0.79340  0.82350  0.65120  Biso   1.000  H
  H2478    1.0000 0.29340  0.67650  0.34880  Biso   1.000  H
  H2479    1.0000 0.70660  0.17650  0.15120  Biso   1.000  H
  H2480    1.0000 0.20660  0.32350  0.84880  Biso   1.000  H
  H2481    1.0000 0.65120  0.79340  0.82350  Biso   1.000  H
  H2482    1.0000 0.34880  0.29340  0.67650  Biso   1.000  H
  H2483    1.0000 0.15120  0.70660  0.17650  Biso   1.000  H
  H2484    1.0000 0.84880  0.20660  0.32350  Biso   1.000  H
  H2485    1.0000 0.90120  0.07350  0.04340  Biso   1.000  H
  H2486    1.0000 0.59880  0.92650  0.54340  Biso   1.000  H
  H2487    1.0000 0.40120  0.42650  0.95660  Biso   1.000  H
  H2488    1.0000 0.09880  0.57350  0.45660  Biso   1.000  H
  H2489    1.0000 0.07350  0.04340  0.90120  Biso   1.000  H
  H2490    1.0000 0.92650  0.54340  0.59880  Biso   1.000  H
  H2491    1.0000 0.42650  0.95660  0.40120  Biso   1.000  H
  H2492    1.0000 0.57350  0.45660  0.09880  Biso   1.000  H
  H2493    1.0000 0.04340  0.90120  0.07350  Biso   1.000  H
  H2494    1.0000 0.54340  0.59880  0.92650  Biso   1.000  H
  H2495    1.0000 0.95660  0.40120  0.42650  Biso   1.000  H
  H2496    1.0000 0.45660  0.09880  0.57350  Biso   1.000  H
  C1969    1.0000 0.39388  0.06215  0.98136  Biso   1.000  C
  C1970    1.0000 0.10612  0.93785  0.48136  Biso   1.000  C
  C1971    1.0000 0.60612  0.56215  0.51864  Biso   1.000  C
  C1972    1.0000 0.89388  0.43785  0.01864  Biso   1.000  C
  C1973    1.0000 0.98136  0.39388  0.06215  Biso   1.000  C
  C1974    1.0000 0.48136  0.10612  0.93785  Biso   1.000  C
  C1975    1.0000 0.51864  0.60612  0.56215  Biso   1.000  C
  C1976    1.0000 0.01864  0.89388  0.43785  Biso   1.000  C
  C1977    1.0000 0.06215  0.98136  0.39388  Biso   1.000  C
  C1978    1.0000 0.93785  0.48136  0.10612  Biso   1.000  C
  C1979    1.0000 0.56215  0.51864  0.60612  Biso   1.000  C
  C1980    1.0000 0.43785  0.01864  0.89388  Biso   1.000  C
  C1981    1.0000 0.31215  0.64388  0.23136  Biso   1.000  C
  C1982    1.0000 0.18785  0.35612  0.73136  Biso   1.000  C
  C1983    1.0000 0.81215  0.85612  0.76864  Biso   1.000  C
  C1984    1.0000 0.68785  0.14388  0.26864  Biso   1.000  C
  C1985    1.0000 0.64388  0.23136  0.31215  Biso   1.000  C
  C1986    1.0000 0.35612  0.73136  0.18785  Biso   1.000  C
  C1987    1.0000 0.85612  0.76864  0.81215  Biso   1.000  C
  C1988    1.0000 0.14388  0.26864  0.68785  Biso   1.000  C
  C1989    1.0000 0.23136  0.31215  0.64388  Biso   1.000  C
  C1990    1.0000 0.73136  0.18785  0.35612  Biso   1.000  C
  C1991    1.0000 0.76864  0.81215  0.85612  Biso   1.000  C
  C1992    1.0000 0.26864  0.68785  0.14388  Biso   1.000  C
  C1993    1.0000 0.89388  0.56215  0.48136  Biso   1.000  C
  C1994    1.0000 0.60612  0.43785  0.98136  Biso   1.000  C
  C1995    1.0000 0.10612  0.06215  0.01864  Biso   1.000  C
  C1996    1.0000 0.39388  0.93785  0.51864  Biso   1.000  C
  C1997    1.0000 0.48136  0.89388  0.56215  Biso   1.000  C
  C1998    1.0000 0.98136  0.60612  0.43785  Biso   1.000  C
  C1999    1.0000 0.01864  0.10612  0.06215  Biso   1.000  C
  C2000    1.0000 0.51864  0.39388  0.93785  Biso   1.000  C
  C2001    1.0000 0.56215  0.48136  0.89388  Biso   1.000  C
  C2002    1.0000 0.43785  0.98136  0.60612  Biso   1.000  C
  C2003    1.0000 0.06215  0.01864  0.10612  Biso   1.000  C
  C2004    1.0000 0.93785  0.51864  0.39388  Biso   1.000  C
  C2005    1.0000 0.81215  0.14388  0.73136  Biso   1.000  C
  C2006    1.0000 0.68785  0.85612  0.23136  Biso   1.000  C
  C2007    1.0000 0.31215  0.35612  0.26864  Biso   1.000  C
  C2008    1.0000 0.18785  0.64388  0.76864  Biso   1.000  C
  C2009    1.0000 0.14388  0.73136  0.81215  Biso   1.000  C
  C2010    1.0000 0.85612  0.23136  0.68785  Biso   1.000  C
  C2011    1.0000 0.35612  0.26864  0.31215  Biso   1.000  C
  C2012    1.0000 0.64388  0.76864  0.18785  Biso   1.000  C
  C2013    1.0000 0.73136  0.81215  0.14388  Biso   1.000  C
  C2014    1.0000 0.23136  0.68785  0.85612  Biso   1.000  C
  C2015    1.0000 0.26864  0.31215  0.35612  Biso   1.000  C
  C2016    1.0000 0.76864  0.18785  0.64388  Biso   1.000  C
  H2497    1.0000 0.41180  0.05110  0.96660  Biso   1.000  H
  H2498    1.0000 0.08820  0.94890  0.46660  Biso   1.000  H
  H2499    1.0000 0.58820  0.55110  0.53340  Biso   1.000  H
  H2500    1.0000 0.91180  0.44890  0.03340  Biso   1.000  H
  H2501    1.0000 0.96660  0.41180  0.05110  Biso   1.000  H
  H2502    1.0000 0.46660  0.08820  0.94890  Biso   1.000  H
  H2503    1.0000 0.53340  0.58820  0.55110  Biso   1.000  H
  H2504    1.0000 0.03340  0.91180  0.44890  Biso   1.000  H
  H2505    1.0000 0.05110  0.96660  0.41180  Biso   1.000  H
  H2506    1.0000 0.94890  0.46660  0.08820  Biso   1.000  H
  H2507    1.0000 0.55110  0.53340  0.58820  Biso   1.000  H
  H2508    1.0000 0.44890  0.03340  0.91180  Biso   1.000  H
  H2509    1.0000 0.30110  0.66180  0.21660  Biso   1.000  H
  H2510    1.0000 0.19890  0.33820  0.71660  Biso   1.000  H
  H2511    1.0000 0.80110  0.83820  0.78340  Biso   1.000  H
  H2512    1.0000 0.69890  0.16180  0.28340  Biso   1.000  H
  H2513    1.0000 0.66180  0.21660  0.30110  Biso   1.000  H
  H2514    1.0000 0.33820  0.71660  0.19890  Biso   1.000  H
  H2515    1.0000 0.83820  0.78340  0.80110  Biso   1.000  H
  H2516    1.0000 0.16180  0.28340  0.69890  Biso   1.000  H
  H2517    1.0000 0.21660  0.30110  0.66180  Biso   1.000  H
  H2518    1.0000 0.71660  0.19890  0.33820  Biso   1.000  H
  H2519    1.0000 0.78340  0.80110  0.83820  Biso   1.000  H
  H2520    1.0000 0.28340  0.69890  0.16180  Biso   1.000  H
  H2521    1.0000 0.91180  0.55110  0.46660  Biso   1.000  H
  H2522    1.0000 0.58820  0.44890  0.96660  Biso   1.000  H
  H2523    1.0000 0.08820  0.05110  0.03340  Biso   1.000  H
  H2524    1.0000 0.41180  0.94890  0.53340  Biso   1.000  H
  H2525    1.0000 0.46660  0.91180  0.55110  Biso   1.000  H
  H2526    1.0000 0.96660  0.58820  0.44890  Biso   1.000  H
  H2527    1.0000 0.03340  0.08820  0.05110  Biso   1.000  H
  H2528    1.0000 0.53340  0.41180  0.94890  Biso   1.000  H
  H2529    1.0000 0.55110  0.46660  0.91180  Biso   1.000  H
  H2530    1.0000 0.44890  0.96660  0.58820  Biso   1.000  H
  H2531    1.0000 0.05110  0.03340  0.08820  Biso   1.000  H
  H2532    1.0000 0.94890  0.53340  0.41180  Biso   1.000  H
  H2533    1.0000 0.80110  0.16180  0.71660  Biso   1.000  H
  H2534    1.0000 0.69890  0.83820  0.21660  Biso   1.000  H
  H2535    1.0000 0.30110  0.33820  0.28340  Biso   1.000  H
  H2536    1.0000 0.19890  0.66180  0.78340  Biso   1.000  H
  H2537    1.0000 0.16180  0.71660  0.80110  Biso   1.000  H
  H2538    1.0000 0.83820  0.21660  0.69890  Biso   1.000  H
  H2539    1.0000 0.33820  0.28340  0.30110  Biso   1.000  H
  H2540    1.0000 0.66180  0.78340  0.19890  Biso   1.000  H
  H2541    1.0000 0.71660  0.80110  0.16180  Biso   1.000  H
  H2542    1.0000 0.21660  0.69890  0.83820  Biso   1.000  H
  H2543    1.0000 0.28340  0.30110  0.33820  Biso   1.000  H
  H2544    1.0000 0.78340  0.19890  0.66180  Biso   1.000  H
  C2017    1.0000 0.17474  0.10775  0.27085  Biso   1.000  C
  C2018    1.0000 0.32526  0.89225  0.77085  Biso   1.000  C
  C2019    1.0000 0.82526  0.60775  0.22915  Biso   1.000  C
  C2020    1.0000 0.67474  0.39225  0.72915  Biso   1.000  C
  C2021    1.0000 0.27085  0.17474  0.10775  Biso   1.000  C
  C2022    1.0000 0.77085  0.32526  0.89225  Biso   1.000  C
  C2023    1.0000 0.22915  0.82526  0.60775  Biso   1.000  C
  C2024    1.0000 0.72915  0.67474  0.39225  Biso   1.000  C
  C2025    1.0000 0.10775  0.27085  0.17474  Biso   1.000  C
  C2026    1.0000 0.89225  0.77085  0.32526  Biso   1.000  C
  C2027    1.0000 0.60775  0.22915  0.82526  Biso   1.000  C
  C2028    1.0000 0.39225  0.72915  0.67474  Biso   1.000  C
  C2029    1.0000 0.35775  0.42474  0.52085  Biso   1.000  C
  C2030    1.0000 0.14225  0.57526  0.02085  Biso   1.000  C
  C2031    1.0000 0.85775  0.07526  0.47915  Biso   1.000  C
  C2032    1.0000 0.64225  0.92474  0.97915  Biso   1.000  C
  C2033    1.0000 0.42474  0.52085  0.35775  Biso   1.000  C
  C2034    1.0000 0.57526  0.02085  0.14225  Biso   1.000  C
  C2035    1.0000 0.07526  0.47915  0.85775  Biso   1.000  C
  C2036    1.0000 0.92474  0.97915  0.64225  Biso   1.000  C
  C2037    1.0000 0.52085  0.35775  0.42474  Biso   1.000  C
  C2038    1.0000 0.02085  0.14225  0.57526  Biso   1.000  C
  C2039    1.0000 0.47915  0.85775  0.07526  Biso   1.000  C
  C2040    1.0000 0.97915  0.64225  0.92474  Biso   1.000  C
  C2041    1.0000 0.67474  0.60775  0.77085  Biso   1.000  C
  C2042    1.0000 0.82526  0.39225  0.27085  Biso   1.000  C
  C2043    1.0000 0.32526  0.10775  0.72915  Biso   1.000  C
  C2044    1.0000 0.17474  0.89225  0.22915  Biso   1.000  C
  C2045    1.0000 0.77085  0.67474  0.60775  Biso   1.000  C
  C2046    1.0000 0.27085  0.82526  0.39225  Biso   1.000  C
  C2047    1.0000 0.72915  0.32526  0.10775  Biso   1.000  C
  C2048    1.0000 0.22915  0.17474  0.89225  Biso   1.000  C
  C2049    1.0000 0.60775  0.77085  0.67474  Biso   1.000  C
  C2050    1.0000 0.39225  0.27085  0.82526  Biso   1.000  C
  C2051    1.0000 0.10775  0.72915  0.32526  Biso   1.000  C
  C2052    1.0000 0.89225  0.22915  0.17474  Biso   1.000  C
  C2053    1.0000 0.85775  0.92474  0.02085  Biso   1.000  C
  C2054    1.0000 0.64225  0.07526  0.52085  Biso   1.000  C
  C2055    1.0000 0.35775  0.57526  0.97915  Biso   1.000  C
  C2056    1.0000 0.14225  0.42474  0.47915  Biso   1.000  C
  C2057    1.0000 0.92474  0.02085  0.85775  Biso   1.000  C
  C2058    1.0000 0.07526  0.52085  0.64225  Biso   1.000  C
  C2059    1.0000 0.57526  0.97915  0.35775  Biso   1.000  C
  C2060    1.0000 0.42474  0.47915  0.14225  Biso   1.000  C
  C2061    1.0000 0.02085  0.85775  0.92474  Biso   1.000  C
  C2062    1.0000 0.52085  0.64225  0.07526  Biso   1.000  C
  C2063    1.0000 0.97915  0.35775  0.57526  Biso   1.000  C
  C2064    1.0000 0.47915  0.14225  0.42474  Biso   1.000  C
  H2545    1.0000 0.19700  0.11730  0.26290  Biso   1.000  H
  H2546    1.0000 0.30300  0.88270  0.76290  Biso   1.000  H
  H2547    1.0000 0.80300  0.61730  0.23710  Biso   1.000  H
  H2548    1.0000 0.69700  0.38270  0.73710  Biso   1.000  H
  H2549    1.0000 0.26290  0.19700  0.11730  Biso   1.000  H
  H2550    1.0000 0.76290  0.30300  0.88270  Biso   1.000  H
  H2551    1.0000 0.23710  0.80300  0.61730  Biso   1.000  H
  H2552    1.0000 0.73710  0.69700  0.38270  Biso   1.000  H
  H2553    1.0000 0.11730  0.26290  0.19700  Biso   1.000  H
  H2554    1.0000 0.88270  0.76290  0.30300  Biso   1.000  H
  H2555    1.0000 0.61730  0.23710  0.80300  Biso   1.000  H
  H2556    1.0000 0.38270  0.73710  0.69700  Biso   1.000  H
  H2557    1.0000 0.36730  0.44700  0.51290  Biso   1.000  H
  H2558    1.0000 0.13270  0.55300  0.01290  Biso   1.000  H
  H2559    1.0000 0.86730  0.05300  0.48710  Biso   1.000  H
  H2560    1.0000 0.63270  0.94700  0.98710  Biso   1.000  H
  H2561    1.0000 0.44700  0.51290  0.36730  Biso   1.000  H
  H2562    1.0000 0.55300  0.01290  0.13270  Biso   1.000  H
  H2563    1.0000 0.05300  0.48710  0.86730  Biso   1.000  H
  H2564    1.0000 0.94700  0.98710  0.63270  Biso   1.000  H
  H2565    1.0000 0.51290  0.36730  0.44700  Biso   1.000  H
  H2566    1.0000 0.01290  0.13270  0.55300  Biso   1.000  H
  H2567    1.0000 0.48710  0.86730  0.05300  Biso   1.000  H
  H2568    1.0000 0.98710  0.63270  0.94700  Biso   1.000  H
  H2569    1.0000 0.69700  0.61730  0.76290  Biso   1.000  H
  H2570    1.0000 0.80300  0.38270  0.26290  Biso   1.000  H
  H2571    1.0000 0.30300  0.11730  0.73710  Biso   1.000  H
  H2572    1.0000 0.19700  0.88270  0.23710  Biso   1.000  H
  H2573    1.0000 0.76290  0.69700  0.61730  Biso   1.000  H
  H2574    1.0000 0.26290  0.80300  0.38270  Biso   1.000  H
  H2575    1.0000 0.73710  0.30300  0.11730  Biso   1.000  H
  H2576    1.0000 0.23710  0.19700  0.88270  Biso   1.000  H
  H2577    1.0000 0.61730  0.76290  0.69700  Biso   1.000  H
  H2578    1.0000 0.38270  0.26290  0.80300  Biso   1.000  H
  H2579    1.0000 0.11730  0.73710  0.30300  Biso   1.000  H
  H2580    1.0000 0.88270  0.23710  0.19700  Biso   1.000  H
  H2581    1.0000 0.86730  0.94700  0.01290  Biso   1.000  H
  H2582    1.0000 0.63270  0.05300  0.51290  Biso   1.000  H
  H2583    1.0000 0.36730  0.55300  0.98710  Biso   1.000  H
  H2584    1.0000 0.13270  0.44700  0.48710  Biso   1.000  H
  H2585    1.0000 0.94700  0.01290  0.86730  Biso   1.000  H
  H2586    1.0000 0.05300  0.51290  0.63270  Biso   1.000  H
  H2587    1.0000 0.55300  0.98710  0.36730  Biso   1.000  H
  H2588    1.0000 0.44700  0.48710  0.13270  Biso   1.000  H
  H2589    1.0000 0.01290  0.86730  0.94700  Biso   1.000  H
  H2590    1.0000 0.51290  0.63270  0.05300  Biso   1.000  H
  H2591    1.0000 0.98710  0.36730  0.55300  Biso   1.000  H
  H2592    1.0000 0.48710  0.13270  0.44700  Biso   1.000  H
  H2593    1.0000 0.17810  0.09850  0.29440  Biso   1.000  H
  H2594    1.0000 0.32190  0.90150  0.79440  Biso   1.000  H
  H2595    1.0000 0.82190  0.59850  0.20560  Biso   1.000  H
  H2596    1.0000 0.67810  0.40150  0.70560  Biso   1.000  H
  H2597    1.0000 0.29440  0.17810  0.09850  Biso   1.000  H
  H2598    1.0000 0.79440  0.32190  0.90150  Biso   1.000  H
  H2599    1.0000 0.20560  0.82190  0.59850  Biso   1.000  H
  H2600    1.0000 0.70560  0.67810  0.40150  Biso   1.000  H
  H2601    1.0000 0.09850  0.29440  0.17810  Biso   1.000  H
  H2602    1.0000 0.90150  0.79440  0.32190  Biso   1.000  H
  H2603    1.0000 0.59850  0.20560  0.82190  Biso   1.000  H
  H2604    1.0000 0.40150  0.70560  0.67810  Biso   1.000  H
  H2605    1.0000 0.34850  0.42810  0.54440  Biso   1.000  H
  H2606    1.0000 0.15150  0.57190  0.04440  Biso   1.000  H
  H2607    1.0000 0.84850  0.07190  0.45560  Biso   1.000  H
  H2608    1.0000 0.65150  0.92810  0.95560  Biso   1.000  H
  H2609    1.0000 0.42810  0.54440  0.34850  Biso   1.000  H
  H2610    1.0000 0.57190  0.04440  0.15150  Biso   1.000  H
  H2611    1.0000 0.07190  0.45560  0.84850  Biso   1.000  H
  H2612    1.0000 0.92810  0.95560  0.65150  Biso   1.000  H
  H2613    1.0000 0.54440  0.34850  0.42810  Biso   1.000  H
  H2614    1.0000 0.04440  0.15150  0.57190  Biso   1.000  H
  H2615    1.0000 0.45560  0.84850  0.07190  Biso   1.000  H
  H2616    1.0000 0.95560  0.65150  0.92810  Biso   1.000  H
  H2617    1.0000 0.67810  0.59850  0.79440  Biso   1.000  H
  H2618    1.0000 0.82190  0.40150  0.29440  Biso   1.000  H
  H2619    1.0000 0.32190  0.09850  0.70560  Biso   1.000  H
  H2620    1.0000 0.17810  0.90150  0.20560  Biso   1.000  H
  H2621    1.0000 0.79440  0.67810  0.59850  Biso   1.000  H
  H2622    1.0000 0.29440  0.82190  0.40150  Biso   1.000  H
  H2623    1.0000 0.70560  0.32190  0.09850  Biso   1.000  H
  H2624    1.0000 0.20560  0.17810  0.90150  Biso   1.000  H
  H2625    1.0000 0.59850  0.79440  0.67810  Biso   1.000  H
  H2626    1.0000 0.40150  0.29440  0.82190  Biso   1.000  H
  H2627    1.0000 0.09850  0.70560  0.32190  Biso   1.000  H
  H2628    1.0000 0.90150  0.20560  0.17810  Biso   1.000  H
  H2629    1.0000 0.84850  0.92810  0.04440  Biso   1.000  H
  H2630    1.0000 0.65150  0.07190  0.54440  Biso   1.000  H
  H2631    1.0000 0.34850  0.57190  0.95560  Biso   1.000  H
  H2632    1.0000 0.15150  0.42810  0.45560  Biso   1.000  H
  H2633    1.0000 0.92810  0.04440  0.84850  Biso   1.000  H
  H2634    1.0000 0.07190  0.54440  0.65150  Biso   1.000  H
  H2635    1.0000 0.57190  0.95560  0.34850  Biso   1.000  H
  H2636    1.0000 0.42810  0.45560  0.15150  Biso   1.000  H
  H2637    1.0000 0.04440  0.84850  0.92810  Biso   1.000  H
  H2638    1.0000 0.54440  0.65150  0.07190  Biso   1.000  H
  H2639    1.0000 0.95560  0.34850  0.57190  Biso   1.000  H
  H2640    1.0000 0.45560  0.15150  0.42810  Biso   1.000  H
  C2065    1.0000 0.13073  0.85524  0.01241  Biso   1.000  C
  C2066    1.0000 0.36927  0.14476  0.51241  Biso   1.000  C
  C2067    1.0000 0.86927  0.35524  0.48759  Biso   1.000  C
  C2068    1.0000 0.63073  0.64476  0.98759  Biso   1.000  C
  C2069    1.0000 0.01241  0.13073  0.85524  Biso   1.000  C
  C2070    1.0000 0.51241  0.36927  0.14476  Biso   1.000  C
  C2071    1.0000 0.48759  0.86927  0.35524  Biso   1.000  C
  C2072    1.0000 0.98759  0.63073  0.64476  Biso   1.000  C
  C2073    1.0000 0.85524  0.01241  0.13073  Biso   1.000  C
  C2074    1.0000 0.14476  0.51241  0.36927  Biso   1.000  C
  C2075    1.0000 0.35524  0.48759  0.86927  Biso   1.000  C
  C2076    1.0000 0.64476  0.98759  0.63073  Biso   1.000  C
  C2077    1.0000 0.10524  0.38073  0.26241  Biso   1.000  C
  C2078    1.0000 0.39476  0.61927  0.76241  Biso   1.000  C
  C2079    1.0000 0.60524  0.11927  0.73759  Biso   1.000  C
  C2080    1.0000 0.89476  0.88073  0.23759  Biso   1.000  C
  C2081    1.0000 0.38073  0.26241  0.10524  Biso   1.000  C
  C2082    1.0000 0.61927  0.76241  0.39476  Biso   1.000  C
  C2083    1.0000 0.11927  0.73759  0.60524  Biso   1.000  C
  C2084    1.0000 0.88073  0.23759  0.89476  Biso   1.000  C
  C2085    1.0000 0.26241  0.10524  0.38073  Biso   1.000  C
  C2086    1.0000 0.76241  0.39476  0.61927  Biso   1.000  C
  C2087    1.0000 0.73759  0.60524  0.11927  Biso   1.000  C
  C2088    1.0000 0.23759  0.89476  0.88073  Biso   1.000  C
  C2089    1.0000 0.63073  0.35524  0.51241  Biso   1.000  C
  C2090    1.0000 0.86927  0.64476  0.01241  Biso   1.000  C
  C2091    1.0000 0.36927  0.85524  0.98759  Biso   1.000  C
  C2092    1.0000 0.13073  0.14476  0.48759  Biso   1.000  C
  C2093    1.0000 0.51241  0.63073  0.35524  Biso   1.000  C
  C2094    1.0000 0.01241  0.86927  0.64476  Biso   1.000  C
  C2095    1.0000 0.98759  0.36927  0.85524  Biso   1.000  C
  C2096    1.0000 0.48759  0.13073  0.14476  Biso   1.000  C
  C2097    1.0000 0.35524  0.51241  0.63073  Biso   1.000  C
  C2098    1.0000 0.64476  0.01241  0.86927  Biso   1.000  C
  C2099    1.0000 0.85524  0.98759  0.36927  Biso   1.000  C
  C2100    1.0000 0.14476  0.48759  0.13073  Biso   1.000  C
  C2101    1.0000 0.60524  0.88073  0.76241  Biso   1.000  C
  C2102    1.0000 0.89476  0.11927  0.26241  Biso   1.000  C
  C2103    1.0000 0.10524  0.61927  0.23759  Biso   1.000  C
  C2104    1.0000 0.39476  0.38073  0.73759  Biso   1.000  C
  C2105    1.0000 0.88073  0.76241  0.60524  Biso   1.000  C
  C2106    1.0000 0.11927  0.26241  0.89476  Biso   1.000  C
  C2107    1.0000 0.61927  0.23759  0.10524  Biso   1.000  C
  C2108    1.0000 0.38073  0.73759  0.39476  Biso   1.000  C
  C2109    1.0000 0.76241  0.60524  0.88073  Biso   1.000  C
  C2110    1.0000 0.26241  0.89476  0.11927  Biso   1.000  C
  C2111    1.0000 0.23759  0.10524  0.61927  Biso   1.000  C
  C2112    1.0000 0.73759  0.39476  0.38073  Biso   1.000  C
  H2641    1.0000 0.14730  0.84570  0.02930  Biso   1.000  H
  H2642    1.0000 0.35270  0.15430  0.52930  Biso   1.000  H
  H2643    1.0000 0.85270  0.34570  0.47070  Biso   1.000  H
  H2644    1.0000 0.64730  0.65430  0.97070  Biso   1.000  H
  H2645    1.0000 0.02930  0.14730  0.84570  Biso   1.000  H
  H2646    1.0000 0.52930  0.35270  0.15430  Biso   1.000  H
  H2647    1.0000 0.47070  0.85270  0.34570  Biso   1.000  H
  H2648    1.0000 0.97070  0.64730  0.65430  Biso   1.000  H
  H2649    1.0000 0.84570  0.02930  0.14730  Biso   1.000  H
  H2650    1.0000 0.15430  0.52930  0.35270  Biso   1.000  H
  H2651    1.0000 0.34570  0.47070  0.85270  Biso   1.000  H
  H2652    1.0000 0.65430  0.97070  0.64730  Biso   1.000  H
  H2653    1.0000 0.09570  0.39730  0.27930  Biso   1.000  H
  H2654    1.0000 0.40430  0.60270  0.77930  Biso   1.000  H
  H2655    1.0000 0.59570  0.10270  0.72070  Biso   1.000  H
  H2656    1.0000 0.90430  0.89730  0.22070  Biso   1.000  H
  H2657    1.0000 0.39730  0.27930  0.09570  Biso   1.000  H
  H2658    1.0000 0.60270  0.77930  0.40430  Biso   1.000  H
  H2659    1.0000 0.10270  0.72070  0.59570  Biso   1.000  H
  H2660    1.0000 0.89730  0.22070  0.90430  Biso   1.000  H
  H2661    1.0000 0.27930  0.09570  0.39730  Biso   1.000  H
  H2662    1.0000 0.77930  0.40430  0.60270  Biso   1.000  H
  H2663    1.0000 0.72070  0.59570  0.10270  Biso   1.000  H
  H2664    1.0000 0.22070  0.90430  0.89730  Biso   1.000  H
  H2665    1.0000 0.64730  0.34570  0.52930  Biso   1.000  H
  H2666    1.0000 0.85270  0.65430  0.02930  Biso   1.000  H
  H2667    1.0000 0.35270  0.84570  0.97070  Biso   1.000  H
  H2668    1.0000 0.14730  0.15430  0.47070  Biso   1.000  H
  H2669    1.0000 0.52930  0.64730  0.34570  Biso   1.000  H
  H2670    1.0000 0.02930  0.85270  0.65430  Biso   1.000  H
  H2671    1.0000 0.97070  0.35270  0.84570  Biso   1.000  H
  H2672    1.0000 0.47070  0.14730  0.15430  Biso   1.000  H
  H2673    1.0000 0.34570  0.52930  0.64730  Biso   1.000  H
  H2674    1.0000 0.65430  0.02930  0.85270  Biso   1.000  H
  H2675    1.0000 0.84570  0.97070  0.35270  Biso   1.000  H
  H2676    1.0000 0.15430  0.47070  0.14730  Biso   1.000  H
  H2677    1.0000 0.59570  0.89730  0.77930  Biso   1.000  H
  H2678    1.0000 0.90430  0.10270  0.27930  Biso   1.000  H
  H2679    1.0000 0.09570  0.60270  0.22070  Biso   1.000  H
  H2680    1.0000 0.40430  0.39730  0.72070  Biso   1.000  H
  H2681    1.0000 0.89730  0.77930  0.59570  Biso   1.000  H
  H2682    1.0000 0.10270  0.27930  0.90430  Biso   1.000  H
  H2683    1.0000 0.60270  0.22070  0.09570  Biso   1.000  H
  H2684    1.0000 0.39730  0.72070  0.40430  Biso   1.000  H
  H2685    1.0000 0.77930  0.59570  0.89730  Biso   1.000  H
  H2686    1.0000 0.27930  0.90430  0.10270  Biso   1.000  H
  H2687    1.0000 0.22070  0.09570  0.60270  Biso   1.000  H
  H2688    1.0000 0.72070  0.40430  0.39730  Biso   1.000  H
  H2689    1.0000 0.11120  0.83900  0.01030  Biso   1.000  H
  H2690    1.0000 0.38880  0.16100  0.51030  Biso   1.000  H
  H2691    1.0000 0.88880  0.33900  0.48970  Biso   1.000  H
  H2692    1.0000 0.61120  0.66100  0.98970  Biso   1.000  H
  H2693    1.0000 0.01030  0.11120  0.83900  Biso   1.000  H
  H2694    1.0000 0.51030  0.38880  0.16100  Biso   1.000  H
  H2695    1.0000 0.48970  0.88880  0.33900  Biso   1.000  H
  H2696    1.0000 0.98970  0.61120  0.66100  Biso   1.000  H
  H2697    1.0000 0.83900  0.01030  0.11120  Biso   1.000  H
  H2698    1.0000 0.16100  0.51030  0.38880  Biso   1.000  H
  H2699    1.0000 0.33900  0.48970  0.88880  Biso   1.000  H
  H2700    1.0000 0.66100  0.98970  0.61120  Biso   1.000  H
  H2701    1.0000 0.08900  0.36120  0.26030  Biso   1.000  H
  H2702    1.0000 0.41100  0.63880  0.76030  Biso   1.000  H
  H2703    1.0000 0.58900  0.13880  0.73970  Biso   1.000  H
  H2704    1.0000 0.91100  0.86120  0.23970  Biso   1.000  H
  H2705    1.0000 0.36120  0.26030  0.08900  Biso   1.000  H
  H2706    1.0000 0.63880  0.76030  0.41100  Biso   1.000  H
  H2707    1.0000 0.13880  0.73970  0.58900  Biso   1.000  H
  H2708    1.0000 0.86120  0.23970  0.91100  Biso   1.000  H
  H2709    1.0000 0.26030  0.08900  0.36120  Biso   1.000  H
  H2710    1.0000 0.76030  0.41100  0.63880  Biso   1.000  H
  H2711    1.0000 0.73970  0.58900  0.13880  Biso   1.000  H
  H2712    1.0000 0.23970  0.91100  0.86120  Biso   1.000  H
  H2713    1.0000 0.61120  0.33900  0.51030  Biso   1.000  H
  H2714    1.0000 0.88880  0.66100  0.01030  Biso   1.000  H
  H2715    1.0000 0.38880  0.83900  0.98970  Biso   1.000  H
  H2716    1.0000 0.11120  0.16100  0.48970  Biso   1.000  H
  H2717    1.0000 0.51030  0.61120  0.33900  Biso   1.000  H
  H2718    1.0000 0.01030  0.88880  0.66100  Biso   1.000  H
  H2719    1.0000 0.98970  0.38880  0.83900  Biso   1.000  H
  H2720    1.0000 0.48970  0.11120  0.16100  Biso   1.000  H
  H2721    1.0000 0.33900  0.51030  0.61120  Biso   1.000  H
  H2722    1.0000 0.66100  0.01030  0.88880  Biso   1.000  H
  H2723    1.0000 0.83900  0.98970  0.38880  Biso   1.000  H
  H2724    1.0000 0.16100  0.48970  0.11120  Biso   1.000  H
  H2725    1.0000 0.58900  0.86120  0.76030  Biso   1.000  H
  H2726    1.0000 0.91100  0.13880  0.26030  Biso   1.000  H
  H2727    1.0000 0.08900  0.63880  0.23970  Biso   1.000  H
  H2728    1.0000 0.41100  0.36120  0.73970  Biso   1.000  H
  H2729    1.0000 0.86120  0.76030  0.58900  Biso   1.000  H
  H2730    1.0000 0.13880  0.26030  0.91100  Biso   1.000  H
  H2731    1.0000 0.63880  0.23970  0.08900  Biso   1.000  H
  H2732    1.0000 0.36120  0.73970  0.41100  Biso   1.000  H
  H2733    1.0000 0.76030  0.58900  0.86120  Biso   1.000  H
  H2734    1.0000 0.26030  0.91100  0.13880  Biso   1.000  H
  H2735    1.0000 0.23970  0.08900  0.63880  Biso   1.000  H
  H2736    1.0000 0.73970  0.41100  0.36120  Biso   1.000  H
  C2113    1.0000 0.09550  0.10789  0.22400  Biso   1.000  C
  C2114    1.0000 0.40450  0.89211  0.72400  Biso   1.000  C
  C2115    1.0000 0.90450  0.60789  0.27600  Biso   1.000  C
  C2116    1.0000 0.59550  0.39211  0.77600  Biso   1.000  C
  C2117    1.0000 0.22400  0.09550  0.10789  Biso   1.000  C
  C2118    1.0000 0.72400  0.40450  0.89211  Biso   1.000  C
  C2119    1.0000 0.27600  0.90450  0.60789  Biso   1.000  C
  C2120    1.0000 0.77600  0.59550  0.39211  Biso   1.000  C
  C2121    1.0000 0.10789  0.22400  0.09550  Biso   1.000  C
  C2122    1.0000 0.89211  0.72400  0.40450  Biso   1.000  C
  C2123    1.0000 0.60789  0.27600  0.90450  Biso   1.000  C
  C2124    1.0000 0.39211  0.77600  0.59550  Biso   1.000  C
  C2125    1.0000 0.35789  0.34550  0.47400  Biso   1.000  C
  C2126    1.0000 0.14211  0.65450  0.97400  Biso   1.000  C
  C2127    1.0000 0.85789  0.15450  0.52600  Biso   1.000  C
  C2128    1.0000 0.64211  0.84550  0.02600  Biso   1.000  C
  C2129    1.0000 0.34550  0.47400  0.35789  Biso   1.000  C
  C2130    1.0000 0.65450  0.97400  0.14211  Biso   1.000  C
  C2131    1.0000 0.15450  0.52600  0.85789  Biso   1.000  C
  C2132    1.0000 0.84550  0.02600  0.64211  Biso   1.000  C
  C2133    1.0000 0.47400  0.35789  0.34550  Biso   1.000  C
  C2134    1.0000 0.97400  0.14211  0.65450  Biso   1.000  C
  C2135    1.0000 0.52600  0.85789  0.15450  Biso   1.000  C
  C2136    1.0000 0.02600  0.64211  0.84550  Biso   1.000  C
  C2137    1.0000 0.59550  0.60789  0.72400  Biso   1.000  C
  C2138    1.0000 0.90450  0.39211  0.22400  Biso   1.000  C
  C2139    1.0000 0.40450  0.10789  0.77600  Biso   1.000  C
  C2140    1.0000 0.09550  0.89211  0.27600  Biso   1.000  C
  C2141    1.0000 0.72400  0.59550  0.60789  Biso   1.000  C
  C2142    1.0000 0.22400  0.90450  0.39211  Biso   1.000  C
  C2143    1.0000 0.77600  0.40450  0.10789  Biso   1.000  C
  C2144    1.0000 0.27600  0.09550  0.89211  Biso   1.000  C
  C2145    1.0000 0.60789  0.72400  0.59550  Biso   1.000  C
  C2146    1.0000 0.39211  0.22400  0.90450  Biso   1.000  C
  C2147    1.0000 0.10789  0.77600  0.40450  Biso   1.000  C
  C2148    1.0000 0.89211  0.27600  0.09550  Biso   1.000  C
  C2149    1.0000 0.85789  0.84550  0.97400  Biso   1.000  C
  C2150    1.0000 0.64211  0.15450  0.47400  Biso   1.000  C
  C2151    1.0000 0.35789  0.65450  0.02600  Biso   1.000  C
  C2152    1.0000 0.14211  0.34550  0.52600  Biso   1.000  C
  C2153    1.0000 0.84550  0.97400  0.85789  Biso   1.000  C
  C2154    1.0000 0.15450  0.47400  0.64211  Biso   1.000  C
  C2155    1.0000 0.65450  0.02600  0.35789  Biso   1.000  C
  C2156    1.0000 0.34550  0.52600  0.14211  Biso   1.000  C
  C2157    1.0000 0.97400  0.85789  0.84550  Biso   1.000  C
  C2158    1.0000 0.47400  0.64211  0.15450  Biso   1.000  C
  C2159    1.0000 0.02600  0.35789  0.65450  Biso   1.000  C
  C2160    1.0000 0.52600  0.14211  0.34550  Biso   1.000  C
  H2737    1.0000 0.07780  0.12620  0.22430  Biso   1.000  H
  H2738    1.0000 0.42220  0.87380  0.72430  Biso   1.000  H
  H2739    1.0000 0.92220  0.62620  0.27570  Biso   1.000  H
  H2740    1.0000 0.57780  0.37380  0.77570  Biso   1.000  H
  H2741    1.0000 0.22430  0.07780  0.12620  Biso   1.000  H
  H2742    1.0000 0.72430  0.42220  0.87380  Biso   1.000  H
  H2743    1.0000 0.27570  0.92220  0.62620  Biso   1.000  H
  H2744    1.0000 0.77570  0.57780  0.37380  Biso   1.000  H
  H2745    1.0000 0.12620  0.22430  0.07780  Biso   1.000  H
  H2746    1.0000 0.87380  0.72430  0.42220  Biso   1.000  H
  H2747    1.0000 0.62620  0.27570  0.92220  Biso   1.000  H
  H2748    1.0000 0.37380  0.77570  0.57780  Biso   1.000  H
  H2749    1.0000 0.37620  0.32780  0.47430  Biso   1.000  H
  H2750    1.0000 0.12380  0.67220  0.97430  Biso   1.000  H
  H2751    1.0000 0.87620  0.17220  0.52570  Biso   1.000  H
  H2752    1.0000 0.62380  0.82780  0.02570  Biso   1.000  H
  H2753    1.0000 0.32780  0.47430  0.37620  Biso   1.000  H
  H2754    1.0000 0.67220  0.97430  0.12380  Biso   1.000  H
  H2755    1.0000 0.17220  0.52570  0.87620  Biso   1.000  H
  H2756    1.0000 0.82780  0.02570  0.62380  Biso   1.000  H
  H2757    1.0000 0.47430  0.37620  0.32780  Biso   1.000  H
  H2758    1.0000 0.97430  0.12380  0.67220  Biso   1.000  H
  H2759    1.0000 0.52570  0.87620  0.17220  Biso   1.000  H
  H2760    1.0000 0.02570  0.62380  0.82780  Biso   1.000  H
  H2761    1.0000 0.57780  0.62620  0.72430  Biso   1.000  H
  H2762    1.0000 0.92220  0.37380  0.22430  Biso   1.000  H
  H2763    1.0000 0.42220  0.12620  0.77570  Biso   1.000  H
  H2764    1.0000 0.07780  0.87380  0.27570  Biso   1.000  H
  H2765    1.0000 0.72430  0.57780  0.62620  Biso   1.000  H
  H2766    1.0000 0.22430  0.92220  0.37380  Biso   1.000  H
  H2767    1.0000 0.77570  0.42220  0.12620  Biso   1.000  H
  H2768    1.0000 0.27570  0.07780  0.87380  Biso   1.000  H
  H2769    1.0000 0.62620  0.72430  0.57780  Biso   1.000  H
  H2770    1.0000 0.37380  0.22430  0.92220  Biso   1.000  H
  H2771    1.0000 0.12620  0.77570  0.42220  Biso   1.000  H
  H2772    1.0000 0.87380  0.27570  0.07780  Biso   1.000  H
  H2773    1.0000 0.87620  0.82780  0.97430  Biso   1.000  H
  H2774    1.0000 0.62380  0.17220  0.47430  Biso   1.000  H
  H2775    1.0000 0.37620  0.67220  0.02570  Biso   1.000  H
  H2776    1.0000 0.12380  0.32780  0.52570  Biso   1.000  H
  H2777    1.0000 0.82780  0.97430  0.87620  Biso   1.000  H
  H2778    1.0000 0.17220  0.47430  0.62380  Biso   1.000  H
  H2779    1.0000 0.67220  0.02570  0.37620  Biso   1.000  H
  H2780    1.0000 0.32780  0.52570  0.12380  Biso   1.000  H
  H2781    1.0000 0.97430  0.87620  0.82780  Biso   1.000  H
  H2782    1.0000 0.47430  0.62380  0.17220  Biso   1.000  H
  H2783    1.0000 0.02570  0.37620  0.67220  Biso   1.000  H
  H2784    1.0000 0.52570  0.12380  0.32780  Biso   1.000  H
  H2785    1.0000 0.08750  0.08940  0.20840  Biso   1.000  H
  H2786    1.0000 0.41250  0.91060  0.70840  Biso   1.000  H
  H2787    1.0000 0.91250  0.58940  0.29160  Biso   1.000  H
  H2788    1.0000 0.58750  0.41060  0.79160  Biso   1.000  H
  H2789    1.0000 0.20840  0.08750  0.08940  Biso   1.000  H
  H2790    1.0000 0.70840  0.41250  0.91060  Biso   1.000  H
  H2791    1.0000 0.29160  0.91250  0.58940  Biso   1.000  H
  H2792    1.0000 0.79160  0.58750  0.41060  Biso   1.000  H
  H2793    1.0000 0.08940  0.20840  0.08750  Biso   1.000  H
  H2794    1.0000 0.91060  0.70840  0.41250  Biso   1.000  H
  H2795    1.0000 0.58940  0.29160  0.91250  Biso   1.000  H
  H2796    1.0000 0.41060  0.79160  0.58750  Biso   1.000  H
  H2797    1.0000 0.33940  0.33750  0.45840  Biso   1.000  H
  H2798    1.0000 0.16060  0.66250  0.95840  Biso   1.000  H
  H2799    1.0000 0.83940  0.16250  0.54160  Biso   1.000  H
  H2800    1.0000 0.66060  0.83750  0.04160  Biso   1.000  H
  H2801    1.0000 0.33750  0.45840  0.33940  Biso   1.000  H
  H2802    1.0000 0.66250  0.95840  0.16060  Biso   1.000  H
  H2803    1.0000 0.16250  0.54160  0.83940  Biso   1.000  H
  H2804    1.0000 0.83750  0.04160  0.66060  Biso   1.000  H
  H2805    1.0000 0.45840  0.33940  0.33750  Biso   1.000  H
  H2806    1.0000 0.95840  0.16060  0.66250  Biso   1.000  H
  H2807    1.0000 0.54160  0.83940  0.16250  Biso   1.000  H
  H2808    1.0000 0.04160  0.66060  0.83750  Biso   1.000  H
  H2809    1.0000 0.58750  0.58940  0.70840  Biso   1.000  H
  H2810    1.0000 0.91250  0.41060  0.20840  Biso   1.000  H
  H2811    1.0000 0.41250  0.08940  0.79160  Biso   1.000  H
  H2812    1.0000 0.08750  0.91060  0.29160  Biso   1.000  H
  H2813    1.0000 0.70840  0.58750  0.58940  Biso   1.000  H
  H2814    1.0000 0.20840  0.91250  0.41060  Biso   1.000  H
  H2815    1.0000 0.79160  0.41250  0.08940  Biso   1.000  H
  H2816    1.0000 0.29160  0.08750  0.91060  Biso   1.000  H
  H2817    1.0000 0.58940  0.70840  0.58750  Biso   1.000  H
  H2818    1.0000 0.41060  0.20840  0.91250  Biso   1.000  H
  H2819    1.0000 0.08940  0.79160  0.41250  Biso   1.000  H
  H2820    1.0000 0.91060  0.29160  0.08750  Biso   1.000  H
  H2821    1.0000 0.83940  0.83750  0.95840  Biso   1.000  H
  H2822    1.0000 0.66060  0.16250  0.45840  Biso   1.000  H
  H2823    1.0000 0.33940  0.66250  0.04160  Biso   1.000  H
  H2824    1.0000 0.16060  0.33750  0.54160  Biso   1.000  H
  H2825    1.0000 0.83750  0.95840  0.83940  Biso   1.000  H
  H2826    1.0000 0.16250  0.45840  0.66060  Biso   1.000  H
  H2827    1.0000 0.66250  0.04160  0.33940  Biso   1.000  H
  H2828    1.0000 0.33750  0.54160  0.16060  Biso   1.000  H
  H2829    1.0000 0.95840  0.83940  0.83750  Biso   1.000  H
  H2830    1.0000 0.45840  0.66060  0.16250  Biso   1.000  H
  H2831    1.0000 0.04160  0.33940  0.66250  Biso   1.000  H
  H2832    1.0000 0.54160  0.16060  0.33750  Biso   1.000  H
  C2161    1.0000 0.11270  0.12248  0.28449  Biso   1.000  C
  C2162    1.0000 0.38730  0.87752  0.78449  Biso   1.000  C
  C2163    1.0000 0.88730  0.62248  0.21551  Biso   1.000  C
  C2164    1.0000 0.61270  0.37752  0.71551  Biso   1.000  C
  C2165    1.0000 0.28449  0.11270  0.12248  Biso   1.000  C
  C2166    1.0000 0.78449  0.38730  0.87752  Biso   1.000  C
  C2167    1.0000 0.21551  0.88730  0.62248  Biso   1.000  C
  C2168    1.0000 0.71551  0.61270  0.37752  Biso   1.000  C
  C2169    1.0000 0.12248  0.28449  0.11270  Biso   1.000  C
  C2170    1.0000 0.87752  0.78449  0.38730  Biso   1.000  C
  C2171    1.0000 0.62248  0.21551  0.88730  Biso   1.000  C
  C2172    1.0000 0.37752  0.71551  0.61270  Biso   1.000  C
  C2173    1.0000 0.37248  0.36270  0.53449  Biso   1.000  C
  C2174    1.0000 0.12752  0.63730  0.03449  Biso   1.000  C
  C2175    1.0000 0.87248  0.13730  0.46551  Biso   1.000  C
  C2176    1.0000 0.62752  0.86270  0.96551  Biso   1.000  C
  C2177    1.0000 0.36270  0.53449  0.37248  Biso   1.000  C
  C2178    1.0000 0.63730  0.03449  0.12752  Biso   1.000  C
  C2179    1.0000 0.13730  0.46551  0.87248  Biso   1.000  C
  C2180    1.0000 0.86270  0.96551  0.62752  Biso   1.000  C
  C2181    1.0000 0.53449  0.37248  0.36270  Biso   1.000  C
  C2182    1.0000 0.03449  0.12752  0.63730  Biso   1.000  C
  C2183    1.0000 0.46551  0.87248  0.13730  Biso   1.000  C
  C2184    1.0000 0.96551  0.62752  0.86270  Biso   1.000  C
  C2185    1.0000 0.61270  0.62248  0.78449  Biso   1.000  C
  C2186    1.0000 0.88730  0.37752  0.28449  Biso   1.000  C
  C2187    1.0000 0.38730  0.12248  0.71551  Biso   1.000  C
  C2188    1.0000 0.11270  0.87752  0.21551  Biso   1.000  C
  C2189    1.0000 0.78449  0.61270  0.62248  Biso   1.000  C
  C2190    1.0000 0.28449  0.88730  0.37752  Biso   1.000  C
  C2191    1.0000 0.71551  0.38730  0.12248  Biso   1.000  C
  C2192    1.0000 0.21551  0.11270  0.87752  Biso   1.000  C
  C2193    1.0000 0.62248  0.78449  0.61270  Biso   1.000  C
  C2194    1.0000 0.37752  0.28449  0.88730  Biso   1.000  C
  C2195    1.0000 0.12248  0.71551  0.38730  Biso   1.000  C
  C2196    1.0000 0.87752  0.21551  0.11270  Biso   1.000  C
  C2197    1.0000 0.87248  0.86270  0.03449  Biso   1.000  C
  C2198    1.0000 0.62752  0.13730  0.53449  Biso   1.000  C
  C2199    1.0000 0.37248  0.63730  0.96551  Biso   1.000  C
  C2200    1.0000 0.12752  0.36270  0.46551  Biso   1.000  C
  C2201    1.0000 0.86270  0.03449  0.87248  Biso   1.000  C
  C2202    1.0000 0.13730  0.53449  0.62752  Biso   1.000  C
  C2203    1.0000 0.63730  0.96551  0.37248  Biso   1.000  C
  C2204    1.0000 0.36270  0.46551  0.12752  Biso   1.000  C
  C2205    1.0000 0.03449  0.87248  0.86270  Biso   1.000  C
  C2206    1.0000 0.53449  0.62752  0.13730  Biso   1.000  C
  C2207    1.0000 0.96551  0.37248  0.63730  Biso   1.000  C
  C2208    1.0000 0.46551  0.12752  0.36270  Biso   1.000  C
  H2833    1.0000 0.09530  0.14110  0.28540  Biso   1.000  H
  H2834    1.0000 0.40470  0.85890  0.78540  Biso   1.000  H
  H2835    1.0000 0.90470  0.64110  0.21460  Biso   1.000  H
  H2836    1.0000 0.59530  0.35890  0.71460  Biso   1.000  H
  H2837    1.0000 0.28540  0.09530  0.14110  Biso   1.000  H
  H2838    1.0000 0.78540  0.40470  0.85890  Biso   1.000  H
  H2839    1.0000 0.21460  0.90470  0.64110  Biso   1.000  H
  H2840    1.0000 0.71460  0.59530  0.35890  Biso   1.000  H
  H2841    1.0000 0.14110  0.28540  0.09530  Biso   1.000  H
  H2842    1.0000 0.85890  0.78540  0.40470  Biso   1.000  H
  H2843    1.0000 0.64110  0.21460  0.90470  Biso   1.000  H
  H2844    1.0000 0.35890  0.71460  0.59530  Biso   1.000  H
  H2845    1.0000 0.39110  0.34530  0.53540  Biso   1.000  H
  H2846    1.0000 0.10890  0.65470  0.03540  Biso   1.000  H
  H2847    1.0000 0.89110  0.15470  0.46460  Biso   1.000  H
  H2848    1.0000 0.60890  0.84530  0.96460  Biso   1.000  H
  H2849    1.0000 0.34530  0.53540  0.39110  Biso   1.000  H
  H2850    1.0000 0.65470  0.03540  0.10890  Biso   1.000  H
  H2851    1.0000 0.15470  0.46460  0.89110  Biso   1.000  H
  H2852    1.0000 0.84530  0.96460  0.60890  Biso   1.000  H
  H2853    1.0000 0.53540  0.39110  0.34530  Biso   1.000  H
  H2854    1.0000 0.03540  0.10890  0.65470  Biso   1.000  H
  H2855    1.0000 0.46460  0.89110  0.15470  Biso   1.000  H
  H2856    1.0000 0.96460  0.60890  0.84530  Biso   1.000  H
  H2857    1.0000 0.59530  0.64110  0.78540  Biso   1.000  H
  H2858    1.0000 0.90470  0.35890  0.28540  Biso   1.000  H
  H2859    1.0000 0.40470  0.14110  0.71460  Biso   1.000  H
  H2860    1.0000 0.09530  0.85890  0.21460  Biso   1.000  H
  H2861    1.0000 0.78540  0.59530  0.64110  Biso   1.000  H
  H2862    1.0000 0.28540  0.90470  0.35890  Biso   1.000  H
  H2863    1.0000 0.71460  0.40470  0.14110  Biso   1.000  H
  H2864    1.0000 0.21460  0.09530  0.85890  Biso   1.000  H
  H2865    1.0000 0.64110  0.78540  0.59530  Biso   1.000  H
  H2866    1.0000 0.35890  0.28540  0.90470  Biso   1.000  H
  H2867    1.0000 0.14110  0.71460  0.40470  Biso   1.000  H
  H2868    1.0000 0.85890  0.21460  0.09530  Biso   1.000  H
  H2869    1.0000 0.89110  0.84530  0.03540  Biso   1.000  H
  H2870    1.0000 0.60890  0.15470  0.53540  Biso   1.000  H
  H2871    1.0000 0.39110  0.65470  0.96460  Biso   1.000  H
  H2872    1.0000 0.10890  0.34530  0.46460  Biso   1.000  H
  H2873    1.0000 0.84530  0.03540  0.89110  Biso   1.000  H
  H2874    1.0000 0.15470  0.53540  0.60890  Biso   1.000  H
  H2875    1.0000 0.65470  0.96460  0.39110  Biso   1.000  H
  H2876    1.0000 0.34530  0.46460  0.10890  Biso   1.000  H
  H2877    1.0000 0.03540  0.89110  0.84530  Biso   1.000  H
  H2878    1.0000 0.53540  0.60890  0.15470  Biso   1.000  H
  H2879    1.0000 0.96460  0.39110  0.65470  Biso   1.000  H
  H2880    1.0000 0.46460  0.10890  0.34530  Biso   1.000  H
  H2881    1.0000 0.11570  0.11330  0.30810  Biso   1.000  H
  H2882    1.0000 0.38430  0.88670  0.80810  Biso   1.000  H
  H2883    1.0000 0.88430  0.61330  0.19190  Biso   1.000  H
  H2884    1.0000 0.61570  0.38670  0.69190  Biso   1.000  H
  H2885    1.0000 0.30810  0.11570  0.11330  Biso   1.000  H
  H2886    1.0000 0.80810  0.38430  0.88670  Biso   1.000  H
  H2887    1.0000 0.19190  0.88430  0.61330  Biso   1.000  H
  H2888    1.0000 0.69190  0.61570  0.38670  Biso   1.000  H
  H2889    1.0000 0.11330  0.30810  0.11570  Biso   1.000  H
  H2890    1.0000 0.88670  0.80810  0.38430  Biso   1.000  H
  H2891    1.0000 0.61330  0.19190  0.88430  Biso   1.000  H
  H2892    1.0000 0.38670  0.69190  0.61570  Biso   1.000  H
  H2893    1.0000 0.36330  0.36570  0.55810  Biso   1.000  H
  H2894    1.0000 0.13670  0.63430  0.05810  Biso   1.000  H
  H2895    1.0000 0.86330  0.13430  0.44190  Biso   1.000  H
  H2896    1.0000 0.63670  0.86570  0.94190  Biso   1.000  H
  H2897    1.0000 0.36570  0.55810  0.36330  Biso   1.000  H
  H2898    1.0000 0.63430  0.05810  0.13670  Biso   1.000  H
  H2899    1.0000 0.13430  0.44190  0.86330  Biso   1.000  H
  H2900    1.0000 0.86570  0.94190  0.63670  Biso   1.000  H
  H2901    1.0000 0.55810  0.36330  0.36570  Biso   1.000  H
  H2902    1.0000 0.05810  0.13670  0.63430  Biso   1.000  H
  H2903    1.0000 0.44190  0.86330  0.13430  Biso   1.000  H
  H2904    1.0000 0.94190  0.63670  0.86570  Biso   1.000  H
  H2905    1.0000 0.61570  0.61330  0.80810  Biso   1.000  H
  H2906    1.0000 0.88430  0.38670  0.30810  Biso   1.000  H
  H2907    1.0000 0.38430  0.11330  0.69190  Biso   1.000  H
  H2908    1.0000 0.11570  0.88670  0.19190  Biso   1.000  H
  H2909    1.0000 0.80810  0.61570  0.61330  Biso   1.000  H
  H2910    1.0000 0.30810  0.88430  0.38670  Biso   1.000  H
  H2911    1.0000 0.69190  0.38430  0.11330  Biso   1.000  H
  H2912    1.0000 0.19190  0.11570  0.88670  Biso   1.000  H
  H2913    1.0000 0.61330  0.80810  0.61570  Biso   1.000  H
  H2914    1.0000 0.38670  0.30810  0.88430  Biso   1.000  H
  H2915    1.0000 0.11330  0.69190  0.38430  Biso   1.000  H
  H2916    1.0000 0.88670  0.19190  0.11570  Biso   1.000  H
  H2917    1.0000 0.86330  0.86570  0.05810  Biso   1.000  H
  H2918    1.0000 0.63670  0.13430  0.55810  Biso   1.000  H
  H2919    1.0000 0.36330  0.63430  0.94190  Biso   1.000  H
  H2920    1.0000 0.13670  0.36570  0.44190  Biso   1.000  H
  H2921    1.0000 0.86570  0.05810  0.86330  Biso   1.000  H
  H2922    1.0000 0.13430  0.55810  0.63670  Biso   1.000  H
  H2923    1.0000 0.63430  0.94190  0.36330  Biso   1.000  H
  H2924    1.0000 0.36570  0.44190  0.13670  Biso   1.000  H
  H2925    1.0000 0.05810  0.86330  0.86570  Biso   1.000  H
  H2926    1.0000 0.55810  0.63670  0.13430  Biso   1.000  H
  H2927    1.0000 0.94190  0.36330  0.63430  Biso   1.000  H
  H2928    1.0000 0.44190  0.13670  0.36570  Biso   1.000  H
  C2209    1.0000 0.14873  0.85974  0.97666  Biso   1.000  C
  C2210    1.0000 0.35127  0.14026  0.47666  Biso   1.000  C
  C2211    1.0000 0.85127  0.35974  0.52334  Biso   1.000  C
  C2212    1.0000 0.64873  0.64026  0.02334  Biso   1.000  C
  C2213    1.0000 0.97666  0.14873  0.85974  Biso   1.000  C
  C2214    1.0000 0.47666  0.35127  0.14026  Biso   1.000  C
  C2215    1.0000 0.52334  0.85127  0.35974  Biso   1.000  C
  C2216    1.0000 0.02334  0.64873  0.64026  Biso   1.000  C
  C2217    1.0000 0.85974  0.97666  0.14873  Biso   1.000  C
  C2218    1.0000 0.14026  0.47666  0.35127  Biso   1.000  C
  C2219    1.0000 0.35974  0.52334  0.85127  Biso   1.000  C
  C2220    1.0000 0.64026  0.02334  0.64873  Biso   1.000  C
  C2221    1.0000 0.10974  0.39873  0.22666  Biso   1.000  C
  C2222    1.0000 0.39026  0.60127  0.72666  Biso   1.000  C
  C2223    1.0000 0.60974  0.10127  0.77334  Biso   1.000  C
  C2224    1.0000 0.89026  0.89873  0.27334  Biso   1.000  C
  C2225    1.0000 0.39873  0.22666  0.10974  Biso   1.000  C
  C2226    1.0000 0.60127  0.72666  0.39026  Biso   1.000  C
  C2227    1.0000 0.10127  0.77334  0.60974  Biso   1.000  C
  C2228    1.0000 0.89873  0.27334  0.89026  Biso   1.000  C
  C2229    1.0000 0.22666  0.10974  0.39873  Biso   1.000  C
  C2230    1.0000 0.72666  0.39026  0.60127  Biso   1.000  C
  C2231    1.0000 0.77334  0.60974  0.10127  Biso   1.000  C
  C2232    1.0000 0.27334  0.89026  0.89873  Biso   1.000  C
  C2233    1.0000 0.64873  0.35974  0.47666  Biso   1.000  C
  C2234    1.0000 0.85127  0.64026  0.97666  Biso   1.000  C
  C2235    1.0000 0.35127  0.85974  0.02334  Biso   1.000  C
  C2236    1.0000 0.14873  0.14026  0.52334  Biso   1.000  C
  C2237    1.0000 0.47666  0.64873  0.35974  Biso   1.000  C
  C2238    1.0000 0.97666  0.85127  0.64026  Biso   1.000  C
  C2239    1.0000 0.02334  0.35127  0.85974  Biso   1.000  C
  C2240    1.0000 0.52334  0.14873  0.14026  Biso   1.000  C
  C2241    1.0000 0.35974  0.47666  0.64873  Biso   1.000  C
  C2242    1.0000 0.64026  0.97666  0.85127  Biso   1.000  C
  C2243    1.0000 0.85974  0.02334  0.35127  Biso   1.000  C
  C2244    1.0000 0.14026  0.52334  0.14873  Biso   1.000  C
  C2245    1.0000 0.60974  0.89873  0.72666  Biso   1.000  C
  C2246    1.0000 0.89026  0.10127  0.22666  Biso   1.000  C
  C2247    1.0000 0.10974  0.60127  0.27334  Biso   1.000  C
  C2248    1.0000 0.39026  0.39873  0.77334  Biso   1.000  C
  C2249    1.0000 0.89873  0.72666  0.60974  Biso   1.000  C
  C2250    1.0000 0.10127  0.22666  0.89026  Biso   1.000  C
  C2251    1.0000 0.60127  0.27334  0.10974  Biso   1.000  C
  C2252    1.0000 0.39873  0.77334  0.39026  Biso   1.000  C
  C2253    1.0000 0.72666  0.60974  0.89873  Biso   1.000  C
  C2254    1.0000 0.22666  0.89026  0.10127  Biso   1.000  C
  C2255    1.0000 0.27334  0.10974  0.60127  Biso   1.000  C
  C2256    1.0000 0.77334  0.39026  0.39873  Biso   1.000  C
  H2929    1.0000 0.15670  0.83680  0.96810  Biso   1.000  H
  H2930    1.0000 0.34330  0.16320  0.46810  Biso   1.000  H
  H2931    1.0000 0.84330  0.33680  0.53190  Biso   1.000  H
  H2932    1.0000 0.65670  0.66320  0.03190  Biso   1.000  H
  H2933    1.0000 0.96810  0.15670  0.83680  Biso   1.000  H
  H2934    1.0000 0.46810  0.34330  0.16320  Biso   1.000  H
  H2935    1.0000 0.53190  0.84330  0.33680  Biso   1.000  H
  H2936    1.0000 0.03190  0.65670  0.66320  Biso   1.000  H
  H2937    1.0000 0.83680  0.96810  0.15670  Biso   1.000  H
  H2938    1.0000 0.16320  0.46810  0.34330  Biso   1.000  H
  H2939    1.0000 0.33680  0.53190  0.84330  Biso   1.000  H
  H2940    1.0000 0.66320  0.03190  0.65670  Biso   1.000  H
  H2941    1.0000 0.08680  0.40670  0.21810  Biso   1.000  H
  H2942    1.0000 0.41320  0.59330  0.71810  Biso   1.000  H
  H2943    1.0000 0.58680  0.09330  0.78190  Biso   1.000  H
  H2944    1.0000 0.91320  0.90670  0.28190  Biso   1.000  H
  H2945    1.0000 0.40670  0.21810  0.08680  Biso   1.000  H
  H2946    1.0000 0.59330  0.71810  0.41320  Biso   1.000  H
  H2947    1.0000 0.09330  0.78190  0.58680  Biso   1.000  H
  H2948    1.0000 0.90670  0.28190  0.91320  Biso   1.000  H
  H2949    1.0000 0.21810  0.08680  0.40670  Biso   1.000  H
  H2950    1.0000 0.71810  0.41320  0.59330  Biso   1.000  H
  H2951    1.0000 0.78190  0.58680  0.09330  Biso   1.000  H
  H2952    1.0000 0.28190  0.91320  0.90670  Biso   1.000  H
  H2953    1.0000 0.65670  0.33680  0.46810  Biso   1.000  H
  H2954    1.0000 0.84330  0.66320  0.96810  Biso   1.000  H
  H2955    1.0000 0.34330  0.83680  0.03190  Biso   1.000  H
  H2956    1.0000 0.15670  0.16320  0.53190  Biso   1.000  H
  H2957    1.0000 0.46810  0.65670  0.33680  Biso   1.000  H
  H2958    1.0000 0.96810  0.84330  0.66320  Biso   1.000  H
  H2959    1.0000 0.03190  0.34330  0.83680  Biso   1.000  H
  H2960    1.0000 0.53190  0.15670  0.16320  Biso   1.000  H
  H2961    1.0000 0.33680  0.46810  0.65670  Biso   1.000  H
  H2962    1.0000 0.66320  0.96810  0.84330  Biso   1.000  H
  H2963    1.0000 0.83680  0.03190  0.34330  Biso   1.000  H
  H2964    1.0000 0.16320  0.53190  0.15670  Biso   1.000  H
  H2965    1.0000 0.58680  0.90670  0.71810  Biso   1.000  H
  H2966    1.0000 0.91320  0.09330  0.21810  Biso   1.000  H
  H2967    1.0000 0.08680  0.59330  0.28190  Biso   1.000  H
  H2968    1.0000 0.41320  0.40670  0.78190  Biso   1.000  H
  H2969    1.0000 0.90670  0.71810  0.58680  Biso   1.000  H
  H2970    1.0000 0.09330  0.21810  0.91320  Biso   1.000  H
  H2971    1.0000 0.59330  0.28190  0.08680  Biso   1.000  H
  H2972    1.0000 0.40670  0.78190  0.41320  Biso   1.000  H
  H2973    1.0000 0.71810  0.58680  0.90670  Biso   1.000  H
  H2974    1.0000 0.21810  0.91320  0.09330  Biso   1.000  H
  H2975    1.0000 0.28190  0.08680  0.59330  Biso   1.000  H
  H2976    1.0000 0.78190  0.41320  0.40670  Biso   1.000  H
  C2257    1.0000 0.14340  0.15214  0.23480  Biso   1.000  C
  C2258    1.0000 0.35660  0.84786  0.73480  Biso   1.000  C
  C2259    1.0000 0.85660  0.65214  0.26520  Biso   1.000  C
  C2260    1.0000 0.64340  0.34786  0.76520  Biso   1.000  C
  C2261    1.0000 0.23480  0.14340  0.15214  Biso   1.000  C
  C2262    1.0000 0.73480  0.35660  0.84786  Biso   1.000  C
  C2263    1.0000 0.26520  0.85660  0.65214  Biso   1.000  C
  C2264    1.0000 0.76520  0.64340  0.34786  Biso   1.000  C
  C2265    1.0000 0.15214  0.23480  0.14340  Biso   1.000  C
  C2266    1.0000 0.84786  0.73480  0.35660  Biso   1.000  C
  C2267    1.0000 0.65214  0.26520  0.85660  Biso   1.000  C
  C2268    1.0000 0.34786  0.76520  0.64340  Biso   1.000  C
  C2269    1.0000 0.40214  0.39340  0.48480  Biso   1.000  C
  C2270    1.0000 0.09786  0.60660  0.98480  Biso   1.000  C
  C2271    1.0000 0.90214  0.10660  0.51520  Biso   1.000  C
  C2272    1.0000 0.59786  0.89340  0.01520  Biso   1.000  C
  C2273    1.0000 0.39340  0.48480  0.40214  Biso   1.000  C
  C2274    1.0000 0.60660  0.98480  0.09786  Biso   1.000  C
  C2275    1.0000 0.10660  0.51520  0.90214  Biso   1.000  C
  C2276    1.0000 0.89340  0.01520  0.59786  Biso   1.000  C
  C2277    1.0000 0.48480  0.40214  0.39340  Biso   1.000  C
  C2278    1.0000 0.98480  0.09786  0.60660  Biso   1.000  C
  C2279    1.0000 0.51520  0.90214  0.10660  Biso   1.000  C
  C2280    1.0000 0.01520  0.59786  0.89340  Biso   1.000  C
  C2281    1.0000 0.64340  0.65214  0.73480  Biso   1.000  C
  C2282    1.0000 0.85660  0.34786  0.23480  Biso   1.000  C
  C2283    1.0000 0.35660  0.15214  0.76520  Biso   1.000  C
  C2284    1.0000 0.14340  0.84786  0.26520  Biso   1.000  C
  C2285    1.0000 0.73480  0.64340  0.65214  Biso   1.000  C
  C2286    1.0000 0.23480  0.85660  0.34786  Biso   1.000  C
  C2287    1.0000 0.76520  0.35660  0.15214  Biso   1.000  C
  C2288    1.0000 0.26520  0.14340  0.84786  Biso   1.000  C
  C2289    1.0000 0.65214  0.73480  0.64340  Biso   1.000  C
  C2290    1.0000 0.34786  0.23480  0.85660  Biso   1.000  C
  C2291    1.0000 0.15214  0.76520  0.35660  Biso   1.000  C
  C2292    1.0000 0.84786  0.26520  0.14340  Biso   1.000  C
  C2293    1.0000 0.90214  0.89340  0.98480  Biso   1.000  C
  C2294    1.0000 0.59786  0.10660  0.48480  Biso   1.000  C
  C2295    1.0000 0.40214  0.60660  0.01520  Biso   1.000  C
  C2296    1.0000 0.09786  0.39340  0.51520  Biso   1.000  C
  C2297    1.0000 0.89340  0.98480  0.90214  Biso   1.000  C
  C2298    1.0000 0.10660  0.48480  0.59786  Biso   1.000  C
  C2299    1.0000 0.60660  0.01520  0.40214  Biso   1.000  C
  C2300    1.0000 0.39340  0.51520  0.09786  Biso   1.000  C
  C2301    1.0000 0.98480  0.90214  0.89340  Biso   1.000  C
  C2302    1.0000 0.48480  0.59786  0.10660  Biso   1.000  C
  C2303    1.0000 0.01520  0.40214  0.60660  Biso   1.000  C
  C2304    1.0000 0.51520  0.09786  0.39340  Biso   1.000  C
  H2977    1.0000 0.16600  0.16100  0.22690  Biso   1.000  H
  H2978    1.0000 0.33400  0.83900  0.72690  Biso   1.000  H
  H2979    1.0000 0.83400  0.66100  0.27310  Biso   1.000  H
  H2980    1.0000 0.66600  0.33900  0.77310  Biso   1.000  H
  H2981    1.0000 0.22690  0.16600  0.16100  Biso   1.000  H
  H2982    1.0000 0.72690  0.33400  0.83900  Biso   1.000  H
  H2983    1.0000 0.27310  0.83400  0.66100  Biso   1.000  H
  H2984    1.0000 0.77310  0.66600  0.33900  Biso   1.000  H
  H2985    1.0000 0.16100  0.22690  0.16600  Biso   1.000  H
  H2986    1.0000 0.83900  0.72690  0.33400  Biso   1.000  H
  H2987    1.0000 0.66100  0.27310  0.83400  Biso   1.000  H
  H2988    1.0000 0.33900  0.77310  0.66600  Biso   1.000  H
  H2989    1.0000 0.41100  0.41600  0.47690  Biso   1.000  H
  H2990    1.0000 0.08900  0.58400  0.97690  Biso   1.000  H
  H2991    1.0000 0.91100  0.08400  0.52310  Biso   1.000  H
  H2992    1.0000 0.58900  0.91600  0.02310  Biso   1.000  H
  H2993    1.0000 0.41600  0.47690  0.41100  Biso   1.000  H
  H2994    1.0000 0.58400  0.97690  0.08900  Biso   1.000  H
  H2995    1.0000 0.08400  0.52310  0.91100  Biso   1.000  H
  H2996    1.0000 0.91600  0.02310  0.58900  Biso   1.000  H
  H2997    1.0000 0.47690  0.41100  0.41600  Biso   1.000  H
  H2998    1.0000 0.97690  0.08900  0.58400  Biso   1.000  H
  H2999    1.0000 0.52310  0.91100  0.08400  Biso   1.000  H
  H3000    1.0000 0.02310  0.58900  0.91600  Biso   1.000  H
  H3001    1.0000 0.66600  0.66100  0.72690  Biso   1.000  H
  H3002    1.0000 0.83400  0.33900  0.22690  Biso   1.000  H
  H3003    1.0000 0.33400  0.16100  0.77310  Biso   1.000  H
  H3004    1.0000 0.16600  0.83900  0.27310  Biso   1.000  H
  H3005    1.0000 0.72690  0.66600  0.66100  Biso   1.000  H
  H3006    1.0000 0.22690  0.83400  0.33900  Biso   1.000  H
  H3007    1.0000 0.77310  0.33400  0.16100  Biso   1.000  H
  H3008    1.0000 0.27310  0.16600  0.83900  Biso   1.000  H
  H3009    1.0000 0.66100  0.72690  0.66600  Biso   1.000  H
  H3010    1.0000 0.33900  0.22690  0.83400  Biso   1.000  H
  H3011    1.0000 0.16100  0.77310  0.33400  Biso   1.000  H
  H3012    1.0000 0.83900  0.27310  0.16600  Biso   1.000  H
  H3013    1.0000 0.91100  0.91600  0.97690  Biso   1.000  H
  H3014    1.0000 0.58900  0.08400  0.47690  Biso   1.000  H
  H3015    1.0000 0.41100  0.58400  0.02310  Biso   1.000  H
  H3016    1.0000 0.08900  0.41600  0.52310  Biso   1.000  H
  H3017    1.0000 0.91600  0.97690  0.91100  Biso   1.000  H
  H3018    1.0000 0.08400  0.47690  0.58900  Biso   1.000  H
  H3019    1.0000 0.58400  0.02310  0.41100  Biso   1.000  H
  H3020    1.0000 0.41600  0.52310  0.08900  Biso   1.000  H
  H3021    1.0000 0.97690  0.91100  0.91600  Biso   1.000  H
  H3022    1.0000 0.47690  0.58900  0.08400  Biso   1.000  H
  H3023    1.0000 0.02310  0.41100  0.58400  Biso   1.000  H
  H3024    1.0000 0.52310  0.08900  0.41600  Biso   1.000  H
  H3025    1.0000 0.12680  0.17140  0.23500  Biso   1.000  H
  H3026    1.0000 0.37320  0.82860  0.73500  Biso   1.000  H
  H3027    1.0000 0.87320  0.67140  0.26500  Biso   1.000  H
  H3028    1.0000 0.62680  0.32860  0.76500  Biso   1.000  H
  H3029    1.0000 0.23500  0.12680  0.17140  Biso   1.000  H
  H3030    1.0000 0.73500  0.37320  0.82860  Biso   1.000  H
  H3031    1.0000 0.26500  0.87320  0.67140  Biso   1.000  H
  H3032    1.0000 0.76500  0.62680  0.32860  Biso   1.000  H
  H3033    1.0000 0.17140  0.23500  0.12680  Biso   1.000  H
  H3034    1.0000 0.82860  0.73500  0.37320  Biso   1.000  H
  H3035    1.0000 0.67140  0.26500  0.87320  Biso   1.000  H
  H3036    1.0000 0.32860  0.76500  0.62680  Biso   1.000  H
  H3037    1.0000 0.42140  0.37680  0.48500  Biso   1.000  H
  H3038    1.0000 0.07860  0.62320  0.98500  Biso   1.000  H
  H3039    1.0000 0.92140  0.12320  0.51500  Biso   1.000  H
  H3040    1.0000 0.57860  0.87680  0.01500  Biso   1.000  H
  H3041    1.0000 0.37680  0.48500  0.42140  Biso   1.000  H
  H3042    1.0000 0.62320  0.98500  0.07860  Biso   1.000  H
  H3043    1.0000 0.12320  0.51500  0.92140  Biso   1.000  H
  H3044    1.0000 0.87680  0.01500  0.57860  Biso   1.000  H
  H3045    1.0000 0.48500  0.42140  0.37680  Biso   1.000  H
  H3046    1.0000 0.98500  0.07860  0.62320  Biso   1.000  H
  H3047    1.0000 0.51500  0.92140  0.12320  Biso   1.000  H
  H3048    1.0000 0.01500  0.57860  0.87680  Biso   1.000  H
  H3049    1.0000 0.62680  0.67140  0.73500  Biso   1.000  H
  H3050    1.0000 0.87320  0.32860  0.23500  Biso   1.000  H
  H3051    1.0000 0.37320  0.17140  0.76500  Biso   1.000  H
  H3052    1.0000 0.12680  0.82860  0.26500  Biso   1.000  H
  H3053    1.0000 0.73500  0.62680  0.67140  Biso   1.000  H
  H3054    1.0000 0.23500  0.87320  0.32860  Biso   1.000  H
  H3055    1.0000 0.76500  0.37320  0.17140  Biso   1.000  H
  H3056    1.0000 0.26500  0.12680  0.82860  Biso   1.000  H
  H3057    1.0000 0.67140  0.73500  0.62680  Biso   1.000  H
  H3058    1.0000 0.32860  0.23500  0.87320  Biso   1.000  H
  H3059    1.0000 0.17140  0.76500  0.37320  Biso   1.000  H
  H3060    1.0000 0.82860  0.26500  0.12680  Biso   1.000  H
  H3061    1.0000 0.92140  0.87680  0.98500  Biso   1.000  H
  H3062    1.0000 0.57860  0.12320  0.48500  Biso   1.000  H
  H3063    1.0000 0.42140  0.62320  0.01500  Biso   1.000  H
  H3064    1.0000 0.07860  0.37680  0.51500  Biso   1.000  H
  H3065    1.0000 0.87680  0.98500  0.92140  Biso   1.000  H
  H3066    1.0000 0.12320  0.48500  0.57860  Biso   1.000  H
  H3067    1.0000 0.62320  0.01500  0.42140  Biso   1.000  H
  H3068    1.0000 0.37680  0.51500  0.07860  Biso   1.000  H
  H3069    1.0000 0.98500  0.92140  0.87680  Biso   1.000  H
  H3070    1.0000 0.48500  0.57860  0.12320  Biso   1.000  H
  H3071    1.0000 0.01500  0.42140  0.62320  Biso   1.000  H
  H3072    1.0000 0.51500  0.07860  0.37680  Biso   1.000  H
