data_image0
_cell_length_a       31.35
_cell_length_b       31.35
_cell_length_c       14.285
_cell_angle_alpha    90
_cell_angle_beta     90
_cell_angle_gamma    120

_symmetry_space_group_name_H-M    "P 1"
_symmetry_int_tables_number       1

loop_
  _symmetry_equiv_pos_as_xyz
  'x, y, z'

loop_
  _atom_site_label
  _atom_site_occupancy
  _atom_site_fract_x
  _atom_site_fract_y
  _atom_site_fract_z
  _atom_site_thermal_displace_type
  _atom_site_B_iso_or_equiv
  _atom_site_type_symbol
  Cu1      1.0000 0.51485  0.03713  0.07435  Biso   1.000  Cu
  Cu2      1.0000 0.96287  0.47772  0.07435  Biso   1.000  Cu
  Cu3      1.0000 0.52228  0.48515  0.07435  Biso   1.000  Cu
  Cu4      1.0000 0.18152  0.37046  0.40768  Biso   1.000  Cu
  Cu5      1.0000 0.62954  0.81105  0.40768  Biso   1.000  Cu
  Cu6      1.0000 0.18895  0.81848  0.40768  Biso   1.000  Cu
  Cu7      1.0000 0.84818  0.70380  0.74102  Biso   1.000  Cu
  Cu8      1.0000 0.29620  0.14439  0.74102  Biso   1.000  Cu
  Cu9      1.0000 0.85561  0.15182  0.74102  Biso   1.000  Cu
  Cu10     1.0000 0.48515  0.96287  0.92565  Biso   1.000  Cu
  Cu11     1.0000 0.03713  0.52228  0.92565  Biso   1.000  Cu
  Cu12     1.0000 0.47772  0.51485  0.92565  Biso   1.000  Cu
  Cu13     1.0000 0.15182  0.29620  0.25898  Biso   1.000  Cu
  Cu14     1.0000 0.70380  0.85561  0.25898  Biso   1.000  Cu
  Cu15     1.0000 0.14439  0.84818  0.25898  Biso   1.000  Cu
  Cu16     1.0000 0.81848  0.62954  0.59232  Biso   1.000  Cu
  Cu17     1.0000 0.37046  0.18895  0.59232  Biso   1.000  Cu
  Cu18     1.0000 0.81105  0.18152  0.59232  Biso   1.000  Cu
  Cu19     1.0000 0.27016  0.87151  0.93108  Biso   1.000  Cu
  Cu20     1.0000 0.12849  0.39865  0.93108  Biso   1.000  Cu
  Cu21     1.0000 0.60135  0.72984  0.93108  Biso   1.000  Cu
  Cu22     1.0000 0.93683  0.20484  0.26441  Biso   1.000  Cu
  Cu23     1.0000 0.79516  0.73198  0.26441  Biso   1.000  Cu
  Cu24     1.0000 0.26802  0.06317  0.26441  Biso   1.000  Cu
  Cu25     1.0000 0.60349  0.53818  0.59775  Biso   1.000  Cu
  Cu26     1.0000 0.46182  0.06532  0.59775  Biso   1.000  Cu
  Cu27     1.0000 0.93468  0.39651  0.59775  Biso   1.000  Cu
  Cu28     1.0000 0.72984  0.12849  0.06892  Biso   1.000  Cu
  Cu29     1.0000 0.87151  0.60135  0.06892  Biso   1.000  Cu
  Cu30     1.0000 0.39865  0.27016  0.06892  Biso   1.000  Cu
  Cu31     1.0000 0.39651  0.46182  0.40225  Biso   1.000  Cu
  Cu32     1.0000 0.53818  0.93468  0.40225  Biso   1.000  Cu
  Cu33     1.0000 0.06532  0.60349  0.40225  Biso   1.000  Cu
  Cu34     1.0000 0.06317  0.79516  0.73559  Biso   1.000  Cu
  Cu35     1.0000 0.20484  0.26802  0.73559  Biso   1.000  Cu
  Cu36     1.0000 0.73198  0.93683  0.73559  Biso   1.000  Cu
  O1       1.0000 0.54350  0.09280  0.18360  Biso   1.000  O
  O2       1.0000 0.90720  0.45070  0.18360  Biso   1.000  O
  O3       1.0000 0.54930  0.45650  0.18360  Biso   1.000  O
  O4       1.0000 0.21017  0.42613  0.51693  Biso   1.000  O
  O5       1.0000 0.57387  0.78403  0.51693  Biso   1.000  O
  O6       1.0000 0.21597  0.78983  0.51693  Biso   1.000  O
  O7       1.0000 0.87683  0.75947  0.85027  Biso   1.000  O
  O8       1.0000 0.24053  0.11737  0.85027  Biso   1.000  O
  O9       1.0000 0.88263  0.12317  0.85027  Biso   1.000  O
  O10      1.0000 0.45650  0.90720  0.81640  Biso   1.000  O
  O11      1.0000 0.09280  0.54930  0.81640  Biso   1.000  O
  O12      1.0000 0.45070  0.54350  0.81640  Biso   1.000  O
  O13      1.0000 0.12317  0.24053  0.14973  Biso   1.000  O
  O14      1.0000 0.75947  0.88263  0.14973  Biso   1.000  O
  O15      1.0000 0.11737  0.87683  0.14973  Biso   1.000  O
  O16      1.0000 0.78983  0.57387  0.48307  Biso   1.000  O
  O17      1.0000 0.42613  0.21597  0.48307  Biso   1.000  O
  O18      1.0000 0.78403  0.21017  0.48307  Biso   1.000  O
  H1       1.0000 0.52860  0.10360  0.21870  Biso   1.000  H
  H2       1.0000 0.89640  0.42500  0.21870  Biso   1.000  H
  H3       1.0000 0.57500  0.47140  0.21870  Biso   1.000  H
  H4       1.0000 0.19527  0.43693  0.55203  Biso   1.000  H
  H5       1.0000 0.56307  0.75833  0.55203  Biso   1.000  H
  H6       1.0000 0.24167  0.80473  0.55203  Biso   1.000  H
  H7       1.0000 0.86193  0.77027  0.88537  Biso   1.000  H
  H8       1.0000 0.22973  0.09167  0.88537  Biso   1.000  H
  H9       1.0000 0.90833  0.13807  0.88537  Biso   1.000  H
  H10      1.0000 0.47140  0.89640  0.78130  Biso   1.000  H
  H11      1.0000 0.10360  0.57500  0.78130  Biso   1.000  H
  H12      1.0000 0.42500  0.52860  0.78130  Biso   1.000  H
  H13      1.0000 0.13807  0.22973  0.11463  Biso   1.000  H
  H14      1.0000 0.77027  0.90833  0.11463  Biso   1.000  H
  H15      1.0000 0.09167  0.86193  0.11463  Biso   1.000  H
  H16      1.0000 0.80473  0.56307  0.44797  Biso   1.000  H
  H17      1.0000 0.43693  0.24167  0.44797  Biso   1.000  H
  H18      1.0000 0.75833  0.19527  0.44797  Biso   1.000  H
  H19      1.0000 0.57260  0.11940  0.18980  Biso   1.000  H
  H20      1.0000 0.88060  0.45320  0.18980  Biso   1.000  H
  H21      1.0000 0.54680  0.42740  0.18980  Biso   1.000  H
  H22      1.0000 0.23927  0.45273  0.52313  Biso   1.000  H
  H23      1.0000 0.54727  0.78653  0.52313  Biso   1.000  H
  H24      1.0000 0.21347  0.76073  0.52313  Biso   1.000  H
  H25      1.0000 0.90593  0.78607  0.85647  Biso   1.000  H
  H26      1.0000 0.21393  0.11987  0.85647  Biso   1.000  H
  H27      1.0000 0.88013  0.09407  0.85647  Biso   1.000  H
  H28      1.0000 0.42740  0.88060  0.81020  Biso   1.000  H
  H29      1.0000 0.11940  0.54680  0.81020  Biso   1.000  H
  H30      1.0000 0.45320  0.57260  0.81020  Biso   1.000  H
  H31      1.0000 0.09407  0.21393  0.14353  Biso   1.000  H
  H32      1.0000 0.78607  0.88013  0.14353  Biso   1.000  H
  H33      1.0000 0.11987  0.90593  0.14353  Biso   1.000  H
  H34      1.0000 0.76073  0.54727  0.47687  Biso   1.000  H
  H35      1.0000 0.45273  0.21347  0.47687  Biso   1.000  H
  H36      1.0000 0.78653  0.23927  0.47687  Biso   1.000  H
  O19      1.0000 0.24870  0.93180  0.91350  Biso   1.000  O
  O20      1.0000 0.06820  0.31690  0.91350  Biso   1.000  O
  O21      1.0000 0.68310  0.75130  0.91350  Biso   1.000  O
  O22      1.0000 0.91537  0.26513  0.24683  Biso   1.000  O
  O23      1.0000 0.73487  0.65023  0.24683  Biso   1.000  O
  O24      1.0000 0.34977  0.08463  0.24683  Biso   1.000  O
  O25      1.0000 0.58203  0.59847  0.58017  Biso   1.000  O
  O26      1.0000 0.40153  0.98357  0.58017  Biso   1.000  O
  O27      1.0000 0.01643  0.41797  0.58017  Biso   1.000  O
  O28      1.0000 0.75130  0.06820  0.08650  Biso   1.000  O
  O29      1.0000 0.93180  0.68310  0.08650  Biso   1.000  O
  O30      1.0000 0.31690  0.24870  0.08650  Biso   1.000  O
  O31      1.0000 0.41797  0.40153  0.41983  Biso   1.000  O
  O32      1.0000 0.59847  0.01643  0.41983  Biso   1.000  O
  O33      1.0000 0.98357  0.58203  0.41983  Biso   1.000  O
  O34      1.0000 0.08463  0.73487  0.75317  Biso   1.000  O
  O35      1.0000 0.26513  0.34977  0.75317  Biso   1.000  O
  O36      1.0000 0.65023  0.91537  0.75317  Biso   1.000  O
  H37      1.0000 0.21620  0.92170  0.90210  Biso   1.000  H
  H38      1.0000 0.07830  0.29450  0.90210  Biso   1.000  H
  H39      1.0000 0.70550  0.78380  0.90210  Biso   1.000  H
  H40      1.0000 0.88287  0.25503  0.23543  Biso   1.000  H
  H41      1.0000 0.74497  0.62783  0.23543  Biso   1.000  H
  H42      1.0000 0.37217  0.11713  0.23543  Biso   1.000  H
  H43      1.0000 0.54953  0.58837  0.56877  Biso   1.000  H
  H44      1.0000 0.41163  0.96117  0.56877  Biso   1.000  H
  H45      1.0000 0.03883  0.45047  0.56877  Biso   1.000  H
  H46      1.0000 0.78380  0.07830  0.09790  Biso   1.000  H
  H47      1.0000 0.92170  0.70550  0.09790  Biso   1.000  H
  H48      1.0000 0.29450  0.21620  0.09790  Biso   1.000  H
  H49      1.0000 0.45047  0.41163  0.43123  Biso   1.000  H
  H50      1.0000 0.58837  0.03883  0.43123  Biso   1.000  H
  H51      1.0000 0.96117  0.54953  0.43123  Biso   1.000  H
  H52      1.0000 0.11713  0.74497  0.76457  Biso   1.000  H
  H53      1.0000 0.25503  0.37217  0.76457  Biso   1.000  H
  H54      1.0000 0.62783  0.88287  0.76457  Biso   1.000  H
  H55      1.0000 0.26670  0.95910  0.88000  Biso   1.000  H
  H56      1.0000 0.04090  0.30760  0.88000  Biso   1.000  H
  H57      1.0000 0.69240  0.73330  0.88000  Biso   1.000  H
  H58      1.0000 0.93337  0.29243  0.21333  Biso   1.000  H
  H59      1.0000 0.70757  0.64093  0.21333  Biso   1.000  H
  H60      1.0000 0.35907  0.06663  0.21333  Biso   1.000  H
  H61      1.0000 0.60003  0.62577  0.54667  Biso   1.000  H
  H62      1.0000 0.37423  0.97427  0.54667  Biso   1.000  H
  H63      1.0000 0.02573  0.39997  0.54667  Biso   1.000  H
  H64      1.0000 0.73330  0.04090  0.12000  Biso   1.000  H
  H65      1.0000 0.95910  0.69240  0.12000  Biso   1.000  H
  H66      1.0000 0.30760  0.26670  0.12000  Biso   1.000  H
  H67      1.0000 0.39997  0.37423  0.45333  Biso   1.000  H
  H68      1.0000 0.62577  0.02573  0.45333  Biso   1.000  H
  H69      1.0000 0.97427  0.60003  0.45333  Biso   1.000  H
  H70      1.0000 0.06663  0.70757  0.78667  Biso   1.000  H
  H71      1.0000 0.29243  0.35907  0.78667  Biso   1.000  H
  H72      1.0000 0.64093  0.93337  0.78667  Biso   1.000  H
  O37      1.0000 0.29410  0.87970  0.80240  Biso   1.000  O
  O38      1.0000 0.12030  0.41440  0.80240  Biso   1.000  O
  O39      1.0000 0.58560  0.70590  0.80240  Biso   1.000  O
  O40      1.0000 0.96077  0.21303  0.13573  Biso   1.000  O
  O41      1.0000 0.78697  0.74773  0.13573  Biso   1.000  O
  O42      1.0000 0.25227  0.03923  0.13573  Biso   1.000  O
  O43      1.0000 0.62743  0.54637  0.46907  Biso   1.000  O
  O44      1.0000 0.45363  0.08107  0.46907  Biso   1.000  O
  O45      1.0000 0.91893  0.37257  0.46907  Biso   1.000  O
  O46      1.0000 0.70590  0.12030  0.19760  Biso   1.000  O
  O47      1.0000 0.87970  0.58560  0.19760  Biso   1.000  O
  O48      1.0000 0.41440  0.29410  0.19760  Biso   1.000  O
  O49      1.0000 0.37257  0.45363  0.53093  Biso   1.000  O
  O50      1.0000 0.54637  0.91893  0.53093  Biso   1.000  O
  O51      1.0000 0.08107  0.62743  0.53093  Biso   1.000  O
  O52      1.0000 0.03923  0.78697  0.86427  Biso   1.000  O
  O53      1.0000 0.21303  0.25227  0.86427  Biso   1.000  O
  O54      1.0000 0.74773  0.96077  0.86427  Biso   1.000  O
  O55      1.0000 0.21030  0.81850  0.87870  Biso   1.000  O
  O56      1.0000 0.18150  0.39180  0.87870  Biso   1.000  O
  O57      1.0000 0.60820  0.78970  0.87870  Biso   1.000  O
  O58      1.0000 0.87697  0.15183  0.21203  Biso   1.000  O
  O59      1.0000 0.84817  0.72513  0.21203  Biso   1.000  O
  O60      1.0000 0.27487  0.12303  0.21203  Biso   1.000  O
  O61      1.0000 0.54363  0.48517  0.54537  Biso   1.000  O
  O62      1.0000 0.51483  0.05847  0.54537  Biso   1.000  O
  O63      1.0000 0.94153  0.45637  0.54537  Biso   1.000  O
  O64      1.0000 0.78970  0.18150  0.12130  Biso   1.000  O
  O65      1.0000 0.81850  0.60820  0.12130  Biso   1.000  O
  O66      1.0000 0.39180  0.21030  0.12130  Biso   1.000  O
  O67      1.0000 0.45637  0.51483  0.45463  Biso   1.000  O
  O68      1.0000 0.48517  0.94153  0.45463  Biso   1.000  O
  O69      1.0000 0.05847  0.54363  0.45463  Biso   1.000  O
  O70      1.0000 0.12303  0.84817  0.78797  Biso   1.000  O
  O71      1.0000 0.15183  0.27487  0.78797  Biso   1.000  O
  O72      1.0000 0.72513  0.87697  0.78797  Biso   1.000  O
  O73      1.0000 0.27180  0.84440  0.66400  Biso   1.000  O
  O74      1.0000 0.15560  0.42740  0.66400  Biso   1.000  O
  O75      1.0000 0.57260  0.72820  0.66400  Biso   1.000  O
  O76      1.0000 0.93847  0.17773  0.99733  Biso   1.000  O
  O77      1.0000 0.82227  0.76073  0.99733  Biso   1.000  O
  O78      1.0000 0.23927  0.06153  0.99733  Biso   1.000  O
  O79      1.0000 0.60513  0.51107  0.33067  Biso   1.000  O
  O80      1.0000 0.48893  0.09407  0.33067  Biso   1.000  O
  O81      1.0000 0.90593  0.39487  0.33067  Biso   1.000  O
  O82      1.0000 0.72820  0.15560  0.33600  Biso   1.000  O
  O83      1.0000 0.84440  0.57260  0.33600  Biso   1.000  O
  O84      1.0000 0.42740  0.27180  0.33600  Biso   1.000  O
  O85      1.0000 0.39487  0.48893  0.66933  Biso   1.000  O
  O86      1.0000 0.51107  0.90593  0.66933  Biso   1.000  O
  O87      1.0000 0.09407  0.60513  0.66933  Biso   1.000  O
  O88      1.0000 0.06153  0.82227  0.00267  Biso   1.000  O
  O89      1.0000 0.17773  0.23927  0.00267  Biso   1.000  O
  O90      1.0000 0.76073  0.93847  0.00267  Biso   1.000  O
  O91      1.0000 0.18270  0.77720  0.74210  Biso   1.000  O
  O92      1.0000 0.22280  0.40550  0.74210  Biso   1.000  O
  O93      1.0000 0.59450  0.81730  0.74210  Biso   1.000  O
  O94      1.0000 0.84937  0.11053  0.07543  Biso   1.000  O
  O95      1.0000 0.88947  0.73883  0.07543  Biso   1.000  O
  O96      1.0000 0.26117  0.15063  0.07543  Biso   1.000  O
  O97      1.0000 0.51603  0.44387  0.40877  Biso   1.000  O
  O98      1.0000 0.55613  0.07217  0.40877  Biso   1.000  O
  O99      1.0000 0.92783  0.48397  0.40877  Biso   1.000  O
  O100     1.0000 0.81730  0.22280  0.25790  Biso   1.000  O
  O101     1.0000 0.77720  0.59450  0.25790  Biso   1.000  O
  O102     1.0000 0.40550  0.18270  0.25790  Biso   1.000  O
  O103     1.0000 0.48397  0.55613  0.59123  Biso   1.000  O
  O104     1.0000 0.44387  0.92783  0.59123  Biso   1.000  O
  O105     1.0000 0.07217  0.51603  0.59123  Biso   1.000  O
  O106     1.0000 0.15063  0.88947  0.92457  Biso   1.000  O
  O107     1.0000 0.11053  0.26117  0.92457  Biso   1.000  O
  O108     1.0000 0.73883  0.84937  0.92457  Biso   1.000  O
  C1       1.0000 0.26390  0.84780  0.74670  Biso   1.000  C
  C2       1.0000 0.15220  0.41610  0.74670  Biso   1.000  C
  C3       1.0000 0.58390  0.73610  0.74670  Biso   1.000  C
  C4       1.0000 0.93057  0.18113  0.08003  Biso   1.000  C
  C5       1.0000 0.81887  0.74943  0.08003  Biso   1.000  C
  C6       1.0000 0.25057  0.06943  0.08003  Biso   1.000  C
  C7       1.0000 0.59723  0.51447  0.41337  Biso   1.000  C
  C8       1.0000 0.48553  0.08277  0.41337  Biso   1.000  C
  C9       1.0000 0.91723  0.40277  0.41337  Biso   1.000  C
  C10      1.0000 0.73610  0.15220  0.25330  Biso   1.000  C
  C11      1.0000 0.84780  0.58390  0.25330  Biso   1.000  C
  C12      1.0000 0.41610  0.26390  0.25330  Biso   1.000  C
  C13      1.0000 0.40277  0.48553  0.58663  Biso   1.000  C
  C14      1.0000 0.51447  0.91723  0.58663  Biso   1.000  C
  C15      1.0000 0.08277  0.59723  0.58663  Biso   1.000  C
  C16      1.0000 0.06943  0.81887  0.91997  Biso   1.000  C
  C17      1.0000 0.18113  0.25057  0.91997  Biso   1.000  C
  C18      1.0000 0.74943  0.93057  0.91997  Biso   1.000  C
  C19      1.0000 0.21340  0.81030  0.79070  Biso   1.000  C
  C20      1.0000 0.18970  0.40310  0.79070  Biso   1.000  C
  C21      1.0000 0.59690  0.78660  0.79070  Biso   1.000  C
  C22      1.0000 0.88007  0.14363  0.12403  Biso   1.000  C
  C23      1.0000 0.85637  0.73643  0.12403  Biso   1.000  C
  C24      1.0000 0.26357  0.11993  0.12403  Biso   1.000  C
  C25      1.0000 0.54673  0.47697  0.45737  Biso   1.000  C
  C26      1.0000 0.52303  0.06977  0.45737  Biso   1.000  C
  C27      1.0000 0.93023  0.45327  0.45737  Biso   1.000  C
  C28      1.0000 0.78660  0.18970  0.20930  Biso   1.000  C
  C29      1.0000 0.81030  0.59690  0.20930  Biso   1.000  C
  C30      1.0000 0.40310  0.21340  0.20930  Biso   1.000  C
  C31      1.0000 0.45327  0.52303  0.54263  Biso   1.000  C
  C32      1.0000 0.47697  0.93023  0.54263  Biso   1.000  C
  C33      1.0000 0.06977  0.54673  0.54263  Biso   1.000  C
  C34      1.0000 0.11993  0.85637  0.87597  Biso   1.000  C
  C35      1.0000 0.14363  0.26357  0.87597  Biso   1.000  C
  C36      1.0000 0.73643  0.88007  0.87597  Biso   1.000  C
  N1       1.0000 0.37440  0.02030  0.14740  Biso   1.000  N
  N2       1.0000 0.97970  0.35410  0.14740  Biso   1.000  N
  N3       1.0000 0.64590  0.62560  0.14740  Biso   1.000  N
  N4       1.0000 0.04107  0.35363  0.48073  Biso   1.000  N
  N5       1.0000 0.64637  0.68743  0.48073  Biso   1.000  N
  N6       1.0000 0.31257  0.95893  0.48073  Biso   1.000  N
  N7       1.0000 0.70773  0.68697  0.81407  Biso   1.000  N
  N8       1.0000 0.31303  0.02077  0.81407  Biso   1.000  N
  N9       1.0000 0.97923  0.29227  0.81407  Biso   1.000  N
  N10      1.0000 0.62560  0.97970  0.85260  Biso   1.000  N
  N11      1.0000 0.02030  0.64590  0.85260  Biso   1.000  N
  N12      1.0000 0.35410  0.37440  0.85260  Biso   1.000  N
  N13      1.0000 0.29227  0.31303  0.18593  Biso   1.000  N
  N14      1.0000 0.68697  0.97923  0.18593  Biso   1.000  N
  N15      1.0000 0.02077  0.70773  0.18593  Biso   1.000  N
  N16      1.0000 0.95893  0.64637  0.51927  Biso   1.000  N
  N17      1.0000 0.35363  0.31257  0.51927  Biso   1.000  N
  N18      1.0000 0.68743  0.04107  0.51927  Biso   1.000  N
  C37      1.0000 0.42010  0.03230  0.14600  Biso   1.000  C
  C38      1.0000 0.96770  0.38780  0.14600  Biso   1.000  C
  C39      1.0000 0.61220  0.57990  0.14600  Biso   1.000  C
  C40      1.0000 0.08677  0.36563  0.47933  Biso   1.000  C
  C41      1.0000 0.63437  0.72113  0.47933  Biso   1.000  C
  C42      1.0000 0.27887  0.91323  0.47933  Biso   1.000  C
  C43      1.0000 0.75343  0.69897  0.81267  Biso   1.000  C
  C44      1.0000 0.30103  0.05447  0.81267  Biso   1.000  C
  C45      1.0000 0.94553  0.24657  0.81267  Biso   1.000  C
  C46      1.0000 0.57990  0.96770  0.85400  Biso   1.000  C
  C47      1.0000 0.03230  0.61220  0.85400  Biso   1.000  C
  C48      1.0000 0.38780  0.42010  0.85400  Biso   1.000  C
  C49      1.0000 0.24657  0.30103  0.18733  Biso   1.000  C
  C50      1.0000 0.69897  0.94553  0.18733  Biso   1.000  C
  C51      1.0000 0.05447  0.75343  0.18733  Biso   1.000  C
  C52      1.0000 0.91323  0.63437  0.52067  Biso   1.000  C
  C53      1.0000 0.36563  0.27887  0.52067  Biso   1.000  C
  C54      1.0000 0.72113  0.08677  0.52067  Biso   1.000  C
  H73      1.0000 0.44750  0.06610  0.18240  Biso   1.000  H
  H74      1.0000 0.93390  0.38140  0.18240  Biso   1.000  H
  H75      1.0000 0.61860  0.55250  0.18240  Biso   1.000  H
  H76      1.0000 0.11417  0.39943  0.51573  Biso   1.000  H
  H77      1.0000 0.60057  0.71473  0.51573  Biso   1.000  H
  H78      1.0000 0.28527  0.88583  0.51573  Biso   1.000  H
  H79      1.0000 0.78083  0.73277  0.84907  Biso   1.000  H
  H80      1.0000 0.26723  0.04807  0.84907  Biso   1.000  H
  H81      1.0000 0.95193  0.21917  0.84907  Biso   1.000  H
  H82      1.0000 0.55250  0.93390  0.81760  Biso   1.000  H
  H83      1.0000 0.06610  0.61860  0.81760  Biso   1.000  H
  H84      1.0000 0.38140  0.44750  0.81760  Biso   1.000  H
  H85      1.0000 0.21917  0.26723  0.15093  Biso   1.000  H
  H86      1.0000 0.73277  0.95193  0.15093  Biso   1.000  H
  H87      1.0000 0.04807  0.78083  0.15093  Biso   1.000  H
  H88      1.0000 0.88583  0.60057  0.48427  Biso   1.000  H
  H89      1.0000 0.39943  0.28527  0.48427  Biso   1.000  H
  H90      1.0000 0.71473  0.11417  0.48427  Biso   1.000  H
  N19      1.0000 0.44330  0.01390  0.09250  Biso   1.000  N
  N20      1.0000 0.98610  0.42940  0.09250  Biso   1.000  N
  N21      1.0000 0.57060  0.55670  0.09250  Biso   1.000  N
  N22      1.0000 0.10997  0.34723  0.42583  Biso   1.000  N
  N23      1.0000 0.65277  0.76273  0.42583  Biso   1.000  N
  N24      1.0000 0.23727  0.89003  0.42583  Biso   1.000  N
  N25      1.0000 0.77663  0.68057  0.75917  Biso   1.000  N
  N26      1.0000 0.31943  0.09607  0.75917  Biso   1.000  N
  N27      1.0000 0.90393  0.22337  0.75917  Biso   1.000  N
  N28      1.0000 0.55670  0.98610  0.90750  Biso   1.000  N
  N29      1.0000 0.01390  0.57060  0.90750  Biso   1.000  N
  N30      1.0000 0.42940  0.44330  0.90750  Biso   1.000  N
  N31      1.0000 0.22337  0.31943  0.24083  Biso   1.000  N
  N32      1.0000 0.68057  0.90393  0.24083  Biso   1.000  N
  N33      1.0000 0.09607  0.77663  0.24083  Biso   1.000  N
  N34      1.0000 0.89003  0.65277  0.57417  Biso   1.000  N
  N35      1.0000 0.34723  0.23727  0.57417  Biso   1.000  N
  N36      1.0000 0.76273  0.10997  0.57417  Biso   1.000  N
  C55      1.0000 0.41030  0.97650  0.03670  Biso   1.000  C
  C56      1.0000 0.02350  0.43380  0.03670  Biso   1.000  C
  C57      1.0000 0.56620  0.58970  0.03670  Biso   1.000  C
  C58      1.0000 0.07697  0.30983  0.37003  Biso   1.000  C
  C59      1.0000 0.69017  0.76713  0.37003  Biso   1.000  C
  C60      1.0000 0.23287  0.92303  0.37003  Biso   1.000  C
  C61      1.0000 0.74363  0.64317  0.70337  Biso   1.000  C
  C62      1.0000 0.35683  0.10047  0.70337  Biso   1.000  C
  C63      1.0000 0.89953  0.25637  0.70337  Biso   1.000  C
  C64      1.0000 0.58970  0.02350  0.96330  Biso   1.000  C
  C65      1.0000 0.97650  0.56620  0.96330  Biso   1.000  C
  C66      1.0000 0.43380  0.41030  0.96330  Biso   1.000  C
  C67      1.0000 0.25637  0.35683  0.29663  Biso   1.000  C
  C68      1.0000 0.64317  0.89953  0.29663  Biso   1.000  C
  C69      1.0000 0.10047  0.74363  0.29663  Biso   1.000  C
  C70      1.0000 0.92303  0.69017  0.62997  Biso   1.000  C
  C71      1.0000 0.30983  0.23287  0.62997  Biso   1.000  C
  C72      1.0000 0.76713  0.07697  0.62997  Biso   1.000  C
  C73      1.0000 0.35930  0.95940  0.03550  Biso   1.000  C
  C74      1.0000 0.04060  0.39990  0.03550  Biso   1.000  C
  C75      1.0000 0.60010  0.64070  0.03550  Biso   1.000  C
  C76      1.0000 0.02597  0.29273  0.36883  Biso   1.000  C
  C77      1.0000 0.70727  0.73323  0.36883  Biso   1.000  C
  C78      1.0000 0.26677  0.97403  0.36883  Biso   1.000  C
  C79      1.0000 0.69263  0.62607  0.70217  Biso   1.000  C
  C80      1.0000 0.37393  0.06657  0.70217  Biso   1.000  C
  C81      1.0000 0.93343  0.30737  0.70217  Biso   1.000  C
  C82      1.0000 0.64070  0.04060  0.96450  Biso   1.000  C
  C83      1.0000 0.95940  0.60010  0.96450  Biso   1.000  C
  C84      1.0000 0.39990  0.35930  0.96450  Biso   1.000  C
  C85      1.0000 0.30737  0.37393  0.29783  Biso   1.000  C
  C86      1.0000 0.62607  0.93343  0.29783  Biso   1.000  C
  C87      1.0000 0.06657  0.69263  0.29783  Biso   1.000  C
  C88      1.0000 0.97403  0.70727  0.63117  Biso   1.000  C
  C89      1.0000 0.29273  0.26677  0.63117  Biso   1.000  C
  C90      1.0000 0.73323  0.02597  0.63117  Biso   1.000  C
  C91      1.0000 0.34090  0.98350  0.08990  Biso   1.000  C
  C92      1.0000 0.01650  0.35740  0.08990  Biso   1.000  C
  C93      1.0000 0.64260  0.65910  0.08990  Biso   1.000  C
  C94      1.0000 0.00757  0.31683  0.42323  Biso   1.000  C
  C95      1.0000 0.68317  0.69073  0.42323  Biso   1.000  C
  C96      1.0000 0.30927  0.99243  0.42323  Biso   1.000  C
  C97      1.0000 0.67423  0.65017  0.75657  Biso   1.000  C
  C98      1.0000 0.34983  0.02407  0.75657  Biso   1.000  C
  C99      1.0000 0.97593  0.32577  0.75657  Biso   1.000  C
  C100     1.0000 0.65910  0.01650  0.91010  Biso   1.000  C
  C101     1.0000 0.98350  0.64260  0.91010  Biso   1.000  C
  C102     1.0000 0.35740  0.34090  0.91010  Biso   1.000  C
  C103     1.0000 0.32577  0.34983  0.24343  Biso   1.000  C
  C104     1.0000 0.65017  0.97593  0.24343  Biso   1.000  C
  C105     1.0000 0.02407  0.67423  0.24343  Biso   1.000  C
  C106     1.0000 0.99243  0.68317  0.57677  Biso   1.000  C
  C107     1.0000 0.31683  0.30927  0.57677  Biso   1.000  C
  C108     1.0000 0.69073  0.00757  0.57677  Biso   1.000  C
  N37      1.0000 0.33750  0.92160  0.97150  Biso   1.000  N
  N38      1.0000 0.07840  0.41590  0.97150  Biso   1.000  N
  N39      1.0000 0.58410  0.66250  0.97150  Biso   1.000  N
  N40      1.0000 0.00417  0.25493  0.30483  Biso   1.000  N
  N41      1.0000 0.74507  0.74923  0.30483  Biso   1.000  N
  N42      1.0000 0.25077  0.99583  0.30483  Biso   1.000  N
  N43      1.0000 0.67083  0.58827  0.63817  Biso   1.000  N
  N44      1.0000 0.41173  0.08257  0.63817  Biso   1.000  N
  N45      1.0000 0.91743  0.32917  0.63817  Biso   1.000  N
  N46      1.0000 0.66250  0.07840  0.02850  Biso   1.000  N
  N47      1.0000 0.92160  0.58410  0.02850  Biso   1.000  N
  N48      1.0000 0.41590  0.33750  0.02850  Biso   1.000  N
  N49      1.0000 0.32917  0.41173  0.36183  Biso   1.000  N
  N50      1.0000 0.58827  0.91743  0.36183  Biso   1.000  N
  N51      1.0000 0.08257  0.67083  0.36183  Biso   1.000  N
  N52      1.0000 0.99583  0.74507  0.69517  Biso   1.000  N
  N53      1.0000 0.25493  0.25077  0.69517  Biso   1.000  N
  N54      1.0000 0.74923  0.00417  0.69517  Biso   1.000  N
  C109     1.0000 0.37610  0.92000  0.93510  Biso   1.000  C
  C110     1.0000 0.08000  0.45610  0.93510  Biso   1.000  C
  C111     1.0000 0.54390  0.62390  0.93510  Biso   1.000  C
  C112     1.0000 0.04277  0.25333  0.26843  Biso   1.000  C
  C113     1.0000 0.74667  0.78943  0.26843  Biso   1.000  C
  C114     1.0000 0.21057  0.95723  0.26843  Biso   1.000  C
  C115     1.0000 0.70943  0.58667  0.60177  Biso   1.000  C
  C116     1.0000 0.41333  0.12277  0.60177  Biso   1.000  C
  C117     1.0000 0.87723  0.29057  0.60177  Biso   1.000  C
  C118     1.0000 0.62390  0.08000  0.06490  Biso   1.000  C
  C119     1.0000 0.92000  0.54390  0.06490  Biso   1.000  C
  C120     1.0000 0.45610  0.37610  0.06490  Biso   1.000  C
  C121     1.0000 0.29057  0.41333  0.39823  Biso   1.000  C
  C122     1.0000 0.58667  0.87723  0.39823  Biso   1.000  C
  C123     1.0000 0.12277  0.70943  0.39823  Biso   1.000  C
  C124     1.0000 0.95723  0.74667  0.73157  Biso   1.000  C
  C125     1.0000 0.25333  0.21057  0.73157  Biso   1.000  C
  C126     1.0000 0.78943  0.04277  0.73157  Biso   1.000  C
  H91      1.0000 0.37290  0.89720  0.88290  Biso   1.000  H
  H92      1.0000 0.10280  0.47570  0.88290  Biso   1.000  H
  H93      1.0000 0.52430  0.62710  0.88290  Biso   1.000  H
  H94      1.0000 0.03957  0.23053  0.21623  Biso   1.000  H
  H95      1.0000 0.76947  0.80903  0.21623  Biso   1.000  H
  H96      1.0000 0.19097  0.96043  0.21623  Biso   1.000  H
  H97      1.0000 0.70623  0.56387  0.54957  Biso   1.000  H
  H98      1.0000 0.43613  0.14237  0.54957  Biso   1.000  H
  H99      1.0000 0.85763  0.29377  0.54957  Biso   1.000  H
  H100     1.0000 0.62710  0.10280  0.11710  Biso   1.000  H
  H101     1.0000 0.89720  0.52430  0.11710  Biso   1.000  H
  H102     1.0000 0.47570  0.37290  0.11710  Biso   1.000  H
  H103     1.0000 0.29377  0.43613  0.45043  Biso   1.000  H
  H104     1.0000 0.56387  0.85763  0.45043  Biso   1.000  H
  H105     1.0000 0.14237  0.70623  0.45043  Biso   1.000  H
  H106     1.0000 0.96043  0.76947  0.78377  Biso   1.000  H
  H107     1.0000 0.23053  0.19097  0.78377  Biso   1.000  H
  H108     1.0000 0.80903  0.03957  0.78377  Biso   1.000  H
  N55      1.0000 0.41980  0.95110  0.97390  Biso   1.000  N
  N56      1.0000 0.04890  0.46870  0.97390  Biso   1.000  N
  N57      1.0000 0.53130  0.58020  0.97390  Biso   1.000  N
  N58      1.0000 0.08647  0.28443  0.30723  Biso   1.000  N
  N59      1.0000 0.71557  0.80203  0.30723  Biso   1.000  N
  N60      1.0000 0.19797  0.91353  0.30723  Biso   1.000  N
  N61      1.0000 0.75313  0.61777  0.64057  Biso   1.000  N
  N62      1.0000 0.38223  0.13537  0.64057  Biso   1.000  N
  N63      1.0000 0.86463  0.24687  0.64057  Biso   1.000  N
  N64      1.0000 0.58020  0.04890  0.02610  Biso   1.000  N
  N65      1.0000 0.95110  0.53130  0.02610  Biso   1.000  N
  N66      1.0000 0.46870  0.41980  0.02610  Biso   1.000  N
  N67      1.0000 0.24687  0.38223  0.35943  Biso   1.000  N
  N68      1.0000 0.61777  0.86463  0.35943  Biso   1.000  N
  N69      1.0000 0.13537  0.75313  0.35943  Biso   1.000  N
  N70      1.0000 0.91353  0.71557  0.69277  Biso   1.000  N
  N71      1.0000 0.28443  0.19797  0.69277  Biso   1.000  N
  N72      1.0000 0.80203  0.08647  0.69277  Biso   1.000  N
  N73      1.0000 0.29460  0.97340  0.08860  Biso   1.000  N
  N74      1.0000 0.02660  0.32120  0.08860  Biso   1.000  N
  N75      1.0000 0.67880  0.70540  0.08860  Biso   1.000  N
  N76      1.0000 0.96127  0.30673  0.42193  Biso   1.000  N
  N77      1.0000 0.69327  0.65453  0.42193  Biso   1.000  N
  N78      1.0000 0.34547  0.03873  0.42193  Biso   1.000  N
  N79      1.0000 0.62793  0.64007  0.75527  Biso   1.000  N
  N80      1.0000 0.35993  0.98787  0.75527  Biso   1.000  N
  N81      1.0000 0.01213  0.37207  0.75527  Biso   1.000  N
  N82      1.0000 0.70540  0.02660  0.91140  Biso   1.000  N
  N83      1.0000 0.97340  0.67880  0.91140  Biso   1.000  N
  N84      1.0000 0.32120  0.29460  0.91140  Biso   1.000  N
  N85      1.0000 0.37207  0.35993  0.24473  Biso   1.000  N
  N86      1.0000 0.64007  0.01213  0.24473  Biso   1.000  N
  N87      1.0000 0.98787  0.62793  0.24473  Biso   1.000  N
  N88      1.0000 0.03873  0.69327  0.57807  Biso   1.000  N
  N89      1.0000 0.30673  0.34547  0.57807  Biso   1.000  N
  N90      1.0000 0.65453  0.96127  0.57807  Biso   1.000  N
  H109     1.0000 0.27320  0.95140  0.05340  Biso   1.000  H
  H110     1.0000 0.04860  0.32180  0.05340  Biso   1.000  H
  H111     1.0000 0.67820  0.72680  0.05340  Biso   1.000  H
  H112     1.0000 0.93987  0.28473  0.38673  Biso   1.000  H
  H113     1.0000 0.71527  0.65513  0.38673  Biso   1.000  H
  H114     1.0000 0.34487  0.06013  0.38673  Biso   1.000  H
  H115     1.0000 0.60653  0.61807  0.72007  Biso   1.000  H
  H116     1.0000 0.38193  0.98847  0.72007  Biso   1.000  H
  H117     1.0000 0.01153  0.39347  0.72007  Biso   1.000  H
  H118     1.0000 0.72680  0.04860  0.94660  Biso   1.000  H
  H119     1.0000 0.95140  0.67820  0.94660  Biso   1.000  H
  H120     1.0000 0.32180  0.27320  0.94660  Biso   1.000  H
  H121     1.0000 0.39347  0.38193  0.27993  Biso   1.000  H
  H122     1.0000 0.61807  0.01153  0.27993  Biso   1.000  H
  H123     1.0000 0.98847  0.60653  0.27993  Biso   1.000  H
  H124     1.0000 0.06013  0.71527  0.61327  Biso   1.000  H
  H125     1.0000 0.28473  0.34487  0.61327  Biso   1.000  H
  H126     1.0000 0.65513  0.93987  0.61327  Biso   1.000  H
  H127     1.0000 0.28620  0.99040  0.12520  Biso   1.000  H
  H128     1.0000 0.00960  0.29580  0.12520  Biso   1.000  H
  H129     1.0000 0.70420  0.71380  0.12520  Biso   1.000  H
  H130     1.0000 0.95287  0.32373  0.45853  Biso   1.000  H
  H131     1.0000 0.67627  0.62913  0.45853  Biso   1.000  H
  H132     1.0000 0.37087  0.04713  0.45853  Biso   1.000  H
  H133     1.0000 0.61953  0.65707  0.79187  Biso   1.000  H
  H134     1.0000 0.34293  0.96247  0.79187  Biso   1.000  H
  H135     1.0000 0.03753  0.38047  0.79187  Biso   1.000  H
  H136     1.0000 0.71380  0.00960  0.87480  Biso   1.000  H
  H137     1.0000 0.99040  0.70420  0.87480  Biso   1.000  H
  H138     1.0000 0.29580  0.28620  0.87480  Biso   1.000  H
  H139     1.0000 0.38047  0.34293  0.20813  Biso   1.000  H
  H140     1.0000 0.65707  0.03753  0.20813  Biso   1.000  H
  H141     1.0000 0.96247  0.61953  0.20813  Biso   1.000  H
  H142     1.0000 0.04713  0.67627  0.54147  Biso   1.000  H
  H143     1.0000 0.32373  0.37087  0.54147  Biso   1.000  H
  H144     1.0000 0.62913  0.95287  0.54147  Biso   1.000  H
  N91      1.0000 0.51190  0.15220  0.92010  Biso   1.000  N
  N92      1.0000 0.84780  0.35970  0.92010  Biso   1.000  N
  N93      1.0000 0.64030  0.48810  0.92010  Biso   1.000  N
  N94      1.0000 0.17857  0.48553  0.25343  Biso   1.000  N
  N95      1.0000 0.51447  0.69303  0.25343  Biso   1.000  N
  N96      1.0000 0.30697  0.82143  0.25343  Biso   1.000  N
  N97      1.0000 0.84523  0.81887  0.58677  Biso   1.000  N
  N98      1.0000 0.18113  0.02637  0.58677  Biso   1.000  N
  N99      1.0000 0.97363  0.15477  0.58677  Biso   1.000  N
  N100     1.0000 0.48810  0.84780  0.07990  Biso   1.000  N
  N101     1.0000 0.15220  0.64030  0.07990  Biso   1.000  N
  N102     1.0000 0.35970  0.51190  0.07990  Biso   1.000  N
  N103     1.0000 0.15477  0.18113  0.41323  Biso   1.000  N
  N104     1.0000 0.81887  0.97363  0.41323  Biso   1.000  N
  N105     1.0000 0.02637  0.84523  0.41323  Biso   1.000  N
  N106     1.0000 0.82143  0.51447  0.74657  Biso   1.000  N
  N107     1.0000 0.48553  0.30697  0.74657  Biso   1.000  N
  N108     1.0000 0.69303  0.17857  0.74657  Biso   1.000  N
  C127     1.0000 0.51760  0.12240  0.98230  Biso   1.000  C
  C128     1.0000 0.87760  0.39520  0.98230  Biso   1.000  C
  C129     1.0000 0.60480  0.48240  0.98230  Biso   1.000  C
  C130     1.0000 0.18427  0.45573  0.31563  Biso   1.000  C
  C131     1.0000 0.54427  0.72853  0.31563  Biso   1.000  C
  C132     1.0000 0.27147  0.81573  0.31563  Biso   1.000  C
  C133     1.0000 0.85093  0.78907  0.64897  Biso   1.000  C
  C134     1.0000 0.21093  0.06187  0.64897  Biso   1.000  C
  C135     1.0000 0.93813  0.14907  0.64897  Biso   1.000  C
  C136     1.0000 0.48240  0.87760  0.01770  Biso   1.000  C
  C137     1.0000 0.12240  0.60480  0.01770  Biso   1.000  C
  C138     1.0000 0.39520  0.51760  0.01770  Biso   1.000  C
  C139     1.0000 0.14907  0.21093  0.35103  Biso   1.000  C
  C140     1.0000 0.78907  0.93813  0.35103  Biso   1.000  C
  C141     1.0000 0.06187  0.85093  0.35103  Biso   1.000  C
  C142     1.0000 0.81573  0.54427  0.68437  Biso   1.000  C
  C143     1.0000 0.45573  0.27147  0.68437  Biso   1.000  C
  C144     1.0000 0.72853  0.18427  0.68437  Biso   1.000  C
  H145     1.0000 0.52320  0.13400  0.04410  Biso   1.000  H
  H146     1.0000 0.86600  0.38920  0.04410  Biso   1.000  H
  H147     1.0000 0.61080  0.47680  0.04410  Biso   1.000  H
  H148     1.0000 0.18987  0.46733  0.37743  Biso   1.000  H
  H149     1.0000 0.53267  0.72253  0.37743  Biso   1.000  H
  H150     1.0000 0.27747  0.81013  0.37743  Biso   1.000  H
  H151     1.0000 0.85653  0.80067  0.71077  Biso   1.000  H
  H152     1.0000 0.19933  0.05587  0.71077  Biso   1.000  H
  H153     1.0000 0.94413  0.14347  0.71077  Biso   1.000  H
  H154     1.0000 0.47680  0.86600  0.95590  Biso   1.000  H
  H155     1.0000 0.13400  0.61080  0.95590  Biso   1.000  H
  H156     1.0000 0.38920  0.52320  0.95590  Biso   1.000  H
  H157     1.0000 0.14347  0.19933  0.28923  Biso   1.000  H
  H158     1.0000 0.80067  0.94413  0.28923  Biso   1.000  H
  H159     1.0000 0.05587  0.85653  0.28923  Biso   1.000  H
  H160     1.0000 0.81013  0.53267  0.62257  Biso   1.000  H
  H161     1.0000 0.46733  0.27747  0.62257  Biso   1.000  H
  H162     1.0000 0.72253  0.18987  0.62257  Biso   1.000  H
  N109     1.0000 0.51350  0.08010  0.97090  Biso   1.000  N
  N110     1.0000 0.91990  0.43340  0.97090  Biso   1.000  N
  N111     1.0000 0.56660  0.48650  0.97090  Biso   1.000  N
  N112     1.0000 0.18017  0.41343  0.30423  Biso   1.000  N
  N113     1.0000 0.58657  0.76673  0.30423  Biso   1.000  N
  N114     1.0000 0.23327  0.81983  0.30423  Biso   1.000  N
  N115     1.0000 0.84683  0.74677  0.63757  Biso   1.000  N
  N116     1.0000 0.25323  0.10007  0.63757  Biso   1.000  N
  N117     1.0000 0.89993  0.15317  0.63757  Biso   1.000  N
  N118     1.0000 0.48650  0.91990  0.02910  Biso   1.000  N
  N119     1.0000 0.08010  0.56660  0.02910  Biso   1.000  N
  N120     1.0000 0.43340  0.51350  0.02910  Biso   1.000  N
  N121     1.0000 0.15317  0.25323  0.36243  Biso   1.000  N
  N122     1.0000 0.74677  0.89993  0.36243  Biso   1.000  N
  N123     1.0000 0.10007  0.84683  0.36243  Biso   1.000  N
  N124     1.0000 0.81983  0.58657  0.69577  Biso   1.000  N
  N125     1.0000 0.41343  0.23327  0.69577  Biso   1.000  N
  N126     1.0000 0.76673  0.18017  0.69577  Biso   1.000  N
  C145     1.0000 0.50020  0.06220  0.88190  Biso   1.000  C
  C146     1.0000 0.93780  0.43800  0.88190  Biso   1.000  C
  C147     1.0000 0.56200  0.49980  0.88190  Biso   1.000  C
  C148     1.0000 0.16687  0.39553  0.21523  Biso   1.000  C
  C149     1.0000 0.60447  0.77133  0.21523  Biso   1.000  C
  C150     1.0000 0.22867  0.83313  0.21523  Biso   1.000  C
  C151     1.0000 0.83353  0.72887  0.54857  Biso   1.000  C
  C152     1.0000 0.27113  0.10467  0.54857  Biso   1.000  C
  C153     1.0000 0.89533  0.16647  0.54857  Biso   1.000  C
  C154     1.0000 0.49980  0.93780  0.11810  Biso   1.000  C
  C155     1.0000 0.06220  0.56200  0.11810  Biso   1.000  C
  C156     1.0000 0.43800  0.50020  0.11810  Biso   1.000  C
  C157     1.0000 0.16647  0.27113  0.45143  Biso   1.000  C
  C158     1.0000 0.72887  0.89533  0.45143  Biso   1.000  C
  C159     1.0000 0.10467  0.83353  0.45143  Biso   1.000  C
  C160     1.0000 0.83313  0.60447  0.78477  Biso   1.000  C
  C161     1.0000 0.39553  0.22867  0.78477  Biso   1.000  C
  C162     1.0000 0.77133  0.16687  0.78477  Biso   1.000  C
  C163     1.0000 0.49580  0.08960  0.80640  Biso   1.000  C
  C164     1.0000 0.91040  0.40620  0.80640  Biso   1.000  C
  C165     1.0000 0.59380  0.50420  0.80640  Biso   1.000  C
  C166     1.0000 0.16247  0.42293  0.13973  Biso   1.000  C
  C167     1.0000 0.57707  0.73953  0.13973  Biso   1.000  C
  C168     1.0000 0.26047  0.83753  0.13973  Biso   1.000  C
  C169     1.0000 0.82913  0.75627  0.47307  Biso   1.000  C
  C170     1.0000 0.24373  0.07287  0.47307  Biso   1.000  C
  C171     1.0000 0.92713  0.17087  0.47307  Biso   1.000  C
  C172     1.0000 0.50420  0.91040  0.19360  Biso   1.000  C
  C173     1.0000 0.08960  0.59380  0.19360  Biso   1.000  C
  C174     1.0000 0.40620  0.49580  0.19360  Biso   1.000  C
  C175     1.0000 0.17087  0.24373  0.52693  Biso   1.000  C
  C176     1.0000 0.75627  0.92713  0.52693  Biso   1.000  C
  C177     1.0000 0.07287  0.82913  0.52693  Biso   1.000  C
  C178     1.0000 0.83753  0.57707  0.86027  Biso   1.000  C
  C179     1.0000 0.42293  0.26047  0.86027  Biso   1.000  C
  C180     1.0000 0.73953  0.16247  0.86027  Biso   1.000  C
  C181     1.0000 0.50310  0.13630  0.82980  Biso   1.000  C
  C182     1.0000 0.86370  0.36680  0.82980  Biso   1.000  C
  C183     1.0000 0.63320  0.49690  0.82980  Biso   1.000  C
  C184     1.0000 0.16977  0.46963  0.16313  Biso   1.000  C
  C185     1.0000 0.53037  0.70013  0.16313  Biso   1.000  C
  C186     1.0000 0.29987  0.83023  0.16313  Biso   1.000  C
  C187     1.0000 0.83643  0.80297  0.49647  Biso   1.000  C
  C188     1.0000 0.19703  0.03347  0.49647  Biso   1.000  C
  C189     1.0000 0.96653  0.16357  0.49647  Biso   1.000  C
  C190     1.0000 0.49690  0.86370  0.17020  Biso   1.000  C
  C191     1.0000 0.13630  0.63320  0.17020  Biso   1.000  C
  C192     1.0000 0.36680  0.50310  0.17020  Biso   1.000  C
  C193     1.0000 0.16357  0.19703  0.50353  Biso   1.000  C
  C194     1.0000 0.80297  0.96653  0.50353  Biso   1.000  C
  C195     1.0000 0.03347  0.83643  0.50353  Biso   1.000  C
  C196     1.0000 0.83023  0.53037  0.83687  Biso   1.000  C
  C197     1.0000 0.46963  0.29987  0.83687  Biso   1.000  C
  C198     1.0000 0.70013  0.16977  0.83687  Biso   1.000  C
  N127     1.0000 0.48380  0.06130  0.72700  Biso   1.000  N
  N128     1.0000 0.93870  0.42250  0.72700  Biso   1.000  N
  N129     1.0000 0.57750  0.51620  0.72700  Biso   1.000  N
  N130     1.0000 0.15047  0.39463  0.06033  Biso   1.000  N
  N131     1.0000 0.60537  0.75583  0.06033  Biso   1.000  N
  N132     1.0000 0.24417  0.84953  0.06033  Biso   1.000  N
  N133     1.0000 0.81713  0.72797  0.39367  Biso   1.000  N
  N134     1.0000 0.27203  0.08917  0.39367  Biso   1.000  N
  N135     1.0000 0.91083  0.18287  0.39367  Biso   1.000  N
  N136     1.0000 0.51620  0.93870  0.27300  Biso   1.000  N
  N137     1.0000 0.06130  0.57750  0.27300  Biso   1.000  N
  N138     1.0000 0.42250  0.48380  0.27300  Biso   1.000  N
  N139     1.0000 0.18287  0.27203  0.60633  Biso   1.000  N
  N140     1.0000 0.72797  0.91083  0.60633  Biso   1.000  N
  N141     1.0000 0.08917  0.81713  0.60633  Biso   1.000  N
  N142     1.0000 0.84953  0.60537  0.93967  Biso   1.000  N
  N143     1.0000 0.39463  0.24417  0.93967  Biso   1.000  N
  N144     1.0000 0.75583  0.15047  0.93967  Biso   1.000  N
  C199     1.0000 0.48190  0.02070  0.75690  Biso   1.000  C
  C200     1.0000 0.97930  0.46120  0.75690  Biso   1.000  C
  C201     1.0000 0.53880  0.51810  0.75690  Biso   1.000  C
  C202     1.0000 0.14857  0.35403  0.09023  Biso   1.000  C
  C203     1.0000 0.64597  0.79453  0.09023  Biso   1.000  C
  C204     1.0000 0.20547  0.85143  0.09023  Biso   1.000  C
  C205     1.0000 0.81523  0.68737  0.42357  Biso   1.000  C
  C206     1.0000 0.31263  0.12787  0.42357  Biso   1.000  C
  C207     1.0000 0.87213  0.18477  0.42357  Biso   1.000  C
  C208     1.0000 0.51810  0.97930  0.24310  Biso   1.000  C
  C209     1.0000 0.02070  0.53880  0.24310  Biso   1.000  C
  C210     1.0000 0.46120  0.48190  0.24310  Biso   1.000  C
  C211     1.0000 0.18477  0.31263  0.57643  Biso   1.000  C
  C212     1.0000 0.68737  0.87213  0.57643  Biso   1.000  C
  C213     1.0000 0.12787  0.81523  0.57643  Biso   1.000  C
  C214     1.0000 0.85143  0.64597  0.90977  Biso   1.000  C
  C215     1.0000 0.35403  0.20547  0.90977  Biso   1.000  C
  C216     1.0000 0.79453  0.14857  0.90977  Biso   1.000  C
  H163     1.0000 0.46670  0.98450  0.72360  Biso   1.000  H
  H164     1.0000 0.01550  0.48220  0.72360  Biso   1.000  H
  H165     1.0000 0.51780  0.53330  0.72360  Biso   1.000  H
  H166     1.0000 0.13337  0.31783  0.05693  Biso   1.000  H
  H167     1.0000 0.68217  0.81553  0.05693  Biso   1.000  H
  H168     1.0000 0.18447  0.86663  0.05693  Biso   1.000  H
  H169     1.0000 0.80003  0.65117  0.39027  Biso   1.000  H
  H170     1.0000 0.34883  0.14887  0.39027  Biso   1.000  H
  H171     1.0000 0.85113  0.19997  0.39027  Biso   1.000  H
  H172     1.0000 0.53330  0.01550  0.27640  Biso   1.000  H
  H173     1.0000 0.98450  0.51780  0.27640  Biso   1.000  H
  H174     1.0000 0.48220  0.46670  0.27640  Biso   1.000  H
  H175     1.0000 0.19997  0.34883  0.60973  Biso   1.000  H
  H176     1.0000 0.65117  0.85113  0.60973  Biso   1.000  H
  H177     1.0000 0.14887  0.80003  0.60973  Biso   1.000  H
  H178     1.0000 0.86663  0.68217  0.94307  Biso   1.000  H
  H179     1.0000 0.31783  0.18447  0.94307  Biso   1.000  H
  H180     1.0000 0.81553  0.13337  0.94307  Biso   1.000  H
  N145     1.0000 0.49160  0.01940  0.84930  Biso   1.000  N
  N146     1.0000 0.98060  0.47220  0.84930  Biso   1.000  N
  N147     1.0000 0.52780  0.50840  0.84930  Biso   1.000  N
  N148     1.0000 0.15827  0.35273  0.18263  Biso   1.000  N
  N149     1.0000 0.64727  0.80553  0.18263  Biso   1.000  N
  N150     1.0000 0.19447  0.84173  0.18263  Biso   1.000  N
  N151     1.0000 0.82493  0.68607  0.51597  Biso   1.000  N
  N152     1.0000 0.31393  0.13887  0.51597  Biso   1.000  N
  N153     1.0000 0.86113  0.17507  0.51597  Biso   1.000  N
  N154     1.0000 0.50840  0.98060  0.15070  Biso   1.000  N
  N155     1.0000 0.01940  0.52780  0.15070  Biso   1.000  N
  N156     1.0000 0.47220  0.49160  0.15070  Biso   1.000  N
  N157     1.0000 0.17507  0.31393  0.48403  Biso   1.000  N
  N158     1.0000 0.68607  0.86113  0.48403  Biso   1.000  N
  N159     1.0000 0.13887  0.82493  0.48403  Biso   1.000  N
  N160     1.0000 0.84173  0.64727  0.81737  Biso   1.000  N
  N161     1.0000 0.35273  0.19447  0.81737  Biso   1.000  N
  N162     1.0000 0.80553  0.15827  0.81737  Biso   1.000  N
  N163     1.0000 0.50220  0.16750  0.76620  Biso   1.000  N
  N164     1.0000 0.83250  0.33470  0.76620  Biso   1.000  N
  N165     1.0000 0.66530  0.49780  0.76620  Biso   1.000  N
  N166     1.0000 0.16887  0.50083  0.09953  Biso   1.000  N
  N167     1.0000 0.49917  0.66803  0.09953  Biso   1.000  N
  N168     1.0000 0.33197  0.83113  0.09953  Biso   1.000  N
  N169     1.0000 0.83553  0.83417  0.43287  Biso   1.000  N
  N170     1.0000 0.16583  0.00137  0.43287  Biso   1.000  N
  N171     1.0000 0.99863  0.16447  0.43287  Biso   1.000  N
  N172     1.0000 0.49780  0.83250  0.23380  Biso   1.000  N
  N173     1.0000 0.16750  0.66530  0.23380  Biso   1.000  N
  N174     1.0000 0.33470  0.50220  0.23380  Biso   1.000  N
  N175     1.0000 0.16447  0.16583  0.56713  Biso   1.000  N
  N176     1.0000 0.83417  0.99863  0.56713  Biso   1.000  N
  N177     1.0000 0.00137  0.83553  0.56713  Biso   1.000  N
  N178     1.0000 0.83113  0.49917  0.90047  Biso   1.000  N
  N179     1.0000 0.50083  0.33197  0.90047  Biso   1.000  N
  N180     1.0000 0.66803  0.16887  0.90047  Biso   1.000  N
  H181     1.0000 0.50650  0.19540  0.78390  Biso   1.000  H
  H182     1.0000 0.80460  0.31110  0.78390  Biso   1.000  H
  H183     1.0000 0.68890  0.49350  0.78390  Biso   1.000  H
  H184     1.0000 0.17317  0.52873  0.11723  Biso   1.000  H
  H185     1.0000 0.47127  0.64443  0.11723  Biso   1.000  H
  H186     1.0000 0.35557  0.82683  0.11723  Biso   1.000  H
  H187     1.0000 0.83983  0.86207  0.45057  Biso   1.000  H
  H188     1.0000 0.13793  0.97777  0.45057  Biso   1.000  H
  H189     1.0000 0.02223  0.16017  0.45057  Biso   1.000  H
  H190     1.0000 0.49350  0.80460  0.21610  Biso   1.000  H
  H191     1.0000 0.19540  0.68890  0.21610  Biso   1.000  H
  H192     1.0000 0.31110  0.50650  0.21610  Biso   1.000  H
  H193     1.0000 0.16017  0.13793  0.54943  Biso   1.000  H
  H194     1.0000 0.86207  0.02223  0.54943  Biso   1.000  H
  H195     1.0000 0.97777  0.83983  0.54943  Biso   1.000  H
  H196     1.0000 0.82683  0.47127  0.88277  Biso   1.000  H
  H197     1.0000 0.52873  0.35557  0.88277  Biso   1.000  H
  H198     1.0000 0.64443  0.17317  0.88277  Biso   1.000  H
  H199     1.0000 0.49570  0.15870  0.70820  Biso   1.000  H
  H200     1.0000 0.84130  0.33700  0.70820  Biso   1.000  H
  H201     1.0000 0.66300  0.50430  0.70820  Biso   1.000  H
  H202     1.0000 0.16237  0.49203  0.04153  Biso   1.000  H
  H203     1.0000 0.50797  0.67033  0.04153  Biso   1.000  H
  H204     1.0000 0.32967  0.83763  0.04153  Biso   1.000  H
  H205     1.0000 0.82903  0.82537  0.37487  Biso   1.000  H
  H206     1.0000 0.17463  0.00367  0.37487  Biso   1.000  H
  H207     1.0000 0.99633  0.17097  0.37487  Biso   1.000  H
  H208     1.0000 0.50430  0.84130  0.29180  Biso   1.000  H
  H209     1.0000 0.15870  0.66300  0.29180  Biso   1.000  H
  H210     1.0000 0.33700  0.49570  0.29180  Biso   1.000  H
  H211     1.0000 0.17097  0.17463  0.62513  Biso   1.000  H
  H212     1.0000 0.82537  0.99633  0.62513  Biso   1.000  H
  H213     1.0000 0.00367  0.82903  0.62513  Biso   1.000  H
  H214     1.0000 0.83763  0.50797  0.95847  Biso   1.000  H
  H215     1.0000 0.49203  0.32967  0.95847  Biso   1.000  H
  H216     1.0000 0.67033  0.16237  0.95847  Biso   1.000  H
  O109     1.0000 0.64290  0.15980  0.36820  Biso   1.000  O
  O110     1.0000 0.84020  0.48310  0.36820  Biso   1.000  O
  O111     1.0000 0.51690  0.35710  0.36820  Biso   1.000  O
  O112     1.0000 0.30957  0.49313  0.70153  Biso   1.000  O
  O113     1.0000 0.50687  0.81643  0.70153  Biso   1.000  O
  O114     1.0000 0.18357  0.69043  0.70153  Biso   1.000  O
  O115     1.0000 0.97623  0.82647  0.03487  Biso   1.000  O
  O116     1.0000 0.17353  0.14977  0.03487  Biso   1.000  O
  O117     1.0000 0.85023  0.02377  0.03487  Biso   1.000  O
  O118     1.0000 0.35710  0.84020  0.63180  Biso   1.000  O
  O119     1.0000 0.15980  0.51690  0.63180  Biso   1.000  O
  O120     1.0000 0.48310  0.64290  0.63180  Biso   1.000  O
  O121     1.0000 0.02377  0.17353  0.96513  Biso   1.000  O
  O122     1.0000 0.82647  0.85023  0.96513  Biso   1.000  O
  O123     1.0000 0.14977  0.97623  0.96513  Biso   1.000  O
  O124     1.0000 0.69043  0.50687  0.29847  Biso   1.000  O
  O125     1.0000 0.49313  0.18357  0.29847  Biso   1.000  O
  O126     1.0000 0.81643  0.30957  0.29847  Biso   1.000  O
  O127     1.0000 0.62620  0.18560  0.19190  Biso   1.000  O
  O128     1.0000 0.81440  0.44060  0.19190  Biso   1.000  O
  O129     1.0000 0.55940  0.37380  0.19190  Biso   1.000  O
  O130     1.0000 0.29287  0.51893  0.52523  Biso   1.000  O
  O131     1.0000 0.48107  0.77393  0.52523  Biso   1.000  O
  O132     1.0000 0.22607  0.70713  0.52523  Biso   1.000  O
  O133     1.0000 0.95953  0.85227  0.85857  Biso   1.000  O
  O134     1.0000 0.14773  0.10727  0.85857  Biso   1.000  O
  O135     1.0000 0.89273  0.04047  0.85857  Biso   1.000  O
  O136     1.0000 0.37380  0.81440  0.80810  Biso   1.000  O
  O137     1.0000 0.18560  0.55940  0.80810  Biso   1.000  O
  O138     1.0000 0.44060  0.62620  0.80810  Biso   1.000  O
  O139     1.0000 0.04047  0.14773  0.14143  Biso   1.000  O
  O140     1.0000 0.85227  0.89273  0.14143  Biso   1.000  O
  O141     1.0000 0.10727  0.95953  0.14143  Biso   1.000  O
  O142     1.0000 0.70713  0.48107  0.47477  Biso   1.000  O
  O143     1.0000 0.51893  0.22607  0.47477  Biso   1.000  O
  O144     1.0000 0.77393  0.29287  0.47477  Biso   1.000  O
  O145     1.0000 0.53540  0.16540  0.58560  Biso   1.000  O
  O146     1.0000 0.83460  0.37000  0.58560  Biso   1.000  O
  O147     1.0000 0.63000  0.46460  0.58560  Biso   1.000  O
  O148     1.0000 0.20207  0.49873  0.91893  Biso   1.000  O
  O149     1.0000 0.50127  0.70333  0.91893  Biso   1.000  O
  O150     1.0000 0.29667  0.79793  0.91893  Biso   1.000  O
  O151     1.0000 0.86873  0.83207  0.25227  Biso   1.000  O
  O152     1.0000 0.16793  0.03667  0.25227  Biso   1.000  O
  O153     1.0000 0.96333  0.13127  0.25227  Biso   1.000  O
  O154     1.0000 0.46460  0.83460  0.41440  Biso   1.000  O
  O155     1.0000 0.16540  0.63000  0.41440  Biso   1.000  O
  O156     1.0000 0.37000  0.53540  0.41440  Biso   1.000  O
  O157     1.0000 0.13127  0.16793  0.74773  Biso   1.000  O
  O158     1.0000 0.83207  0.96333  0.74773  Biso   1.000  O
  O159     1.0000 0.03667  0.86873  0.74773  Biso   1.000  O
  O160     1.0000 0.79793  0.50127  0.08107  Biso   1.000  O
  O161     1.0000 0.49873  0.29667  0.08107  Biso   1.000  O
  O162     1.0000 0.70333  0.20207  0.08107  Biso   1.000  O
  O163     1.0000 0.58010  0.24450  0.18590  Biso   1.000  O
  O164     1.0000 0.75550  0.33560  0.18590  Biso   1.000  O
  O165     1.0000 0.66440  0.41990  0.18590  Biso   1.000  O
  O166     1.0000 0.24677  0.57783  0.51923  Biso   1.000  O
  O167     1.0000 0.42217  0.66893  0.51923  Biso   1.000  O
  O168     1.0000 0.33107  0.75323  0.51923  Biso   1.000  O
  O169     1.0000 0.91343  0.91117  0.85257  Biso   1.000  O
  O170     1.0000 0.08883  0.00227  0.85257  Biso   1.000  O
  O171     1.0000 0.99773  0.08657  0.85257  Biso   1.000  O
  O172     1.0000 0.41990  0.75550  0.81410  Biso   1.000  O
  O173     1.0000 0.24450  0.66440  0.81410  Biso   1.000  O
  O174     1.0000 0.33560  0.58010  0.81410  Biso   1.000  O
  O175     1.0000 0.08657  0.08883  0.14743  Biso   1.000  O
  O176     1.0000 0.91117  0.99773  0.14743  Biso   1.000  O
  O177     1.0000 0.00227  0.91343  0.14743  Biso   1.000  O
  O178     1.0000 0.75323  0.42217  0.48077  Biso   1.000  O
  O179     1.0000 0.57783  0.33107  0.48077  Biso   1.000  O
  O180     1.0000 0.66893  0.24677  0.48077  Biso   1.000  O
  O181     1.0000 0.60810  0.14740  0.64250  Biso   1.000  O
  O182     1.0000 0.85260  0.46070  0.64250  Biso   1.000  O
  O183     1.0000 0.53930  0.39190  0.64250  Biso   1.000  O
  O184     1.0000 0.27477  0.48073  0.97583  Biso   1.000  O
  O185     1.0000 0.51927  0.79403  0.97583  Biso   1.000  O
  O186     1.0000 0.20597  0.72523  0.97583  Biso   1.000  O
  O187     1.0000 0.94143  0.81407  0.30917  Biso   1.000  O
  O188     1.0000 0.18593  0.12737  0.30917  Biso   1.000  O
  O189     1.0000 0.87263  0.05857  0.30917  Biso   1.000  O
  O190     1.0000 0.39190  0.85260  0.35750  Biso   1.000  O
  O191     1.0000 0.14740  0.53930  0.35750  Biso   1.000  O
  O192     1.0000 0.46070  0.60810  0.35750  Biso   1.000  O
  O193     1.0000 0.05857  0.18593  0.69083  Biso   1.000  O
  O194     1.0000 0.81407  0.87263  0.69083  Biso   1.000  O
  O195     1.0000 0.12737  0.94143  0.69083  Biso   1.000  O
  O196     1.0000 0.72523  0.51927  0.02417  Biso   1.000  O
  O197     1.0000 0.48073  0.20597  0.02417  Biso   1.000  O
  O198     1.0000 0.79403  0.27477  0.02417  Biso   1.000  O
  O199     1.0000 0.64270  0.22900  0.67530  Biso   1.000  O
  O200     1.0000 0.77100  0.41370  0.67530  Biso   1.000  O
  O201     1.0000 0.58630  0.35730  0.67530  Biso   1.000  O
  O202     1.0000 0.30937  0.56233  0.00863  Biso   1.000  O
  O203     1.0000 0.43767  0.74703  0.00863  Biso   1.000  O
  O204     1.0000 0.25297  0.69063  0.00863  Biso   1.000  O
  O205     1.0000 0.97603  0.89567  0.34197  Biso   1.000  O
  O206     1.0000 0.10433  0.08037  0.34197  Biso   1.000  O
  O207     1.0000 0.91963  0.02397  0.34197  Biso   1.000  O
  O208     1.0000 0.35730  0.77100  0.32470  Biso   1.000  O
  O209     1.0000 0.22900  0.58630  0.32470  Biso   1.000  O
  O210     1.0000 0.41370  0.64270  0.32470  Biso   1.000  O
  O211     1.0000 0.02397  0.10433  0.65803  Biso   1.000  O
  O212     1.0000 0.89567  0.91963  0.65803  Biso   1.000  O
  O213     1.0000 0.08037  0.97603  0.65803  Biso   1.000  O
  O214     1.0000 0.69063  0.43767  0.99137  Biso   1.000  O
  O215     1.0000 0.56233  0.25297  0.99137  Biso   1.000  O
  O216     1.0000 0.74703  0.30937  0.99137  Biso   1.000  O
