data_image0
_cell_length_a       18.206
_cell_length_b       18.206
_cell_length_c       18.206
_cell_angle_alpha    90
_cell_angle_beta     90
_cell_angle_gamma    90

_symmetry_space_group_name_H-M    "P 1"
_symmetry_int_tables_number       1

loop_
  _symmetry_equiv_pos_as_xyz
  'x, y, z'

loop_
  _atom_site_label
  _atom_site_occupancy
  _atom_site_fract_x
  _atom_site_fract_y
  _atom_site_fract_z
  _atom_site_thermal_displace_type
  _atom_site_B_iso_or_equiv
  _atom_site_type_symbol
  C1       1.0000 0.07560  0.15850  0.47420  Biso   1.000  C
  C2       1.0000 0.42440  0.84150  0.97420  Biso   1.000  C
  C3       1.0000 0.57560  0.34150  0.52580  Biso   1.000  C
  C4       1.0000 0.92440  0.65850  0.02580  Biso   1.000  C
  C5       1.0000 0.47420  0.07560  0.15850  Biso   1.000  C
  C6       1.0000 0.15850  0.47420  0.07560  Biso   1.000  C
  C7       1.0000 0.02580  0.92440  0.65850  Biso   1.000  C
  C8       1.0000 0.84150  0.97420  0.42440  Biso   1.000  C
  C9       1.0000 0.97420  0.42440  0.84150  Biso   1.000  C
  C10      1.0000 0.34150  0.52580  0.57560  Biso   1.000  C
  C11      1.0000 0.52580  0.57560  0.34150  Biso   1.000  C
  C12      1.0000 0.65850  0.02580  0.92440  Biso   1.000  C
  H1       1.0000 0.10570  0.14190  0.43280  Biso   1.000  H
  H2       1.0000 0.39430  0.85810  0.93280  Biso   1.000  H
  H3       1.0000 0.60570  0.35810  0.56720  Biso   1.000  H
  H4       1.0000 0.89430  0.64190  0.06720  Biso   1.000  H
  H5       1.0000 0.43280  0.10570  0.14190  Biso   1.000  H
  H6       1.0000 0.14190  0.43280  0.10570  Biso   1.000  H
  H7       1.0000 0.06720  0.89430  0.64190  Biso   1.000  H
  H8       1.0000 0.85810  0.93280  0.39430  Biso   1.000  H
  H9       1.0000 0.93280  0.39430  0.85810  Biso   1.000  H
  H10      1.0000 0.35810  0.56720  0.60570  Biso   1.000  H
  H11      1.0000 0.56720  0.60570  0.35810  Biso   1.000  H
  H12      1.0000 0.64190  0.06720  0.89430  Biso   1.000  H
  H13      1.0000 0.02470  0.16490  0.45800  Biso   1.000  H
  H14      1.0000 0.47530  0.83510  0.95800  Biso   1.000  H
  H15      1.0000 0.52470  0.33510  0.54200  Biso   1.000  H
  H16      1.0000 0.97530  0.66490  0.04200  Biso   1.000  H
  H17      1.0000 0.45800  0.02470  0.16490  Biso   1.000  H
  H18      1.0000 0.16490  0.45800  0.02470  Biso   1.000  H
  H19      1.0000 0.04200  0.97530  0.66490  Biso   1.000  H
  H20      1.0000 0.83510  0.95800  0.47530  Biso   1.000  H
  H21      1.0000 0.95800  0.47530  0.83510  Biso   1.000  H
  H22      1.0000 0.33510  0.54200  0.52470  Biso   1.000  H
  H23      1.0000 0.54200  0.52470  0.33510  Biso   1.000  H
  H24      1.0000 0.66490  0.04200  0.97530  Biso   1.000  H
  H25      1.0000 0.07740  0.12170  0.51350  Biso   1.000  H
  H26      1.0000 0.42260  0.87830  0.01350  Biso   1.000  H
  H27      1.0000 0.57740  0.37830  0.48650  Biso   1.000  H
  H28      1.0000 0.92260  0.62170  0.98650  Biso   1.000  H
  H29      1.0000 0.51350  0.07740  0.12170  Biso   1.000  H
  H30      1.0000 0.12170  0.51350  0.07740  Biso   1.000  H
  H31      1.0000 0.98650  0.92260  0.62170  Biso   1.000  H
  H32      1.0000 0.87830  0.01350  0.42260  Biso   1.000  H
  H33      1.0000 0.01350  0.42260  0.87830  Biso   1.000  H
  H34      1.0000 0.37830  0.48650  0.57740  Biso   1.000  H
  H35      1.0000 0.48650  0.57740  0.37830  Biso   1.000  H
  H36      1.0000 0.62170  0.98650  0.92260  Biso   1.000  H
  C13      1.0000 0.09890  0.21570  0.49670  Biso   1.000  C
  C14      1.0000 0.40110  0.78430  0.99670  Biso   1.000  C
  C15      1.0000 0.59890  0.28430  0.50330  Biso   1.000  C
  C16      1.0000 0.90110  0.71570  0.00330  Biso   1.000  C
  C17      1.0000 0.49670  0.09890  0.21570  Biso   1.000  C
  C18      1.0000 0.21570  0.49670  0.09890  Biso   1.000  C
  C19      1.0000 0.00330  0.90110  0.71570  Biso   1.000  C
  C20      1.0000 0.78430  0.99670  0.40110  Biso   1.000  C
  C21      1.0000 0.99670  0.40110  0.78430  Biso   1.000  C
  C22      1.0000 0.28430  0.50330  0.59890  Biso   1.000  C
  C23      1.0000 0.50330  0.59890  0.28430  Biso   1.000  C
  C24      1.0000 0.71570  0.00330  0.90110  Biso   1.000  C
  H37      1.0000 0.09670  0.25150  0.45580  Biso   1.000  H
  H38      1.0000 0.40330  0.74850  0.95580  Biso   1.000  H
  H39      1.0000 0.59670  0.24850  0.54420  Biso   1.000  H
  H40      1.0000 0.90330  0.75150  0.04420  Biso   1.000  H
  H41      1.0000 0.45580  0.09670  0.25150  Biso   1.000  H
  H42      1.0000 0.25150  0.45580  0.09670  Biso   1.000  H
  H43      1.0000 0.04420  0.90330  0.75150  Biso   1.000  H
  H44      1.0000 0.74850  0.95580  0.40330  Biso   1.000  H
  H45      1.0000 0.95580  0.40330  0.74850  Biso   1.000  H
  H46      1.0000 0.24850  0.54420  0.59670  Biso   1.000  H
  H47      1.0000 0.54420  0.59670  0.24850  Biso   1.000  H
  H48      1.0000 0.75150  0.04420  0.90330  Biso   1.000  H
  H49      1.0000 0.15140  0.20850  0.50880  Biso   1.000  H
  H50      1.0000 0.34860  0.79150  0.00880  Biso   1.000  H
  H51      1.0000 0.65140  0.29150  0.49120  Biso   1.000  H
  H52      1.0000 0.84860  0.70850  0.99120  Biso   1.000  H
  H53      1.0000 0.50880  0.15140  0.20850  Biso   1.000  H
  H54      1.0000 0.20850  0.50880  0.15140  Biso   1.000  H
  H55      1.0000 0.99120  0.84860  0.70850  Biso   1.000  H
  H56      1.0000 0.79150  0.00880  0.34860  Biso   1.000  H
  H57      1.0000 0.00880  0.34860  0.79150  Biso   1.000  H
  H58      1.0000 0.29150  0.49120  0.65140  Biso   1.000  H
  H59      1.0000 0.49120  0.65140  0.29150  Biso   1.000  H
  H60      1.0000 0.70850  0.99120  0.84860  Biso   1.000  H
  C25      1.0000 0.06400  0.24940  0.55990  Biso   1.000  C
  C26      1.0000 0.43600  0.75060  0.05990  Biso   1.000  C
  C27      1.0000 0.56400  0.25060  0.44010  Biso   1.000  C
  C28      1.0000 0.93600  0.74940  0.94010  Biso   1.000  C
  C29      1.0000 0.55990  0.06400  0.24940  Biso   1.000  C
  C30      1.0000 0.24940  0.55990  0.06400  Biso   1.000  C
  C31      1.0000 0.94010  0.93600  0.74940  Biso   1.000  C
  C32      1.0000 0.75060  0.05990  0.43600  Biso   1.000  C
  C33      1.0000 0.05990  0.43600  0.75060  Biso   1.000  C
  C34      1.0000 0.25060  0.44010  0.56400  Biso   1.000  C
  C35      1.0000 0.44010  0.56400  0.25060  Biso   1.000  C
  C36      1.0000 0.74940  0.94010  0.93600  Biso   1.000  C
  H61      1.0000 0.01220  0.26030  0.54750  Biso   1.000  H
  H62      1.0000 0.48780  0.73970  0.04750  Biso   1.000  H
  H63      1.0000 0.51220  0.23970  0.45250  Biso   1.000  H
  H64      1.0000 0.98780  0.76030  0.95250  Biso   1.000  H
  H65      1.0000 0.54750  0.01220  0.26030  Biso   1.000  H
  H66      1.0000 0.26030  0.54750  0.01220  Biso   1.000  H
  H67      1.0000 0.95250  0.98780  0.76030  Biso   1.000  H
  H68      1.0000 0.73970  0.04750  0.48780  Biso   1.000  H
  H69      1.0000 0.04750  0.48780  0.73970  Biso   1.000  H
  H70      1.0000 0.23970  0.45250  0.51220  Biso   1.000  H
  H71      1.0000 0.45250  0.51220  0.23970  Biso   1.000  H
  H72      1.0000 0.76030  0.95250  0.98780  Biso   1.000  H
  H73      1.0000 0.08870  0.29670  0.57030  Biso   1.000  H
  H74      1.0000 0.41130  0.70330  0.07030  Biso   1.000  H
  H75      1.0000 0.58870  0.20330  0.42970  Biso   1.000  H
  H76      1.0000 0.91130  0.79670  0.92970  Biso   1.000  H
  H77      1.0000 0.57030  0.08870  0.29670  Biso   1.000  H
  H78      1.0000 0.29670  0.57030  0.08870  Biso   1.000  H
  H79      1.0000 0.92970  0.91130  0.79670  Biso   1.000  H
  H80      1.0000 0.70330  0.07030  0.41130  Biso   1.000  H
  H81      1.0000 0.07030  0.41130  0.70330  Biso   1.000  H
  H82      1.0000 0.20330  0.42970  0.58870  Biso   1.000  H
  H83      1.0000 0.42970  0.58870  0.20330  Biso   1.000  H
  H84      1.0000 0.79670  0.92970  0.91130  Biso   1.000  H
  C37      1.0000 0.99500  0.08140  0.50440  Biso   1.000  C
  C38      1.0000 0.50500  0.91860  0.00440  Biso   1.000  C
  C39      1.0000 0.49500  0.41860  0.49560  Biso   1.000  C
  C40      1.0000 0.00500  0.58140  0.99560  Biso   1.000  C
  C41      1.0000 0.50440  0.99500  0.08140  Biso   1.000  C
  C42      1.0000 0.08140  0.50440  0.99500  Biso   1.000  C
  C43      1.0000 0.99560  0.00500  0.58140  Biso   1.000  C
  C44      1.0000 0.91860  0.00440  0.50500  Biso   1.000  C
  C45      1.0000 0.00440  0.50500  0.91860  Biso   1.000  C
  C46      1.0000 0.41860  0.49560  0.49500  Biso   1.000  C
  C47      1.0000 0.49560  0.49500  0.41860  Biso   1.000  C
  C48      1.0000 0.58140  0.99560  0.00500  Biso   1.000  C
  H85      1.0000 0.99620  0.04360  0.46610  Biso   1.000  H
  H86      1.0000 0.50380  0.95640  0.96610  Biso   1.000  H
  H87      1.0000 0.49620  0.45640  0.53390  Biso   1.000  H
  H88      1.0000 0.00380  0.54360  0.03390  Biso   1.000  H
  H89      1.0000 0.46610  0.99620  0.04360  Biso   1.000  H
  H90      1.0000 0.04360  0.46610  0.99620  Biso   1.000  H
  H91      1.0000 0.03390  0.00380  0.54360  Biso   1.000  H
  H92      1.0000 0.95640  0.96610  0.50380  Biso   1.000  H
  H93      1.0000 0.96610  0.50380  0.95640  Biso   1.000  H
  H94      1.0000 0.45640  0.53390  0.49620  Biso   1.000  H
  H95      1.0000 0.53390  0.49620  0.45640  Biso   1.000  H
  H96      1.0000 0.54360  0.03390  0.00380  Biso   1.000  H
  H97      1.0000 0.94400  0.09560  0.51400  Biso   1.000  H
  H98      1.0000 0.55600  0.90440  0.01400  Biso   1.000  H
  H99      1.0000 0.44400  0.40440  0.48600  Biso   1.000  H
  H100     1.0000 0.05600  0.59560  0.98600  Biso   1.000  H
  H101     1.0000 0.51400  0.94400  0.09560  Biso   1.000  H
  H102     1.0000 0.09560  0.51400  0.94400  Biso   1.000  H
  H103     1.0000 0.98600  0.05600  0.59560  Biso   1.000  H
  H104     1.0000 0.90440  0.01400  0.55600  Biso   1.000  H
  H105     1.0000 0.01400  0.55600  0.90440  Biso   1.000  H
  H106     1.0000 0.40440  0.48600  0.44400  Biso   1.000  H
  H107     1.0000 0.48600  0.44400  0.40440  Biso   1.000  H
  H108     1.0000 0.59560  0.98600  0.05600  Biso   1.000  H
  H109     1.0000 0.01700  0.06180  0.54950  Biso   1.000  H
  H110     1.0000 0.48300  0.93820  0.04950  Biso   1.000  H
  H111     1.0000 0.51700  0.43820  0.45050  Biso   1.000  H
  H112     1.0000 0.98300  0.56180  0.95050  Biso   1.000  H
  H113     1.0000 0.54950  0.01700  0.06180  Biso   1.000  H
  H114     1.0000 0.06180  0.54950  0.01700  Biso   1.000  H
  H115     1.0000 0.95050  0.98300  0.56180  Biso   1.000  H
  H116     1.0000 0.93820  0.04950  0.48300  Biso   1.000  H
  H117     1.0000 0.04950  0.48300  0.93820  Biso   1.000  H
  H118     1.0000 0.43820  0.45050  0.51700  Biso   1.000  H
  H119     1.0000 0.45050  0.51700  0.43820  Biso   1.000  H
  H120     1.0000 0.56180  0.95050  0.98300  Biso   1.000  H
  C49      1.0000 0.03170  0.13810  0.48290  Biso   1.000  C
  C50      1.0000 0.46830  0.86190  0.98290  Biso   1.000  C
  C51      1.0000 0.53170  0.36190  0.51710  Biso   1.000  C
  C52      1.0000 0.96830  0.63810  0.01710  Biso   1.000  C
  C53      1.0000 0.48290  0.03170  0.13810  Biso   1.000  C
  C54      1.0000 0.13810  0.48290  0.03170  Biso   1.000  C
  C55      1.0000 0.01710  0.96830  0.63810  Biso   1.000  C
  C56      1.0000 0.86190  0.98290  0.46830  Biso   1.000  C
  C57      1.0000 0.98290  0.46830  0.86190  Biso   1.000  C
  C58      1.0000 0.36190  0.51710  0.53170  Biso   1.000  C
  C59      1.0000 0.51710  0.53170  0.36190  Biso   1.000  C
  C60      1.0000 0.63810  0.01710  0.96830  Biso   1.000  C
  H121     1.0000 0.00730  0.15660  0.43800  Biso   1.000  H
  H122     1.0000 0.49270  0.84340  0.93800  Biso   1.000  H
  H123     1.0000 0.50730  0.34340  0.56200  Biso   1.000  H
  H124     1.0000 0.99270  0.65660  0.06200  Biso   1.000  H
  H125     1.0000 0.43800  0.00730  0.15660  Biso   1.000  H
  H126     1.0000 0.15660  0.43800  0.00730  Biso   1.000  H
  H127     1.0000 0.06200  0.99270  0.65660  Biso   1.000  H
  H128     1.0000 0.84340  0.93800  0.49270  Biso   1.000  H
  H129     1.0000 0.93800  0.49270  0.84340  Biso   1.000  H
  H130     1.0000 0.34340  0.56200  0.50730  Biso   1.000  H
  H131     1.0000 0.56200  0.50730  0.34340  Biso   1.000  H
  H132     1.0000 0.65660  0.06200  0.99270  Biso   1.000  H
  H133     1.0000 0.08090  0.12030  0.46780  Biso   1.000  H
  H134     1.0000 0.41910  0.87970  0.96780  Biso   1.000  H
  H135     1.0000 0.58090  0.37970  0.53220  Biso   1.000  H
  H136     1.0000 0.91910  0.62030  0.03220  Biso   1.000  H
  H137     1.0000 0.46780  0.08090  0.12030  Biso   1.000  H
  H138     1.0000 0.12030  0.46780  0.08090  Biso   1.000  H
  H139     1.0000 0.03220  0.91910  0.62030  Biso   1.000  H
  H140     1.0000 0.87970  0.96780  0.41910  Biso   1.000  H
  H141     1.0000 0.96780  0.41910  0.87970  Biso   1.000  H
  H142     1.0000 0.37970  0.53220  0.58090  Biso   1.000  H
  H143     1.0000 0.53220  0.58090  0.37970  Biso   1.000  H
  H144     1.0000 0.62030  0.03220  0.91910  Biso   1.000  H
  C61      1.0000 0.04520  0.21000  0.53720  Biso   1.000  C
  C62      1.0000 0.45480  0.79000  0.03720  Biso   1.000  C
  C63      1.0000 0.54520  0.29000  0.46280  Biso   1.000  C
  C64      1.0000 0.95480  0.71000  0.96280  Biso   1.000  C
  C65      1.0000 0.53720  0.04520  0.21000  Biso   1.000  C
  C66      1.0000 0.21000  0.53720  0.04520  Biso   1.000  C
  C67      1.0000 0.96280  0.95480  0.71000  Biso   1.000  C
  C68      1.0000 0.79000  0.03720  0.45480  Biso   1.000  C
  C69      1.0000 0.03720  0.45480  0.79000  Biso   1.000  C
  C70      1.0000 0.29000  0.46280  0.54520  Biso   1.000  C
  C71      1.0000 0.46280  0.54520  0.29000  Biso   1.000  C
  C72      1.0000 0.71000  0.96280  0.95480  Biso   1.000  C
  H145     1.0000 0.08780  0.23840  0.51900  Biso   1.000  H
  H146     1.0000 0.41220  0.76160  0.01900  Biso   1.000  H
  H147     1.0000 0.58780  0.26160  0.48100  Biso   1.000  H
  H148     1.0000 0.91220  0.73840  0.98100  Biso   1.000  H
  H149     1.0000 0.51900  0.08780  0.23840  Biso   1.000  H
  H150     1.0000 0.23840  0.51900  0.08780  Biso   1.000  H
  H151     1.0000 0.98100  0.91220  0.73840  Biso   1.000  H
  H152     1.0000 0.76160  0.01900  0.41220  Biso   1.000  H
  H153     1.0000 0.01900  0.41220  0.76160  Biso   1.000  H
  H154     1.0000 0.26160  0.48100  0.58780  Biso   1.000  H
  H155     1.0000 0.48100  0.58780  0.26160  Biso   1.000  H
  H156     1.0000 0.73840  0.98100  0.91220  Biso   1.000  H
  H157     1.0000 0.00150  0.24230  0.53510  Biso   1.000  H
  H158     1.0000 0.49850  0.75770  0.03510  Biso   1.000  H
  H159     1.0000 0.50150  0.25770  0.46490  Biso   1.000  H
  H160     1.0000 0.99850  0.74230  0.96490  Biso   1.000  H
  H161     1.0000 0.53510  0.00150  0.24230  Biso   1.000  H
  H162     1.0000 0.24230  0.53510  0.00150  Biso   1.000  H
  H163     1.0000 0.96490  0.99850  0.74230  Biso   1.000  H
  H164     1.0000 0.75770  0.03510  0.49850  Biso   1.000  H
  H165     1.0000 0.03510  0.49850  0.75770  Biso   1.000  H
  H166     1.0000 0.25770  0.46490  0.50150  Biso   1.000  H
  H167     1.0000 0.46490  0.50150  0.25770  Biso   1.000  H
  H168     1.0000 0.74230  0.96490  0.99850  Biso   1.000  H
  C73      1.0000 0.06570  0.20300  0.62840  Biso   1.000  C
  C74      1.0000 0.43430  0.79700  0.12840  Biso   1.000  C
  C75      1.0000 0.56570  0.29700  0.37160  Biso   1.000  C
  C76      1.0000 0.93430  0.70300  0.87160  Biso   1.000  C
  C77      1.0000 0.62840  0.06570  0.20300  Biso   1.000  C
  C78      1.0000 0.20300  0.62840  0.06570  Biso   1.000  C
  C79      1.0000 0.87160  0.93430  0.70300  Biso   1.000  C
  C80      1.0000 0.79700  0.12840  0.43430  Biso   1.000  C
  C81      1.0000 0.12840  0.43430  0.79700  Biso   1.000  C
  C82      1.0000 0.29700  0.37160  0.56570  Biso   1.000  C
  C83      1.0000 0.37160  0.56570  0.29700  Biso   1.000  C
  C84      1.0000 0.70300  0.87160  0.93430  Biso   1.000  C
  C85      1.0000 0.01000  0.20620  0.68050  Biso   1.000  C
  C86      1.0000 0.49000  0.79380  0.18050  Biso   1.000  C
  C87      1.0000 0.51000  0.29380  0.31950  Biso   1.000  C
  C88      1.0000 0.99000  0.70620  0.81950  Biso   1.000  C
  C89      1.0000 0.68050  0.01000  0.20620  Biso   1.000  C
  C90      1.0000 0.20620  0.68050  0.01000  Biso   1.000  C
  C91      1.0000 0.81950  0.99000  0.70620  Biso   1.000  C
  C92      1.0000 0.79380  0.18050  0.49000  Biso   1.000  C
  C93      1.0000 0.18050  0.49000  0.79380  Biso   1.000  C
  C94      1.0000 0.29380  0.31950  0.51000  Biso   1.000  C
  C95      1.0000 0.31950  0.51000  0.29380  Biso   1.000  C
  C96      1.0000 0.70620  0.81950  0.99000  Biso   1.000  C
  H169     1.0000 0.97060  0.23920  0.67160  Biso   1.000  H
  H170     1.0000 0.52940  0.76080  0.17160  Biso   1.000  H
  H171     1.0000 0.47060  0.26080  0.32840  Biso   1.000  H
  H172     1.0000 0.02940  0.73920  0.82840  Biso   1.000  H
  H173     1.0000 0.67160  0.97060  0.23920  Biso   1.000  H
  H174     1.0000 0.23920  0.67160  0.97060  Biso   1.000  H
  H175     1.0000 0.82840  0.02940  0.73920  Biso   1.000  H
  H176     1.0000 0.76080  0.17160  0.52940  Biso   1.000  H
  H177     1.0000 0.17160  0.52940  0.76080  Biso   1.000  H
  H178     1.0000 0.26080  0.32840  0.47060  Biso   1.000  H
  H179     1.0000 0.32840  0.47060  0.26080  Biso   1.000  H
  H180     1.0000 0.73920  0.82840  0.02940  Biso   1.000  H
  C97      1.0000 0.05920  0.18730  0.61800  Biso   1.000  C
  C98      1.0000 0.44080  0.81270  0.11800  Biso   1.000  C
  C99      1.0000 0.55920  0.31270  0.38200  Biso   1.000  C
  C100     1.0000 0.94080  0.68730  0.88200  Biso   1.000  C
  C101     1.0000 0.61800  0.05920  0.18730  Biso   1.000  C
  C102     1.0000 0.18730  0.61800  0.05920  Biso   1.000  C
  C103     1.0000 0.88200  0.94080  0.68730  Biso   1.000  C
  C104     1.0000 0.81270  0.11800  0.44080  Biso   1.000  C
  C105     1.0000 0.11800  0.44080  0.81270  Biso   1.000  C
  C106     1.0000 0.31270  0.38200  0.55920  Biso   1.000  C
  C107     1.0000 0.38200  0.55920  0.31270  Biso   1.000  C
  C108     1.0000 0.68730  0.88200  0.94080  Biso   1.000  C
  C109     1.0000 0.00050  0.18890  0.67020  Biso   1.000  C
  C110     1.0000 0.49950  0.81110  0.17020  Biso   1.000  C
  C111     1.0000 0.50050  0.31110  0.32980  Biso   1.000  C
  C112     1.0000 0.99950  0.68890  0.82980  Biso   1.000  C
  C113     1.0000 0.67020  0.00050  0.18890  Biso   1.000  C
  C114     1.0000 0.18890  0.67020  0.00050  Biso   1.000  C
  C115     1.0000 0.82980  0.99950  0.68890  Biso   1.000  C
  C116     1.0000 0.81110  0.17020  0.49950  Biso   1.000  C
  C117     1.0000 0.17020  0.49950  0.81110  Biso   1.000  C
  C118     1.0000 0.31110  0.32980  0.50050  Biso   1.000  C
  C119     1.0000 0.32980  0.50050  0.31110  Biso   1.000  C
  C120     1.0000 0.68890  0.82980  0.99950  Biso   1.000  C
  H181     1.0000 0.95410  0.20690  0.65450  Biso   1.000  H
  H182     1.0000 0.54590  0.79310  0.15450  Biso   1.000  H
  H183     1.0000 0.45410  0.29310  0.34550  Biso   1.000  H
  H184     1.0000 0.04590  0.70690  0.84550  Biso   1.000  H
  H185     1.0000 0.65450  0.95410  0.20690  Biso   1.000  H
  H186     1.0000 0.20690  0.65450  0.95410  Biso   1.000  H
  H187     1.0000 0.84550  0.04590  0.70690  Biso   1.000  H
  H188     1.0000 0.79310  0.15450  0.54590  Biso   1.000  H
  H189     1.0000 0.15450  0.54590  0.79310  Biso   1.000  H
  H190     1.0000 0.29310  0.34550  0.45410  Biso   1.000  H
  H191     1.0000 0.34550  0.45410  0.29310  Biso   1.000  H
  H192     1.0000 0.70690  0.84550  0.04590  Biso   1.000  H
  C121     1.0000 0.00760  0.16530  0.74400  Biso   1.000  C
  C122     1.0000 0.49240  0.83470  0.24400  Biso   1.000  C
  C123     1.0000 0.50760  0.33470  0.25600  Biso   1.000  C
  C124     1.0000 0.99240  0.66530  0.75600  Biso   1.000  C
  C125     1.0000 0.74400  0.00760  0.16530  Biso   1.000  C
  C126     1.0000 0.16530  0.74400  0.00760  Biso   1.000  C
  C127     1.0000 0.75600  0.99240  0.66530  Biso   1.000  C
  C128     1.0000 0.83470  0.24400  0.49240  Biso   1.000  C
  C129     1.0000 0.24400  0.49240  0.83470  Biso   1.000  C
  C130     1.0000 0.33470  0.25600  0.50760  Biso   1.000  C
  C131     1.0000 0.25600  0.50760  0.33470  Biso   1.000  C
  C132     1.0000 0.66530  0.75600  0.99240  Biso   1.000  C
  C133     1.0000 0.94510  0.17340  0.79500  Biso   1.000  C
  C134     1.0000 0.55490  0.82660  0.29500  Biso   1.000  C
  C135     1.0000 0.44510  0.32660  0.20500  Biso   1.000  C
  C136     1.0000 0.05490  0.67340  0.70500  Biso   1.000  C
  C137     1.0000 0.79500  0.94510  0.17340  Biso   1.000  C
  C138     1.0000 0.17340  0.79500  0.94510  Biso   1.000  C
  C139     1.0000 0.70500  0.05490  0.67340  Biso   1.000  C
  C140     1.0000 0.82660  0.29500  0.55490  Biso   1.000  C
  C141     1.0000 0.29500  0.55490  0.82660  Biso   1.000  C
  C142     1.0000 0.32660  0.20500  0.44510  Biso   1.000  C
  C143     1.0000 0.20500  0.44510  0.32660  Biso   1.000  C
  C144     1.0000 0.67340  0.70500  0.05490  Biso   1.000  C
  C145     1.0000 0.93640  0.12430  0.85360  Biso   1.000  C
  C146     1.0000 0.56360  0.87570  0.35360  Biso   1.000  C
  C147     1.0000 0.43640  0.37570  0.14640  Biso   1.000  C
  C148     1.0000 0.06360  0.62430  0.64640  Biso   1.000  C
  C149     1.0000 0.85360  0.93640  0.12430  Biso   1.000  C
  C150     1.0000 0.12430  0.85360  0.93640  Biso   1.000  C
  C151     1.0000 0.64640  0.06360  0.62430  Biso   1.000  C
  C152     1.0000 0.87570  0.35360  0.56360  Biso   1.000  C
  C153     1.0000 0.35360  0.56360  0.87570  Biso   1.000  C
  C154     1.0000 0.37570  0.14640  0.43640  Biso   1.000  C
  C155     1.0000 0.14640  0.43640  0.37570  Biso   1.000  C
  C156     1.0000 0.62430  0.64640  0.06360  Biso   1.000  C
  H193     1.0000 0.97120  0.08590  0.86000  Biso   1.000  H
  H194     1.0000 0.52880  0.91410  0.36000  Biso   1.000  H
  H195     1.0000 0.47120  0.41410  0.14000  Biso   1.000  H
  H196     1.0000 0.02880  0.58590  0.64000  Biso   1.000  H
  H197     1.0000 0.86000  0.97120  0.08590  Biso   1.000  H
  H198     1.0000 0.08590  0.86000  0.97120  Biso   1.000  H
  H199     1.0000 0.64000  0.02880  0.58590  Biso   1.000  H
  H200     1.0000 0.91410  0.36000  0.52880  Biso   1.000  H
  H201     1.0000 0.36000  0.52880  0.91410  Biso   1.000  H
  H202     1.0000 0.41410  0.14000  0.47120  Biso   1.000  H
  H203     1.0000 0.14000  0.47120  0.41410  Biso   1.000  H
  H204     1.0000 0.58590  0.64000  0.02880  Biso   1.000  H
  C157     1.0000 0.87970  0.13010  0.90150  Biso   1.000  C
  C158     1.0000 0.62030  0.86990  0.40150  Biso   1.000  C
  C159     1.0000 0.37970  0.36990  0.09850  Biso   1.000  C
  C160     1.0000 0.12030  0.63010  0.59850  Biso   1.000  C
  C161     1.0000 0.90150  0.87970  0.13010  Biso   1.000  C
  C162     1.0000 0.13010  0.90150  0.87970  Biso   1.000  C
  C163     1.0000 0.59850  0.12030  0.63010  Biso   1.000  C
  C164     1.0000 0.86990  0.40150  0.62030  Biso   1.000  C
  C165     1.0000 0.40150  0.62030  0.86990  Biso   1.000  C
  C166     1.0000 0.36990  0.09850  0.37970  Biso   1.000  C
  C167     1.0000 0.09850  0.37970  0.36990  Biso   1.000  C
  C168     1.0000 0.63010  0.59850  0.12030  Biso   1.000  C
  H205     1.0000 0.87500  0.09500  0.93970  Biso   1.000  H
  H206     1.0000 0.62500  0.90500  0.43970  Biso   1.000  H
  H207     1.0000 0.37500  0.40500  0.06030  Biso   1.000  H
  H208     1.0000 0.12500  0.59500  0.56030  Biso   1.000  H
  H209     1.0000 0.93970  0.87500  0.09500  Biso   1.000  H
  H210     1.0000 0.09500  0.93970  0.87500  Biso   1.000  H
  H211     1.0000 0.56030  0.12500  0.59500  Biso   1.000  H
  H212     1.0000 0.90500  0.43970  0.62500  Biso   1.000  H
  H213     1.0000 0.43970  0.62500  0.90500  Biso   1.000  H
  H214     1.0000 0.40500  0.06030  0.37500  Biso   1.000  H
  H215     1.0000 0.06030  0.37500  0.40500  Biso   1.000  H
  H216     1.0000 0.59500  0.56030  0.12500  Biso   1.000  H
  C169     1.0000 0.82810  0.18660  0.89590  Biso   1.000  C
  C170     1.0000 0.67190  0.81340  0.39590  Biso   1.000  C
  C171     1.0000 0.32810  0.31340  0.10410  Biso   1.000  C
  C172     1.0000 0.17190  0.68660  0.60410  Biso   1.000  C
  C173     1.0000 0.89590  0.82810  0.18660  Biso   1.000  C
  C174     1.0000 0.18660  0.89590  0.82810  Biso   1.000  C
  C175     1.0000 0.60410  0.17190  0.68660  Biso   1.000  C
  C176     1.0000 0.81340  0.39590  0.67190  Biso   1.000  C
  C177     1.0000 0.39590  0.67190  0.81340  Biso   1.000  C
  C178     1.0000 0.31340  0.10410  0.32810  Biso   1.000  C
  C179     1.0000 0.10410  0.32810  0.31340  Biso   1.000  C
  C180     1.0000 0.68660  0.60410  0.17190  Biso   1.000  C
  C181     1.0000 0.83680  0.23530  0.83930  Biso   1.000  C
  C182     1.0000 0.66320  0.76470  0.33930  Biso   1.000  C
  C183     1.0000 0.33680  0.26470  0.16070  Biso   1.000  C
  C184     1.0000 0.16320  0.73530  0.66070  Biso   1.000  C
  C185     1.0000 0.83930  0.83680  0.23530  Biso   1.000  C
  C186     1.0000 0.23530  0.83930  0.83680  Biso   1.000  C
  C187     1.0000 0.66070  0.16320  0.73530  Biso   1.000  C
  C188     1.0000 0.76470  0.33930  0.66320  Biso   1.000  C
  C189     1.0000 0.33930  0.66320  0.76470  Biso   1.000  C
  C190     1.0000 0.26470  0.16070  0.33680  Biso   1.000  C
  C191     1.0000 0.16070  0.33680  0.26470  Biso   1.000  C
  C192     1.0000 0.73530  0.66070  0.16320  Biso   1.000  C
  H217     1.0000 0.80300  0.27470  0.83410  Biso   1.000  H
  H218     1.0000 0.69700  0.72530  0.33410  Biso   1.000  H
  H219     1.0000 0.30300  0.22530  0.16590  Biso   1.000  H
  H220     1.0000 0.19700  0.77470  0.66590  Biso   1.000  H
  H221     1.0000 0.83410  0.80300  0.27470  Biso   1.000  H
  H222     1.0000 0.27470  0.83410  0.80300  Biso   1.000  H
  H223     1.0000 0.66590  0.19700  0.77470  Biso   1.000  H
  H224     1.0000 0.72530  0.33410  0.69700  Biso   1.000  H
  H225     1.0000 0.33410  0.69700  0.72530  Biso   1.000  H
  H226     1.0000 0.22530  0.16590  0.30300  Biso   1.000  H
  H227     1.0000 0.16590  0.30300  0.22530  Biso   1.000  H
  H228     1.0000 0.77470  0.66590  0.19700  Biso   1.000  H
  C193     1.0000 0.89430  0.22850  0.78910  Biso   1.000  C
  C194     1.0000 0.60570  0.77150  0.28910  Biso   1.000  C
  C195     1.0000 0.39430  0.27150  0.21090  Biso   1.000  C
  C196     1.0000 0.10570  0.72850  0.71090  Biso   1.000  C
  C197     1.0000 0.78910  0.89430  0.22850  Biso   1.000  C
  C198     1.0000 0.22850  0.78910  0.89430  Biso   1.000  C
  C199     1.0000 0.71090  0.10570  0.72850  Biso   1.000  C
  C200     1.0000 0.77150  0.28910  0.60570  Biso   1.000  C
  C201     1.0000 0.28910  0.60570  0.77150  Biso   1.000  C
  C202     1.0000 0.27150  0.21090  0.39430  Biso   1.000  C
  C203     1.0000 0.21090  0.39430  0.27150  Biso   1.000  C
  C204     1.0000 0.72850  0.71090  0.10570  Biso   1.000  C
  H229     1.0000 0.89820  0.26290  0.75000  Biso   1.000  H
  H230     1.0000 0.60180  0.73710  0.25000  Biso   1.000  H
  H231     1.0000 0.39820  0.23710  0.25000  Biso   1.000  H
  H232     1.0000 0.10180  0.76290  0.75000  Biso   1.000  H
  H233     1.0000 0.75000  0.89820  0.26290  Biso   1.000  H
  H234     1.0000 0.26290  0.75000  0.89820  Biso   1.000  H
  H235     1.0000 0.75000  0.10180  0.76290  Biso   1.000  H
  H236     1.0000 0.73710  0.25000  0.60180  Biso   1.000  H
  H237     1.0000 0.25000  0.60180  0.73710  Biso   1.000  H
  H238     1.0000 0.23710  0.25000  0.39820  Biso   1.000  H
  H239     1.0000 0.25000  0.39820  0.23710  Biso   1.000  H
  H240     1.0000 0.76290  0.75000  0.10180  Biso   1.000  H
  C205     1.0000 0.76780  0.19120  0.95100  Biso   1.000  C
  C206     1.0000 0.73220  0.80880  0.45100  Biso   1.000  C
  C207     1.0000 0.26780  0.30880  0.04900  Biso   1.000  C
  C208     1.0000 0.23220  0.69120  0.54900  Biso   1.000  C
  C209     1.0000 0.95100  0.76780  0.19120  Biso   1.000  C
  C210     1.0000 0.19120  0.95100  0.76780  Biso   1.000  C
  C211     1.0000 0.54900  0.23220  0.69120  Biso   1.000  C
  C212     1.0000 0.80880  0.45100  0.73220  Biso   1.000  C
  C213     1.0000 0.45100  0.73220  0.80880  Biso   1.000  C
  C214     1.0000 0.30880  0.04900  0.26780  Biso   1.000  C
  C215     1.0000 0.04900  0.26780  0.30880  Biso   1.000  C
  C216     1.0000 0.69120  0.54900  0.23220  Biso   1.000  C
  C217     1.0000 0.70530  0.23430  0.93630  Biso   1.000  C
  C218     1.0000 0.79470  0.76570  0.43630  Biso   1.000  C
  C219     1.0000 0.20530  0.26570  0.06370  Biso   1.000  C
  C220     1.0000 0.29470  0.73430  0.56370  Biso   1.000  C
  C221     1.0000 0.93630  0.70530  0.23430  Biso   1.000  C
  C222     1.0000 0.23430  0.93630  0.70530  Biso   1.000  C
  C223     1.0000 0.56370  0.29470  0.73430  Biso   1.000  C
  C224     1.0000 0.76570  0.43630  0.79470  Biso   1.000  C
  C225     1.0000 0.43630  0.79470  0.76570  Biso   1.000  C
  C226     1.0000 0.26570  0.06370  0.20530  Biso   1.000  C
  C227     1.0000 0.06370  0.20530  0.26570  Biso   1.000  C
  C228     1.0000 0.73430  0.56370  0.29470  Biso   1.000  C
  H241     1.0000 0.70400  0.26100  0.89150  Biso   1.000  H
  H242     1.0000 0.79600  0.73900  0.39150  Biso   1.000  H
  H243     1.0000 0.20400  0.23900  0.10850  Biso   1.000  H
  H244     1.0000 0.29600  0.76100  0.60850  Biso   1.000  H
  H245     1.0000 0.89150  0.70400  0.26100  Biso   1.000  H
  H246     1.0000 0.26100  0.89150  0.70400  Biso   1.000  H
  H247     1.0000 0.60850  0.29600  0.76100  Biso   1.000  H
  H248     1.0000 0.73900  0.39150  0.79600  Biso   1.000  H
  H249     1.0000 0.39150  0.79600  0.73900  Biso   1.000  H
  H250     1.0000 0.23900  0.10850  0.20400  Biso   1.000  H
  H251     1.0000 0.10850  0.20400  0.23900  Biso   1.000  H
  H252     1.0000 0.76100  0.60850  0.29600  Biso   1.000  H
  C229     1.0000 0.64460  0.24020  0.98360  Biso   1.000  C
  C230     1.0000 0.85540  0.75980  0.48360  Biso   1.000  C
  C231     1.0000 0.14460  0.25980  0.01640  Biso   1.000  C
  C232     1.0000 0.35540  0.74020  0.51640  Biso   1.000  C
  C233     1.0000 0.98360  0.64460  0.24020  Biso   1.000  C
  C234     1.0000 0.24020  0.98360  0.64460  Biso   1.000  C
  C235     1.0000 0.51640  0.35540  0.74020  Biso   1.000  C
  C236     1.0000 0.75980  0.48360  0.85540  Biso   1.000  C
  C237     1.0000 0.48360  0.85540  0.75980  Biso   1.000  C
  C238     1.0000 0.25980  0.01640  0.14460  Biso   1.000  C
  C239     1.0000 0.01640  0.14460  0.25980  Biso   1.000  C
  C240     1.0000 0.74020  0.51640  0.35540  Biso   1.000  C
  C241     1.0000 0.58160  0.28640  0.96040  Biso   1.000  C
  C242     1.0000 0.91840  0.71360  0.46040  Biso   1.000  C
  C243     1.0000 0.08160  0.21360  0.03960  Biso   1.000  C
  C244     1.0000 0.41840  0.78640  0.53960  Biso   1.000  C
  C245     1.0000 0.96040  0.58160  0.28640  Biso   1.000  C
  C246     1.0000 0.28640  0.96040  0.58160  Biso   1.000  C
  C247     1.0000 0.53960  0.41840  0.78640  Biso   1.000  C
  C248     1.0000 0.71360  0.46040  0.91840  Biso   1.000  C
  C249     1.0000 0.46040  0.91840  0.71360  Biso   1.000  C
  C250     1.0000 0.21360  0.03960  0.08160  Biso   1.000  C
  C251     1.0000 0.03960  0.08160  0.21360  Biso   1.000  C
  C252     1.0000 0.78640  0.53960  0.41840  Biso   1.000  C
  H253     1.0000 0.58850  0.33660  0.98010  Biso   1.000  H
  H254     1.0000 0.91150  0.66340  0.48010  Biso   1.000  H
  H255     1.0000 0.08850  0.16340  0.01990  Biso   1.000  H
  H256     1.0000 0.41150  0.83660  0.51990  Biso   1.000  H
  H257     1.0000 0.98010  0.58850  0.33660  Biso   1.000  H
  H258     1.0000 0.33660  0.98010  0.58850  Biso   1.000  H
  H259     1.0000 0.51990  0.41150  0.83660  Biso   1.000  H
  H260     1.0000 0.66340  0.48010  0.91150  Biso   1.000  H
  H261     1.0000 0.48010  0.91150  0.66340  Biso   1.000  H
  H262     1.0000 0.16340  0.01990  0.08850  Biso   1.000  H
  H263     1.0000 0.01990  0.08850  0.16340  Biso   1.000  H
  H264     1.0000 0.83660  0.51990  0.41150  Biso   1.000  H
  H265     1.0000 0.58150  0.28980  0.90610  Biso   1.000  H
  H266     1.0000 0.91850  0.71020  0.40610  Biso   1.000  H
  H267     1.0000 0.08150  0.21020  0.09390  Biso   1.000  H
  H268     1.0000 0.41850  0.78980  0.59390  Biso   1.000  H
  H269     1.0000 0.90610  0.58150  0.28980  Biso   1.000  H
  H270     1.0000 0.28980  0.90610  0.58150  Biso   1.000  H
  H271     1.0000 0.59390  0.41850  0.78980  Biso   1.000  H
  H272     1.0000 0.71020  0.40610  0.91850  Biso   1.000  H
  H273     1.0000 0.40610  0.91850  0.71020  Biso   1.000  H
  H274     1.0000 0.21020  0.09390  0.08150  Biso   1.000  H
  H275     1.0000 0.09390  0.08150  0.21020  Biso   1.000  H
  H276     1.0000 0.78980  0.59390  0.41850  Biso   1.000  H
  C253     1.0000 0.50980  0.25840  0.98490  Biso   1.000  C
  C254     1.0000 0.99020  0.74160  0.48490  Biso   1.000  C
  C255     1.0000 0.00980  0.24160  0.01510  Biso   1.000  C
  C256     1.0000 0.49020  0.75840  0.51510  Biso   1.000  C
  C257     1.0000 0.98490  0.50980  0.25840  Biso   1.000  C
  C258     1.0000 0.25840  0.98490  0.50980  Biso   1.000  C
  C259     1.0000 0.51510  0.49020  0.75840  Biso   1.000  C
  C260     1.0000 0.74160  0.48490  0.99020  Biso   1.000  C
  C261     1.0000 0.48490  0.99020  0.74160  Biso   1.000  C
  C262     1.0000 0.24160  0.01510  0.00980  Biso   1.000  C
  C263     1.0000 0.01510  0.00980  0.24160  Biso   1.000  C
  C264     1.0000 0.75840  0.51510  0.49020  Biso   1.000  C
  H277     1.0000 0.50430  0.27970  0.03460  Biso   1.000  H
  H278     1.0000 0.99570  0.72030  0.53460  Biso   1.000  H
  H279     1.0000 0.00430  0.22030  0.96540  Biso   1.000  H
  H280     1.0000 0.49570  0.77970  0.46540  Biso   1.000  H
  H281     1.0000 0.03460  0.50430  0.27970  Biso   1.000  H
  H282     1.0000 0.27970  0.03460  0.50430  Biso   1.000  H
  H283     1.0000 0.46540  0.49570  0.77970  Biso   1.000  H
  H284     1.0000 0.72030  0.53460  0.99570  Biso   1.000  H
  H285     1.0000 0.53460  0.99570  0.72030  Biso   1.000  H
  H286     1.0000 0.22030  0.96540  0.00430  Biso   1.000  H
  H287     1.0000 0.96540  0.00430  0.22030  Biso   1.000  H
  H288     1.0000 0.77970  0.46540  0.49570  Biso   1.000  H
  H289     1.0000 0.47440  0.28540  0.95370  Biso   1.000  H
  H290     1.0000 0.02560  0.71460  0.45370  Biso   1.000  H
  H291     1.0000 0.97440  0.21460  0.04630  Biso   1.000  H
  H292     1.0000 0.52560  0.78540  0.54630  Biso   1.000  H
  H293     1.0000 0.95370  0.47440  0.28540  Biso   1.000  H
  H294     1.0000 0.28540  0.95370  0.47440  Biso   1.000  H
  H295     1.0000 0.54630  0.52560  0.78540  Biso   1.000  H
  H296     1.0000 0.71460  0.45370  0.02560  Biso   1.000  H
  H297     1.0000 0.45370  0.02560  0.71460  Biso   1.000  H
  H298     1.0000 0.21460  0.04630  0.97440  Biso   1.000  H
  H299     1.0000 0.04630  0.97440  0.21460  Biso   1.000  H
  H300     1.0000 0.78540  0.54630  0.52560  Biso   1.000  H
  C265     1.0000 0.48010  0.19330  0.99130  Biso   1.000  C
  C266     1.0000 0.01990  0.80670  0.49130  Biso   1.000  C
  C267     1.0000 0.98010  0.30670  0.00870  Biso   1.000  C
  C268     1.0000 0.51990  0.69330  0.50870  Biso   1.000  C
  C269     1.0000 0.99130  0.48010  0.19330  Biso   1.000  C
  C270     1.0000 0.19330  0.99130  0.48010  Biso   1.000  C
  C271     1.0000 0.50870  0.51990  0.69330  Biso   1.000  C
  C272     1.0000 0.80670  0.49130  0.01990  Biso   1.000  C
  C273     1.0000 0.49130  0.01990  0.80670  Biso   1.000  C
  C274     1.0000 0.30670  0.00870  0.98010  Biso   1.000  C
  C275     1.0000 0.00870  0.98010  0.30670  Biso   1.000  C
  C276     1.0000 0.69330  0.50870  0.51990  Biso   1.000  C
  H301     1.0000 0.43060  0.19810  0.01190  Biso   1.000  H
  H302     1.0000 0.06940  0.80190  0.51190  Biso   1.000  H
  H303     1.0000 0.93060  0.30190  0.98810  Biso   1.000  H
  H304     1.0000 0.56940  0.69810  0.48810  Biso   1.000  H
  H305     1.0000 0.01190  0.43060  0.19810  Biso   1.000  H
  H306     1.0000 0.19810  0.01190  0.43060  Biso   1.000  H
  H307     1.0000 0.48810  0.56940  0.69810  Biso   1.000  H
  H308     1.0000 0.80190  0.51190  0.06940  Biso   1.000  H
  H309     1.0000 0.51190  0.06940  0.80190  Biso   1.000  H
  H310     1.0000 0.30190  0.98810  0.93060  Biso   1.000  H
  H311     1.0000 0.98810  0.93060  0.30190  Biso   1.000  H
  H312     1.0000 0.69810  0.48810  0.56940  Biso   1.000  H
  H313     1.0000 0.51030  0.16290  0.02400  Biso   1.000  H
  H314     1.0000 0.98970  0.83710  0.52400  Biso   1.000  H
  H315     1.0000 0.01030  0.33710  0.97600  Biso   1.000  H
  H316     1.0000 0.48970  0.66290  0.47600  Biso   1.000  H
  H317     1.0000 0.02400  0.51030  0.16290  Biso   1.000  H
  H318     1.0000 0.16290  0.02400  0.51030  Biso   1.000  H
  H319     1.0000 0.47600  0.48970  0.66290  Biso   1.000  H
  H320     1.0000 0.83710  0.52400  0.98970  Biso   1.000  H
  H321     1.0000 0.52400  0.98970  0.83710  Biso   1.000  H
  H322     1.0000 0.33710  0.97600  0.01030  Biso   1.000  H
  H323     1.0000 0.97600  0.01030  0.33710  Biso   1.000  H
  H324     1.0000 0.66290  0.47600  0.48970  Biso   1.000  H
  H325     1.0000 0.47730  0.17000  0.94290  Biso   1.000  H
  H326     1.0000 0.02270  0.83000  0.44290  Biso   1.000  H
  H327     1.0000 0.97730  0.33000  0.05710  Biso   1.000  H
  H328     1.0000 0.52270  0.67000  0.55710  Biso   1.000  H
  H329     1.0000 0.94290  0.47730  0.17000  Biso   1.000  H
  H330     1.0000 0.17000  0.94290  0.47730  Biso   1.000  H
  H331     1.0000 0.55710  0.52270  0.67000  Biso   1.000  H
  H332     1.0000 0.83000  0.44290  0.02270  Biso   1.000  H
  H333     1.0000 0.44290  0.02270  0.83000  Biso   1.000  H
  H334     1.0000 0.33000  0.05710  0.97730  Biso   1.000  H
  H335     1.0000 0.05710  0.97730  0.33000  Biso   1.000  H
  H336     1.0000 0.67000  0.55710  0.52270  Biso   1.000  H
  H337     1.0000 0.56510  0.31640  0.00260  Biso   1.000  H
  H338     1.0000 0.93490  0.68360  0.50260  Biso   1.000  H
  H339     1.0000 0.06510  0.18360  0.99740  Biso   1.000  H
  H340     1.0000 0.43490  0.81640  0.49740  Biso   1.000  H
  H341     1.0000 0.00260  0.56510  0.31640  Biso   1.000  H
  H342     1.0000 0.31640  0.00260  0.56510  Biso   1.000  H
  H343     1.0000 0.49740  0.43490  0.81640  Biso   1.000  H
  H344     1.0000 0.68360  0.50260  0.93490  Biso   1.000  H
  H345     1.0000 0.50260  0.93490  0.68360  Biso   1.000  H
  H346     1.0000 0.18360  0.99740  0.06510  Biso   1.000  H
  H347     1.0000 0.99740  0.06510  0.18360  Biso   1.000  H
  H348     1.0000 0.81640  0.49740  0.43490  Biso   1.000  H
  H349     1.0000 0.59810  0.32040  0.92130  Biso   1.000  H
  H350     1.0000 0.90190  0.67960  0.42130  Biso   1.000  H
  H351     1.0000 0.09810  0.17960  0.07870  Biso   1.000  H
  H352     1.0000 0.40190  0.82040  0.57870  Biso   1.000  H
  H353     1.0000 0.92130  0.59810  0.32040  Biso   1.000  H
  H354     1.0000 0.32040  0.92130  0.59810  Biso   1.000  H
  H355     1.0000 0.57870  0.40190  0.82040  Biso   1.000  H
  H356     1.0000 0.67960  0.42130  0.90190  Biso   1.000  H
  H357     1.0000 0.42130  0.90190  0.67960  Biso   1.000  H
  H358     1.0000 0.17960  0.07870  0.09810  Biso   1.000  H
  H359     1.0000 0.07870  0.09810  0.17960  Biso   1.000  H
  H360     1.0000 0.82040  0.57870  0.40190  Biso   1.000  H
  C277     1.0000 0.52320  0.24560  0.93470  Biso   1.000  C
  C278     1.0000 0.97680  0.75440  0.43470  Biso   1.000  C
  C279     1.0000 0.02320  0.25440  0.06530  Biso   1.000  C
  C280     1.0000 0.47680  0.74560  0.56530  Biso   1.000  C
  C281     1.0000 0.93470  0.52320  0.24560  Biso   1.000  C
  C282     1.0000 0.24560  0.93470  0.52320  Biso   1.000  C
  C283     1.0000 0.56530  0.47680  0.74560  Biso   1.000  C
  C284     1.0000 0.75440  0.43470  0.97680  Biso   1.000  C
  C285     1.0000 0.43470  0.97680  0.75440  Biso   1.000  C
  C286     1.0000 0.25440  0.06530  0.02320  Biso   1.000  C
  C287     1.0000 0.06530  0.02320  0.25440  Biso   1.000  C
  C288     1.0000 0.74560  0.56530  0.47680  Biso   1.000  C
  H361     1.0000 0.48050  0.27720  0.94630  Biso   1.000  H
  H362     1.0000 0.01950  0.72280  0.44630  Biso   1.000  H
  H363     1.0000 0.98050  0.22280  0.05370  Biso   1.000  H
  H364     1.0000 0.51950  0.77720  0.55370  Biso   1.000  H
  H365     1.0000 0.94630  0.48050  0.27720  Biso   1.000  H
  H366     1.0000 0.27720  0.94630  0.48050  Biso   1.000  H
  H367     1.0000 0.55370  0.51950  0.77720  Biso   1.000  H
  H368     1.0000 0.72280  0.44630  0.01950  Biso   1.000  H
  H369     1.0000 0.44630  0.01950  0.72280  Biso   1.000  H
  H370     1.0000 0.22280  0.05370  0.98050  Biso   1.000  H
  H371     1.0000 0.05370  0.98050  0.22280  Biso   1.000  H
  H372     1.0000 0.77720  0.55370  0.51950  Biso   1.000  H
  H373     1.0000 0.52900  0.24900  0.88080  Biso   1.000  H
  H374     1.0000 0.97100  0.75100  0.38080  Biso   1.000  H
  H375     1.0000 0.02900  0.25100  0.11920  Biso   1.000  H
  H376     1.0000 0.47100  0.74900  0.61920  Biso   1.000  H
  H377     1.0000 0.88080  0.52900  0.24900  Biso   1.000  H
  H378     1.0000 0.24900  0.88080  0.52900  Biso   1.000  H
  H379     1.0000 0.61920  0.47100  0.74900  Biso   1.000  H
  H380     1.0000 0.75100  0.38080  0.97100  Biso   1.000  H
  H381     1.0000 0.38080  0.97100  0.75100  Biso   1.000  H
  H382     1.0000 0.25100  0.11920  0.02900  Biso   1.000  H
  H383     1.0000 0.11920  0.02900  0.25100  Biso   1.000  H
  H384     1.0000 0.74900  0.61920  0.47100  Biso   1.000  H
  C289     1.0000 0.49710  0.18030  0.94350  Biso   1.000  C
  C290     1.0000 0.00290  0.81970  0.44350  Biso   1.000  C
  C291     1.0000 0.99710  0.31970  0.05650  Biso   1.000  C
  C292     1.0000 0.50290  0.68030  0.55650  Biso   1.000  C
  C293     1.0000 0.94350  0.49710  0.18030  Biso   1.000  C
  C294     1.0000 0.18030  0.94350  0.49710  Biso   1.000  C
  C295     1.0000 0.55650  0.50290  0.68030  Biso   1.000  C
  C296     1.0000 0.81970  0.44350  0.00290  Biso   1.000  C
  C297     1.0000 0.44350  0.00290  0.81970  Biso   1.000  C
  C298     1.0000 0.31970  0.05650  0.99710  Biso   1.000  C
  C299     1.0000 0.05650  0.99710  0.31970  Biso   1.000  C
  C300     1.0000 0.68030  0.55650  0.50290  Biso   1.000  C
  H385     1.0000 0.45040  0.17590  0.91700  Biso   1.000  H
  H386     1.0000 0.04960  0.82410  0.41700  Biso   1.000  H
  H387     1.0000 0.95040  0.32410  0.08300  Biso   1.000  H
  H388     1.0000 0.54960  0.67590  0.58300  Biso   1.000  H
  H389     1.0000 0.91700  0.45040  0.17590  Biso   1.000  H
  H390     1.0000 0.17590  0.91700  0.45040  Biso   1.000  H
  H391     1.0000 0.58300  0.54960  0.67590  Biso   1.000  H
  H392     1.0000 0.82410  0.41700  0.04960  Biso   1.000  H
  H393     1.0000 0.41700  0.04960  0.82410  Biso   1.000  H
  H394     1.0000 0.32410  0.08300  0.95040  Biso   1.000  H
  H395     1.0000 0.08300  0.95040  0.32410  Biso   1.000  H
  H396     1.0000 0.67590  0.58300  0.54960  Biso   1.000  H
  H397     1.0000 0.48890  0.17110  0.99590  Biso   1.000  H
  H398     1.0000 0.01110  0.82890  0.49590  Biso   1.000  H
  H399     1.0000 0.98890  0.32890  0.00410  Biso   1.000  H
  H400     1.0000 0.51110  0.67110  0.50410  Biso   1.000  H
  H401     1.0000 0.99590  0.48890  0.17110  Biso   1.000  H
  H402     1.0000 0.17110  0.99590  0.48890  Biso   1.000  H
  H403     1.0000 0.50410  0.51110  0.67110  Biso   1.000  H
  H404     1.0000 0.82890  0.49590  0.01110  Biso   1.000  H
  H405     1.0000 0.49590  0.01110  0.82890  Biso   1.000  H
  H406     1.0000 0.32890  0.00410  0.98890  Biso   1.000  H
  H407     1.0000 0.00410  0.98890  0.32890  Biso   1.000  H
  H408     1.0000 0.67110  0.50410  0.51110  Biso   1.000  H
  H409     1.0000 0.53210  0.14420  0.92420  Biso   1.000  H
  H410     1.0000 0.96790  0.85580  0.42420  Biso   1.000  H
  H411     1.0000 0.03210  0.35580  0.07580  Biso   1.000  H
  H412     1.0000 0.46790  0.64420  0.57580  Biso   1.000  H
  H413     1.0000 0.92420  0.53210  0.14420  Biso   1.000  H
  H414     1.0000 0.14420  0.92420  0.53210  Biso   1.000  H
  H415     1.0000 0.57580  0.46790  0.64420  Biso   1.000  H
  H416     1.0000 0.85580  0.42420  0.96790  Biso   1.000  H
  H417     1.0000 0.42420  0.96790  0.85580  Biso   1.000  H
  H418     1.0000 0.35580  0.07580  0.03210  Biso   1.000  H
  H419     1.0000 0.07580  0.03210  0.35580  Biso   1.000  H
  H420     1.0000 0.64420  0.57580  0.46790  Biso   1.000  H
  H421     1.0000 0.53600  0.25700  0.96260  Biso   1.000  H
  H422     1.0000 0.96400  0.74300  0.46260  Biso   1.000  H
  H423     1.0000 0.03600  0.24300  0.03740  Biso   1.000  H
  H424     1.0000 0.46400  0.75700  0.53740  Biso   1.000  H
  H425     1.0000 0.96260  0.53600  0.25700  Biso   1.000  H
  H426     1.0000 0.25700  0.96260  0.53600  Biso   1.000  H
  H427     1.0000 0.53740  0.46400  0.75700  Biso   1.000  H
  H428     1.0000 0.74300  0.46260  0.96400  Biso   1.000  H
  H429     1.0000 0.46260  0.96400  0.74300  Biso   1.000  H
  H430     1.0000 0.24300  0.03740  0.03600  Biso   1.000  H
  H431     1.0000 0.03740  0.03600  0.24300  Biso   1.000  H
  H432     1.0000 0.75700  0.53740  0.46400  Biso   1.000  H
  H433     1.0000 0.58890  0.30210  0.90880  Biso   1.000  H
  H434     1.0000 0.91110  0.69790  0.40880  Biso   1.000  H
  H435     1.0000 0.08890  0.19790  0.09120  Biso   1.000  H
  H436     1.0000 0.41110  0.80210  0.59120  Biso   1.000  H
  H437     1.0000 0.90880  0.58890  0.30210  Biso   1.000  H
  H438     1.0000 0.30210  0.90880  0.58890  Biso   1.000  H
  H439     1.0000 0.59120  0.41110  0.80210  Biso   1.000  H
  H440     1.0000 0.69790  0.40880  0.91110  Biso   1.000  H
  H441     1.0000 0.40880  0.91110  0.69790  Biso   1.000  H
  H442     1.0000 0.19790  0.09120  0.08890  Biso   1.000  H
  H443     1.0000 0.09120  0.08890  0.19790  Biso   1.000  H
  H444     1.0000 0.80210  0.59120  0.41110  Biso   1.000  H
  C301     1.0000 0.57300  0.35720  0.01130  Biso   1.000  C
  C302     1.0000 0.92700  0.64280  0.51130  Biso   1.000  C
  C303     1.0000 0.07300  0.14280  0.98870  Biso   1.000  C
  C304     1.0000 0.42700  0.85720  0.48870  Biso   1.000  C
  C305     1.0000 0.01130  0.57300  0.35720  Biso   1.000  C
  C306     1.0000 0.35720  0.01130  0.57300  Biso   1.000  C
  C307     1.0000 0.48870  0.42700  0.85720  Biso   1.000  C
  C308     1.0000 0.64280  0.51130  0.92700  Biso   1.000  C
  C309     1.0000 0.51130  0.92700  0.64280  Biso   1.000  C
  C310     1.0000 0.14280  0.98870  0.07300  Biso   1.000  C
  C311     1.0000 0.98870  0.07300  0.14280  Biso   1.000  C
  C312     1.0000 0.85720  0.48870  0.42700  Biso   1.000  C
  H445     1.0000 0.55410  0.34110  0.05960  Biso   1.000  H
  H446     1.0000 0.94590  0.65890  0.55960  Biso   1.000  H
  H447     1.0000 0.05410  0.15890  0.94040  Biso   1.000  H
  H448     1.0000 0.44590  0.84110  0.44040  Biso   1.000  H
  H449     1.0000 0.05960  0.55410  0.34110  Biso   1.000  H
  H450     1.0000 0.34110  0.05960  0.55410  Biso   1.000  H
  H451     1.0000 0.44040  0.44590  0.84110  Biso   1.000  H
  H452     1.0000 0.65890  0.55960  0.94590  Biso   1.000  H
  H453     1.0000 0.55960  0.94590  0.65890  Biso   1.000  H
  H454     1.0000 0.15890  0.94040  0.05410  Biso   1.000  H
  H455     1.0000 0.94040  0.05410  0.15890  Biso   1.000  H
  H456     1.0000 0.84110  0.44040  0.44590  Biso   1.000  H
  H457     1.0000 0.62240  0.37830  0.01940  Biso   1.000  H
  H458     1.0000 0.87760  0.62170  0.51940  Biso   1.000  H
  H459     1.0000 0.12240  0.12170  0.98060  Biso   1.000  H
  H460     1.0000 0.37760  0.87830  0.48060  Biso   1.000  H
  H461     1.0000 0.01940  0.62240  0.37830  Biso   1.000  H
  H462     1.0000 0.37830  0.01940  0.62240  Biso   1.000  H
  H463     1.0000 0.48060  0.37760  0.87830  Biso   1.000  H
  H464     1.0000 0.62170  0.51940  0.87760  Biso   1.000  H
  H465     1.0000 0.51940  0.87760  0.62170  Biso   1.000  H
  H466     1.0000 0.12170  0.98060  0.12240  Biso   1.000  H
  H467     1.0000 0.98060  0.12240  0.12170  Biso   1.000  H
  H468     1.0000 0.87830  0.48060  0.37760  Biso   1.000  H
  C313     1.0000 0.52830  0.41160  0.98580  Biso   1.000  C
  C314     1.0000 0.97170  0.58840  0.48580  Biso   1.000  C
  C315     1.0000 0.02830  0.08840  0.01420  Biso   1.000  C
  C316     1.0000 0.47170  0.91160  0.51420  Biso   1.000  C
  C317     1.0000 0.98580  0.52830  0.41160  Biso   1.000  C
  C318     1.0000 0.41160  0.98580  0.52830  Biso   1.000  C
  C319     1.0000 0.51420  0.47170  0.91160  Biso   1.000  C
  C320     1.0000 0.58840  0.48580  0.97170  Biso   1.000  C
  C321     1.0000 0.48580  0.97170  0.58840  Biso   1.000  C
  C322     1.0000 0.08840  0.01420  0.02830  Biso   1.000  C
  C323     1.0000 0.01420  0.02830  0.08840  Biso   1.000  C
  C324     1.0000 0.91160  0.51420  0.47170  Biso   1.000  C
  H469     1.0000 0.53030  0.45370  0.01940  Biso   1.000  H
  H470     1.0000 0.96970  0.54630  0.51940  Biso   1.000  H
  H471     1.0000 0.03030  0.04630  0.98060  Biso   1.000  H
  H472     1.0000 0.46970  0.95370  0.48060  Biso   1.000  H
  H473     1.0000 0.01940  0.53030  0.45370  Biso   1.000  H
  H474     1.0000 0.45370  0.01940  0.53030  Biso   1.000  H
  H475     1.0000 0.48060  0.46970  0.95370  Biso   1.000  H
  H476     1.0000 0.54630  0.51940  0.96970  Biso   1.000  H
  H477     1.0000 0.51940  0.96970  0.54630  Biso   1.000  H
  H478     1.0000 0.04630  0.98060  0.03030  Biso   1.000  H
  H479     1.0000 0.98060  0.03030  0.04630  Biso   1.000  H
  H480     1.0000 0.95370  0.48060  0.46970  Biso   1.000  H
  H481     1.0000 0.47770  0.39340  0.98290  Biso   1.000  H
  H482     1.0000 0.02230  0.60660  0.48290  Biso   1.000  H
  H483     1.0000 0.97770  0.10660  0.01710  Biso   1.000  H
  H484     1.0000 0.52230  0.89340  0.51710  Biso   1.000  H
  H485     1.0000 0.98290  0.47770  0.39340  Biso   1.000  H
  H486     1.0000 0.39340  0.98290  0.47770  Biso   1.000  H
  H487     1.0000 0.51710  0.52230  0.89340  Biso   1.000  H
  H488     1.0000 0.60660  0.48290  0.02230  Biso   1.000  H
  H489     1.0000 0.48290  0.02230  0.60660  Biso   1.000  H
  H490     1.0000 0.10660  0.01710  0.97770  Biso   1.000  H
  H491     1.0000 0.01710  0.97770  0.10660  Biso   1.000  H
  H492     1.0000 0.89340  0.51710  0.52230  Biso   1.000  H
  H493     1.0000 0.54470  0.42690  0.93690  Biso   1.000  H
  H494     1.0000 0.95530  0.57310  0.43690  Biso   1.000  H
  H495     1.0000 0.04470  0.07310  0.06310  Biso   1.000  H
  H496     1.0000 0.45530  0.92690  0.56310  Biso   1.000  H
  H497     1.0000 0.93690  0.54470  0.42690  Biso   1.000  H
  H498     1.0000 0.42690  0.93690  0.54470  Biso   1.000  H
  H499     1.0000 0.56310  0.45530  0.92690  Biso   1.000  H
  H500     1.0000 0.57310  0.43690  0.95530  Biso   1.000  H
  H501     1.0000 0.43690  0.95530  0.57310  Biso   1.000  H
  H502     1.0000 0.07310  0.06310  0.04470  Biso   1.000  H
  H503     1.0000 0.06310  0.04470  0.07310  Biso   1.000  H
  H504     1.0000 0.92690  0.56310  0.45530  Biso   1.000  H
  C325     1.0000 0.27870  0.11810  0.80640  Biso   1.000  C
  C326     1.0000 0.22130  0.88190  0.30640  Biso   1.000  C
  C327     1.0000 0.77870  0.38190  0.19360  Biso   1.000  C
  C328     1.0000 0.72130  0.61810  0.69360  Biso   1.000  C
  C329     1.0000 0.80640  0.27870  0.11810  Biso   1.000  C
  C330     1.0000 0.11810  0.80640  0.27870  Biso   1.000  C
  C331     1.0000 0.69360  0.72130  0.61810  Biso   1.000  C
  C332     1.0000 0.88190  0.30640  0.22130  Biso   1.000  C
  C333     1.0000 0.30640  0.22130  0.88190  Biso   1.000  C
  C334     1.0000 0.38190  0.19360  0.77870  Biso   1.000  C
  C335     1.0000 0.19360  0.77870  0.38190  Biso   1.000  C
  C336     1.0000 0.61810  0.69360  0.72130  Biso   1.000  C
  H505     1.0000 0.29950  0.07730  0.77700  Biso   1.000  H
  H506     1.0000 0.20050  0.92270  0.27700  Biso   1.000  H
  H507     1.0000 0.79950  0.42270  0.22300  Biso   1.000  H
  H508     1.0000 0.70050  0.57730  0.72300  Biso   1.000  H
  H509     1.0000 0.77700  0.29950  0.07730  Biso   1.000  H
  H510     1.0000 0.07730  0.77700  0.29950  Biso   1.000  H
  H511     1.0000 0.72300  0.70050  0.57730  Biso   1.000  H
  H512     1.0000 0.92270  0.27700  0.20050  Biso   1.000  H
  H513     1.0000 0.27700  0.20050  0.92270  Biso   1.000  H
  H514     1.0000 0.42270  0.22300  0.79950  Biso   1.000  H
  H515     1.0000 0.22300  0.79950  0.42270  Biso   1.000  H
  H516     1.0000 0.57730  0.72300  0.70050  Biso   1.000  H
  H517     1.0000 0.24860  0.09640  0.84610  Biso   1.000  H
  H518     1.0000 0.25140  0.90360  0.34610  Biso   1.000  H
  H519     1.0000 0.74860  0.40360  0.15390  Biso   1.000  H
  H520     1.0000 0.75140  0.59640  0.65390  Biso   1.000  H
  H521     1.0000 0.84610  0.24860  0.09640  Biso   1.000  H
  H522     1.0000 0.09640  0.84610  0.24860  Biso   1.000  H
  H523     1.0000 0.65390  0.75140  0.59640  Biso   1.000  H
  H524     1.0000 0.90360  0.34610  0.25140  Biso   1.000  H
  H525     1.0000 0.34610  0.25140  0.90360  Biso   1.000  H
  H526     1.0000 0.40360  0.15390  0.74860  Biso   1.000  H
  H527     1.0000 0.15390  0.74860  0.40360  Biso   1.000  H
  H528     1.0000 0.59640  0.65390  0.75140  Biso   1.000  H
  C337     1.0000 0.20100  0.22300  0.80370  Biso   1.000  C
  C338     1.0000 0.29900  0.77700  0.30370  Biso   1.000  C
  C339     1.0000 0.70100  0.27700  0.19630  Biso   1.000  C
  C340     1.0000 0.79900  0.72300  0.69630  Biso   1.000  C
  C341     1.0000 0.80370  0.20100  0.22300  Biso   1.000  C
  C342     1.0000 0.22300  0.80370  0.20100  Biso   1.000  C
  C343     1.0000 0.69630  0.79900  0.72300  Biso   1.000  C
  C344     1.0000 0.77700  0.30370  0.29900  Biso   1.000  C
  C345     1.0000 0.30370  0.29900  0.77700  Biso   1.000  C
  C346     1.0000 0.27700  0.19630  0.70100  Biso   1.000  C
  C347     1.0000 0.19630  0.70100  0.27700  Biso   1.000  C
  C348     1.0000 0.72300  0.69630  0.79900  Biso   1.000  C
  H529     1.0000 0.16990  0.20210  0.84310  Biso   1.000  H
  H530     1.0000 0.33010  0.79790  0.34310  Biso   1.000  H
  H531     1.0000 0.66990  0.29790  0.15690  Biso   1.000  H
  H532     1.0000 0.83010  0.70210  0.65690  Biso   1.000  H
  H533     1.0000 0.84310  0.16990  0.20210  Biso   1.000  H
  H534     1.0000 0.20210  0.84310  0.16990  Biso   1.000  H
  H535     1.0000 0.65690  0.83010  0.70210  Biso   1.000  H
  H536     1.0000 0.79790  0.34310  0.33010  Biso   1.000  H
  H537     1.0000 0.34310  0.33010  0.79790  Biso   1.000  H
  H538     1.0000 0.29790  0.15690  0.66990  Biso   1.000  H
  H539     1.0000 0.15690  0.66990  0.29790  Biso   1.000  H
  H540     1.0000 0.70210  0.65690  0.83010  Biso   1.000  H
  H541     1.0000 0.16960  0.25440  0.77240  Biso   1.000  H
  H542     1.0000 0.33040  0.74560  0.27240  Biso   1.000  H
  H543     1.0000 0.66960  0.24560  0.22760  Biso   1.000  H
  H544     1.0000 0.83040  0.75440  0.72760  Biso   1.000  H
  H545     1.0000 0.77240  0.16960  0.25440  Biso   1.000  H
  H546     1.0000 0.25440  0.77240  0.16960  Biso   1.000  H
  H547     1.0000 0.72760  0.83040  0.75440  Biso   1.000  H
  H548     1.0000 0.74560  0.27240  0.33040  Biso   1.000  H
  H549     1.0000 0.27240  0.33040  0.74560  Biso   1.000  H
  H550     1.0000 0.24560  0.22760  0.66960  Biso   1.000  H
  H551     1.0000 0.22760  0.66960  0.24560  Biso   1.000  H
  H552     1.0000 0.75440  0.72760  0.83040  Biso   1.000  H
  N1       1.0000 0.23150  0.16290  0.75920  Biso   1.000  N
  N2       1.0000 0.26850  0.83710  0.25920  Biso   1.000  N
  N3       1.0000 0.73150  0.33710  0.24080  Biso   1.000  N
  N4       1.0000 0.76850  0.66290  0.74080  Biso   1.000  N
  N5       1.0000 0.75920  0.23150  0.16290  Biso   1.000  N
  N6       1.0000 0.16290  0.75920  0.23150  Biso   1.000  N
  N7       1.0000 0.74080  0.76850  0.66290  Biso   1.000  N
  N8       1.0000 0.83710  0.25920  0.26850  Biso   1.000  N
  N9       1.0000 0.25920  0.26850  0.83710  Biso   1.000  N
  N10      1.0000 0.33710  0.24080  0.73150  Biso   1.000  N
  N11      1.0000 0.24080  0.73150  0.33710  Biso   1.000  N
  N12      1.0000 0.66290  0.74080  0.76850  Biso   1.000  N
  N13      1.0000 0.33940  0.16060  0.83940  Biso   1.000  N
  N14      1.0000 0.16060  0.83940  0.33940  Biso   1.000  N
  N15      1.0000 0.83940  0.33940  0.16060  Biso   1.000  N
  N16      1.0000 0.66060  0.66060  0.66060  Biso   1.000  N
  O1       1.0000 0.12210  0.16000  0.63160  Biso   1.000  O
  O2       1.0000 0.37790  0.84000  0.13160  Biso   1.000  O
  O3       1.0000 0.62210  0.34000  0.36840  Biso   1.000  O
  O4       1.0000 0.87790  0.66000  0.86840  Biso   1.000  O
  O5       1.0000 0.63160  0.12210  0.16000  Biso   1.000  O
  O6       1.0000 0.16000  0.63160  0.12210  Biso   1.000  O
  O7       1.0000 0.86840  0.87790  0.66000  Biso   1.000  O
  O8       1.0000 0.84000  0.13160  0.37790  Biso   1.000  O
  O9       1.0000 0.13160  0.37790  0.84000  Biso   1.000  O
  O10      1.0000 0.34000  0.36840  0.62210  Biso   1.000  O
  O11      1.0000 0.36840  0.62210  0.34000  Biso   1.000  O
  O12      1.0000 0.66000  0.86840  0.87790  Biso   1.000  O
  O13      1.0000 0.05860  0.12202  0.76481  Biso   1.000  O
  O14      1.0000 0.44140  0.87798  0.26481  Biso   1.000  O
  O15      1.0000 0.55860  0.37798  0.23519  Biso   1.000  O
  O16      1.0000 0.94140  0.62202  0.73519  Biso   1.000  O
  O17      1.0000 0.76481  0.05860  0.12202  Biso   1.000  O
  O18      1.0000 0.12202  0.76481  0.05860  Biso   1.000  O
  O19      1.0000 0.73519  0.94140  0.62202  Biso   1.000  O
  O20      1.0000 0.87798  0.26481  0.44140  Biso   1.000  O
  O21      1.0000 0.26481  0.44140  0.87798  Biso   1.000  O
  O22      1.0000 0.37798  0.23519  0.55860  Biso   1.000  O
  O23      1.0000 0.23519  0.55860  0.37798  Biso   1.000  O
  O24      1.0000 0.62202  0.73519  0.94140  Biso   1.000  O
  O25      1.0000 0.77683  0.15287  0.00859  Biso   1.000  O
  O26      1.0000 0.72317  0.84713  0.50859  Biso   1.000  O
  O27      1.0000 0.27683  0.34713  0.99141  Biso   1.000  O
  O28      1.0000 0.22317  0.65287  0.49141  Biso   1.000  O
  O29      1.0000 0.00859  0.77683  0.15287  Biso   1.000  O
  O30      1.0000 0.15287  0.00859  0.77683  Biso   1.000  O
  O31      1.0000 0.49141  0.22317  0.65287  Biso   1.000  O
  O32      1.0000 0.84713  0.50859  0.72317  Biso   1.000  O
  O33      1.0000 0.50859  0.72317  0.84713  Biso   1.000  O
  O34      1.0000 0.34713  0.99141  0.27683  Biso   1.000  O
  O35      1.0000 0.99141  0.27683  0.34713  Biso   1.000  O
  O36      1.0000 0.65287  0.49141  0.22317  Biso   1.000  O
  O37      1.0000 0.63992  0.21100  0.04591  Biso   1.000  O
  O38      1.0000 0.86008  0.78900  0.54591  Biso   1.000  O
  O39      1.0000 0.13992  0.28900  0.95409  Biso   1.000  O
  O40      1.0000 0.36008  0.71100  0.45409  Biso   1.000  O
  O41      1.0000 0.04591  0.63992  0.21100  Biso   1.000  O
  O42      1.0000 0.21100  0.04591  0.63992  Biso   1.000  O
  O43      1.0000 0.45409  0.36008  0.71100  Biso   1.000  O
  O44      1.0000 0.78900  0.54591  0.86008  Biso   1.000  O
  O45      1.0000 0.54591  0.86008  0.78900  Biso   1.000  O
  O46      1.0000 0.28900  0.95409  0.13992  Biso   1.000  O
  O47      1.0000 0.95409  0.13992  0.28900  Biso   1.000  O
  O48      1.0000 0.71100  0.45409  0.36008  Biso   1.000  O
  Cu1      1.0000 0.14190  0.08958  0.70848  Biso   1.000  Cu
  Cu2      1.0000 0.35810  0.91042  0.20848  Biso   1.000  Cu
  Cu3      1.0000 0.64190  0.41042  0.29152  Biso   1.000  Cu
  Cu4      1.0000 0.85810  0.58958  0.79152  Biso   1.000  Cu
  Cu5      1.0000 0.70848  0.14190  0.08958  Biso   1.000  Cu
  Cu6      1.0000 0.08958  0.70848  0.14190  Biso   1.000  Cu
  Cu7      1.0000 0.79152  0.85810  0.58958  Biso   1.000  Cu
  Cu8      1.0000 0.91042  0.20848  0.35810  Biso   1.000  Cu
  Cu9      1.0000 0.20848  0.35810  0.91042  Biso   1.000  Cu
  Cu10     1.0000 0.41042  0.29152  0.64190  Biso   1.000  Cu
  Cu11     1.0000 0.29152  0.64190  0.41042  Biso   1.000  Cu
  Cu12     1.0000 0.58958  0.79152  0.85810  Biso   1.000  Cu
