data_image0
_cell_length_a       7.5941
_cell_length_b       33.013
_cell_length_c       21.558
_cell_angle_alpha    90
_cell_angle_beta     90.13
_cell_angle_gamma    90

_symmetry_space_group_name_H-M    "P 1"
_symmetry_int_tables_number       1

loop_
  _symmetry_equiv_pos_as_xyz
  'x, y, z'

loop_
  _atom_site_label
  _atom_site_occupancy
  _atom_site_fract_x
  _atom_site_fract_y
  _atom_site_fract_z
  _atom_site_thermal_displace_type
  _atom_site_B_iso_or_equiv
  _atom_site_type_symbol
  C1       1.0000 0.40220  0.95750  0.79870  Biso   1.000  C
  C2       1.0000 0.59780  0.45750  0.20130  Biso   1.000  C
  C3       1.0000 0.59780  0.04250  0.20130  Biso   1.000  C
  C4       1.0000 0.40220  0.54250  0.79870  Biso   1.000  C
  H1       1.0000 0.51020  0.96110  0.77450  Biso   1.000  H
  H2       1.0000 0.48980  0.46110  0.22550  Biso   1.000  H
  H3       1.0000 0.48980  0.03890  0.22550  Biso   1.000  H
  H4       1.0000 0.51020  0.53890  0.77450  Biso   1.000  H
  H5       1.0000 0.38760  0.92880  0.80900  Biso   1.000  H
  H6       1.0000 0.61240  0.42880  0.19100  Biso   1.000  H
  H7       1.0000 0.61240  0.07120  0.19100  Biso   1.000  H
  H8       1.0000 0.38760  0.57120  0.80900  Biso   1.000  H
  H9       1.0000 0.41010  0.97340  0.83700  Biso   1.000  H
  H10      1.0000 0.58990  0.47340  0.16300  Biso   1.000  H
  H11      1.0000 0.58990  0.02660  0.16300  Biso   1.000  H
  H12      1.0000 0.41010  0.52660  0.83700  Biso   1.000  H
  C5       1.0000 0.07650  0.95870  0.79120  Biso   1.000  C
  C6       1.0000 0.92350  0.45870  0.20880  Biso   1.000  C
  C7       1.0000 0.92350  0.04130  0.20880  Biso   1.000  C
  C8       1.0000 0.07650  0.54130  0.79120  Biso   1.000  C
  H13      1.0000 0.07290  0.92900  0.79190  Biso   1.000  H
  H14      1.0000 0.92710  0.42900  0.20810  Biso   1.000  H
  H15      1.0000 0.92710  0.07100  0.20810  Biso   1.000  H
  H16      1.0000 0.07290  0.57100  0.79190  Biso   1.000  H
  H17      1.0000 0.97320  0.96900  0.76890  Biso   1.000  H
  H18      1.0000 0.02680  0.46900  0.23110  Biso   1.000  H
  H19      1.0000 0.02680  0.03100  0.23110  Biso   1.000  H
  H20      1.0000 0.97320  0.53100  0.76890  Biso   1.000  H
  H21      1.0000 0.07590  0.96900  0.83380  Biso   1.000  H
  H22      1.0000 0.92410  0.46900  0.16620  Biso   1.000  H
  H23      1.0000 0.92410  0.03100  0.16620  Biso   1.000  H
  H24      1.0000 0.07590  0.53100  0.83380  Biso   1.000  H
  C9       1.0000 0.27190  0.95410  0.69410  Biso   1.000  C
  C10      1.0000 0.72810  0.45410  0.30590  Biso   1.000  C
  C11      1.0000 0.72810  0.04590  0.30590  Biso   1.000  C
  C12      1.0000 0.27190  0.54590  0.69410  Biso   1.000  C
  H25      1.0000 0.38150  0.96500  0.67710  Biso   1.000  H
  H26      1.0000 0.61850  0.46500  0.32290  Biso   1.000  H
  H27      1.0000 0.61850  0.03500  0.32290  Biso   1.000  H
  H28      1.0000 0.38150  0.53500  0.67710  Biso   1.000  H
  H29      1.0000 0.17350  0.96110  0.66660  Biso   1.000  H
  H30      1.0000 0.82650  0.46110  0.33340  Biso   1.000  H
  H31      1.0000 0.82650  0.03890  0.33340  Biso   1.000  H
  H32      1.0000 0.17350  0.53890  0.66660  Biso   1.000  H
  H33      1.0000 0.28120  0.92450  0.69730  Biso   1.000  H
  H34      1.0000 0.71880  0.42450  0.30270  Biso   1.000  H
  H35      1.0000 0.71880  0.07550  0.30270  Biso   1.000  H
  H36      1.0000 0.28120  0.57550  0.69730  Biso   1.000  H
  C13      1.0000 0.23920  0.97230  0.75930  Biso   1.000  C
  C14      1.0000 0.76080  0.47230  0.24070  Biso   1.000  C
  C15      1.0000 0.76080  0.02770  0.24070  Biso   1.000  C
  C16      1.0000 0.23920  0.52770  0.75930  Biso   1.000  C
  C17      1.0000 0.46500  0.96060  0.78170  Biso   1.000  C
  C18      1.0000 0.53500  0.46060  0.21830  Biso   1.000  C
  C19      1.0000 0.53500  0.03940  0.21830  Biso   1.000  C
  C20      1.0000 0.46500  0.53940  0.78170  Biso   1.000  C
  H37      1.0000 0.49240  0.97350  0.82140  Biso   1.000  H
  H38      1.0000 0.50760  0.47350  0.17860  Biso   1.000  H
  H39      1.0000 0.50760  0.02650  0.17860  Biso   1.000  H
  H40      1.0000 0.49240  0.52650  0.82140  Biso   1.000  H
  H41      1.0000 0.54940  0.96960  0.75030  Biso   1.000  H
  H42      1.0000 0.45060  0.46960  0.24970  Biso   1.000  H
  H43      1.0000 0.45060  0.03040  0.24970  Biso   1.000  H
  H44      1.0000 0.54940  0.53040  0.75030  Biso   1.000  H
  H45      1.0000 0.47280  0.93110  0.78630  Biso   1.000  H
  H46      1.0000 0.52720  0.43110  0.21370  Biso   1.000  H
  H47      1.0000 0.52720  0.06890  0.21370  Biso   1.000  H
  H48      1.0000 0.47280  0.56890  0.78630  Biso   1.000  H
  C21      1.0000 0.22210  0.95410  0.69840  Biso   1.000  C
  C22      1.0000 0.77790  0.45410  0.30160  Biso   1.000  C
  C23      1.0000 0.77790  0.04590  0.30160  Biso   1.000  C
  C24      1.0000 0.22210  0.54590  0.69840  Biso   1.000  C
  H49      1.0000 0.19360  0.92530  0.70370  Biso   1.000  H
  H50      1.0000 0.80640  0.42530  0.29630  Biso   1.000  H
  H51      1.0000 0.80640  0.07470  0.29630  Biso   1.000  H
  H52      1.0000 0.19360  0.57470  0.70370  Biso   1.000  H
  H53      1.0000 0.31850  0.95690  0.66860  Biso   1.000  H
  H54      1.0000 0.68150  0.45690  0.33140  Biso   1.000  H
  H55      1.0000 0.68150  0.04310  0.33140  Biso   1.000  H
  H56      1.0000 0.31850  0.54310  0.66860  Biso   1.000  H
  H57      1.0000 0.11820  0.96860  0.68300  Biso   1.000  H
  H58      1.0000 0.88180  0.46860  0.31700  Biso   1.000  H
  H59      1.0000 0.88180  0.03140  0.31700  Biso   1.000  H
  H60      1.0000 0.11820  0.53140  0.68300  Biso   1.000  H
  C25      1.0000 0.14570  0.95360  0.80710  Biso   1.000  C
  C26      1.0000 0.85430  0.45360  0.19290  Biso   1.000  C
  C27      1.0000 0.85430  0.04640  0.19290  Biso   1.000  C
  C28      1.0000 0.14570  0.54640  0.80710  Biso   1.000  C
  H61      1.0000 0.18470  0.95870  0.84980  Biso   1.000  H
  H62      1.0000 0.81530  0.45870  0.15020  Biso   1.000  H
  H63      1.0000 0.81530  0.04130  0.15020  Biso   1.000  H
  H64      1.0000 0.18470  0.54130  0.84980  Biso   1.000  H
  H65      1.0000 0.13770  0.92440  0.80010  Biso   1.000  H
  H66      1.0000 0.86230  0.42440  0.19990  Biso   1.000  H
  H67      1.0000 0.86230  0.07560  0.19990  Biso   1.000  H
  H68      1.0000 0.13770  0.57560  0.80010  Biso   1.000  H
  H69      1.0000 0.02980  0.96600  0.80060  Biso   1.000  H
  H70      1.0000 0.97020  0.46600  0.19940  Biso   1.000  H
  H71      1.0000 0.97020  0.03400  0.19940  Biso   1.000  H
  H72      1.0000 0.02980  0.53400  0.80060  Biso   1.000  H
  C29      1.0000 0.27880  0.97210  0.76150  Biso   1.000  C
  C30      1.0000 0.72120  0.47210  0.23850  Biso   1.000  C
  C31      1.0000 0.72120  0.02790  0.23850  Biso   1.000  C
  C32      1.0000 0.27880  0.52790  0.76150  Biso   1.000  C
  C33      1.0000 0.25300  0.01857  0.76135  Biso   1.000  C
  C34      1.0000 0.74700  0.51857  0.23865  Biso   1.000  C
  C35      1.0000 0.74700  0.98143  0.23865  Biso   1.000  C
  C36      1.0000 0.25300  0.48143  0.76135  Biso   1.000  C
  C37      1.0000 0.25250  0.04094  0.70654  Biso   1.000  C
  C38      1.0000 0.74750  0.54094  0.29346  Biso   1.000  C
  C39      1.0000 0.74750  0.95906  0.29346  Biso   1.000  C
  C40      1.0000 0.25250  0.45906  0.70654  Biso   1.000  C
  H73      1.0000 0.25450  0.02650  0.66840  Biso   1.000  H
  H74      1.0000 0.74550  0.52650  0.33160  Biso   1.000  H
  H75      1.0000 0.74550  0.97350  0.33160  Biso   1.000  H
  H76      1.0000 0.25450  0.47350  0.66840  Biso   1.000  H
  C41      1.0000 0.24910  0.08353  0.70411  Biso   1.000  C
  C42      1.0000 0.75090  0.58353  0.29589  Biso   1.000  C
  C43      1.0000 0.75090  0.91647  0.29589  Biso   1.000  C
  C44      1.0000 0.24910  0.41647  0.70411  Biso   1.000  C
  C45      1.0000 0.24980  0.10442  0.64199  Biso   1.000  C
  C46      1.0000 0.75020  0.60442  0.35801  Biso   1.000  C
  C47      1.0000 0.75020  0.89558  0.35801  Biso   1.000  C
  C48      1.0000 0.24980  0.39558  0.64199  Biso   1.000  C
  C49      1.0000 0.18790  0.08610  0.58760  Biso   1.000  C
  C50      1.0000 0.81210  0.58610  0.41240  Biso   1.000  C
  C51      1.0000 0.81210  0.91390  0.41240  Biso   1.000  C
  C52      1.0000 0.18790  0.41390  0.58760  Biso   1.000  C
  H77      1.0000 0.14820  0.05880  0.58850  Biso   1.000  H
  H78      1.0000 0.85180  0.55880  0.41150  Biso   1.000  H
  H79      1.0000 0.85180  0.94120  0.41150  Biso   1.000  H
  H80      1.0000 0.14820  0.44120  0.58850  Biso   1.000  H
  C53      1.0000 0.18440  0.10790  0.53180  Biso   1.000  C
  C54      1.0000 0.81560  0.60790  0.46820  Biso   1.000  C
  C55      1.0000 0.81560  0.89210  0.46820  Biso   1.000  C
  C56      1.0000 0.18440  0.39210  0.53180  Biso   1.000  C
  H81      1.0000 0.13940  0.09550  0.49530  Biso   1.000  H
  H82      1.0000 0.86060  0.59550  0.50470  Biso   1.000  H
  H83      1.0000 0.86060  0.90450  0.50470  Biso   1.000  H
  H84      1.0000 0.13940  0.40450  0.49530  Biso   1.000  H
  C57      1.0000 0.31540  0.16540  0.58430  Biso   1.000  C
  C58      1.0000 0.68460  0.66540  0.41570  Biso   1.000  C
  C59      1.0000 0.68460  0.83460  0.41570  Biso   1.000  C
  C60      1.0000 0.31540  0.33460  0.58430  Biso   1.000  C
  H85      1.0000 0.36310  0.19200  0.58250  Biso   1.000  H
  H86      1.0000 0.63690  0.69200  0.41750  Biso   1.000  H
  H87      1.0000 0.63690  0.80800  0.41750  Biso   1.000  H
  H88      1.0000 0.36310  0.30800  0.58250  Biso   1.000  H
  C61      1.0000 0.31350  0.14480  0.63930  Biso   1.000  C
  C62      1.0000 0.68650  0.64480  0.36070  Biso   1.000  C
  C63      1.0000 0.68650  0.85520  0.36070  Biso   1.000  C
  C64      1.0000 0.31350  0.35520  0.63930  Biso   1.000  C
  H89      1.0000 0.35520  0.15750  0.67600  Biso   1.000  H
  H90      1.0000 0.64480  0.65750  0.32400  Biso   1.000  H
  H91      1.0000 0.64480  0.84250  0.32400  Biso   1.000  H
  H92      1.0000 0.35520  0.34250  0.67600  Biso   1.000  H
  C65      1.0000 0.27660  0.08370  0.58690  Biso   1.000  C
  C66      1.0000 0.72340  0.58370  0.41310  Biso   1.000  C
  C67      1.0000 0.72340  0.91630  0.41310  Biso   1.000  C
  C68      1.0000 0.27660  0.41630  0.58690  Biso   1.000  C
  H93      1.0000 0.30170  0.05550  0.58700  Biso   1.000  H
  H94      1.0000 0.69830  0.55550  0.41300  Biso   1.000  H
  H95      1.0000 0.69830  0.94450  0.41300  Biso   1.000  H
  H96      1.0000 0.30170  0.44450  0.58700  Biso   1.000  H
  C69      1.0000 0.26590  0.10530  0.53120  Biso   1.000  C
  C70      1.0000 0.73410  0.60530  0.46880  Biso   1.000  C
  C71      1.0000 0.73410  0.89470  0.46880  Biso   1.000  C
  C72      1.0000 0.26590  0.39470  0.53120  Biso   1.000  C
  H97      1.0000 0.27270  0.09090  0.49320  Biso   1.000  H
  H98      1.0000 0.72730  0.59090  0.50680  Biso   1.000  H
  H99      1.0000 0.72730  0.90910  0.50680  Biso   1.000  H
  H100     1.0000 0.27270  0.40910  0.49320  Biso   1.000  H
  C73      1.0000 0.22510  0.16730  0.58500  Biso   1.000  C
  C74      1.0000 0.77490  0.66730  0.41500  Biso   1.000  C
  C75      1.0000 0.77490  0.83270  0.41500  Biso   1.000  C
  C76      1.0000 0.22510  0.33270  0.58500  Biso   1.000  C
  H101     1.0000 0.21710  0.19600  0.58500  Biso   1.000  H
  H102     1.0000 0.78290  0.69600  0.41500  Biso   1.000  H
  H103     1.0000 0.78290  0.80400  0.41500  Biso   1.000  H
  H104     1.0000 0.21710  0.30400  0.58500  Biso   1.000  H
  C77      1.0000 0.21560  0.14590  0.64240  Biso   1.000  C
  C78      1.0000 0.78440  0.64590  0.35760  Biso   1.000  C
  C79      1.0000 0.78440  0.85410  0.35760  Biso   1.000  C
  C80      1.0000 0.21560  0.35410  0.64240  Biso   1.000  C
  H105     1.0000 0.18680  0.15950  0.67980  Biso   1.000  H
  H106     1.0000 0.81320  0.65950  0.32020  Biso   1.000  H
  H107     1.0000 0.81320  0.84050  0.32020  Biso   1.000  H
  H108     1.0000 0.18680  0.34050  0.67980  Biso   1.000  H
  C81      1.0000 0.24560  0.14706  0.52947  Biso   1.000  C
  C82      1.0000 0.75440  0.64706  0.47053  Biso   1.000  C
  C83      1.0000 0.75440  0.85294  0.47053  Biso   1.000  C
  C84      1.0000 0.24560  0.35294  0.52947  Biso   1.000  C
  C85      1.0000 0.24010  0.17138  0.47122  Biso   1.000  C
  C86      1.0000 0.75990  0.67138  0.52878  Biso   1.000  C
  C87      1.0000 0.75990  0.82862  0.52878  Biso   1.000  C
  C88      1.0000 0.24010  0.32862  0.47122  Biso   1.000  C
  C89      1.0000 0.24600  0.15139  0.41404  Biso   1.000  C
  C90      1.0000 0.75400  0.65139  0.58596  Biso   1.000  C
  C91      1.0000 0.75400  0.84861  0.58596  Biso   1.000  C
  C92      1.0000 0.24600  0.34861  0.41404  Biso   1.000  C
  H109     1.0000 0.25140  0.12260  0.41420  Biso   1.000  H
  H110     1.0000 0.74860  0.62260  0.58580  Biso   1.000  H
  H111     1.0000 0.74860  0.87740  0.58580  Biso   1.000  H
  H112     1.0000 0.25140  0.37740  0.41420  Biso   1.000  H
  C93      1.0000 0.24450  0.17125  0.35616  Biso   1.000  C
  C94      1.0000 0.75550  0.67125  0.64384  Biso   1.000  C
  C95      1.0000 0.75550  0.82875  0.64384  Biso   1.000  C
  C96      1.0000 0.24450  0.32875  0.35616  Biso   1.000  C
  C97      1.0000 0.23380  0.14690  0.29580  Biso   1.000  C
  C98      1.0000 0.76620  0.64690  0.70420  Biso   1.000  C
  C99      1.0000 0.76620  0.85310  0.70420  Biso   1.000  C
  C100     1.0000 0.23380  0.35310  0.29580  Biso   1.000  C
  C101     1.0000 0.06350  0.15730  0.26090  Biso   1.000  C
  C102     1.0000 0.93650  0.65730  0.73910  Biso   1.000  C
  C103     1.0000 0.93650  0.84270  0.73910  Biso   1.000  C
  C104     1.0000 0.06350  0.34270  0.26090  Biso   1.000  C
  H113     1.0000 0.04820  0.18680  0.26000  Biso   1.000  H
  H114     1.0000 0.95180  0.68680  0.74000  Biso   1.000  H
  H115     1.0000 0.95180  0.81320  0.74000  Biso   1.000  H
  H116     1.0000 0.04820  0.31320  0.26000  Biso   1.000  H
  H117     1.0000 0.96310  0.14490  0.28190  Biso   1.000  H
  H118     1.0000 0.03690  0.64490  0.71810  Biso   1.000  H
  H119     1.0000 0.03690  0.85510  0.71810  Biso   1.000  H
  H120     1.0000 0.96310  0.35510  0.28190  Biso   1.000  H
  H121     1.0000 0.07070  0.14710  0.21830  Biso   1.000  H
  H122     1.0000 0.92930  0.64710  0.78170  Biso   1.000  H
  H123     1.0000 0.92930  0.85290  0.78170  Biso   1.000  H
  H124     1.0000 0.07070  0.35290  0.21830  Biso   1.000  H
  C105     1.0000 0.39290  0.15990  0.25630  Biso   1.000  C
  C106     1.0000 0.60710  0.65990  0.74370  Biso   1.000  C
  C107     1.0000 0.60710  0.84010  0.74370  Biso   1.000  C
  C108     1.0000 0.39290  0.34010  0.25630  Biso   1.000  C
  H125     1.0000 0.38630  0.18910  0.24830  Biso   1.000  H
  H126     1.0000 0.61370  0.68910  0.75170  Biso   1.000  H
  H127     1.0000 0.61370  0.81090  0.75170  Biso   1.000  H
  H128     1.0000 0.38630  0.31090  0.24830  Biso   1.000  H
  H129     1.0000 0.39140  0.14520  0.21690  Biso   1.000  H
  H130     1.0000 0.60860  0.64520  0.78310  Biso   1.000  H
  H131     1.0000 0.60860  0.85480  0.78310  Biso   1.000  H
  H132     1.0000 0.39140  0.35480  0.21690  Biso   1.000  H
  H133     1.0000 0.50210  0.15380  0.27870  Biso   1.000  H
  H134     1.0000 0.49790  0.65380  0.72130  Biso   1.000  H
  H135     1.0000 0.49790  0.84620  0.72130  Biso   1.000  H
  H136     1.0000 0.50210  0.34620  0.27870  Biso   1.000  H
  C109     1.0000 0.26100  0.10110  0.30510  Biso   1.000  C
  C110     1.0000 0.73900  0.60110  0.69490  Biso   1.000  C
  C111     1.0000 0.73900  0.89890  0.69490  Biso   1.000  C
  C112     1.0000 0.26100  0.39890  0.30510  Biso   1.000  C
  H137     1.0000 0.27990  0.08810  0.26480  Biso   1.000  H
  H138     1.0000 0.72010  0.58810  0.73520  Biso   1.000  H
  H139     1.0000 0.72010  0.91190  0.73520  Biso   1.000  H
  H140     1.0000 0.27990  0.41190  0.26480  Biso   1.000  H
  H141     1.0000 0.15640  0.08940  0.32480  Biso   1.000  H
  H142     1.0000 0.84360  0.58940  0.67520  Biso   1.000  H
  H143     1.0000 0.84360  0.91060  0.67520  Biso   1.000  H
  H144     1.0000 0.15640  0.41060  0.32480  Biso   1.000  H
  H145     1.0000 0.36400  0.09650  0.33170  Biso   1.000  H
  H146     1.0000 0.63600  0.59650  0.66830  Biso   1.000  H
  H147     1.0000 0.63600  0.90350  0.66830  Biso   1.000  H
  H148     1.0000 0.36400  0.40350  0.33170  Biso   1.000  H
  C113     1.0000 0.27430  0.14740  0.29490  Biso   1.000  C
  C114     1.0000 0.72570  0.64740  0.70510  Biso   1.000  C
  C115     1.0000 0.72570  0.85260  0.70510  Biso   1.000  C
  C116     1.0000 0.27430  0.35260  0.29490  Biso   1.000  C
  C117     1.0000 0.45620  0.15400  0.26980  Biso   1.000  C
  C118     1.0000 0.54380  0.65400  0.73020  Biso   1.000  C
  C119     1.0000 0.54380  0.84600  0.73020  Biso   1.000  C
  C120     1.0000 0.45620  0.34600  0.26980  Biso   1.000  C
  H149     1.0000 0.47220  0.13770  0.23230  Biso   1.000  H
  H150     1.0000 0.52780  0.63770  0.76770  Biso   1.000  H
  H151     1.0000 0.52780  0.86230  0.76770  Biso   1.000  H
  H152     1.0000 0.47220  0.36230  0.23230  Biso   1.000  H
  H153     1.0000 0.54330  0.14600  0.30110  Biso   1.000  H
  H154     1.0000 0.45670  0.64600  0.69890  Biso   1.000  H
  H155     1.0000 0.45670  0.85400  0.69890  Biso   1.000  H
  H156     1.0000 0.54330  0.35400  0.30110  Biso   1.000  H
  H157     1.0000 0.47180  0.18270  0.25970  Biso   1.000  H
  H158     1.0000 0.52820  0.68270  0.74030  Biso   1.000  H
  H159     1.0000 0.52820  0.81730  0.74030  Biso   1.000  H
  H160     1.0000 0.47180  0.31730  0.25970  Biso   1.000  H
  C121     1.0000 0.13400  0.16460  0.24900  Biso   1.000  C
  C122     1.0000 0.86600  0.66460  0.75100  Biso   1.000  C
  C123     1.0000 0.86600  0.83540  0.75100  Biso   1.000  C
  C124     1.0000 0.13400  0.33540  0.24900  Biso   1.000  C
  H161     1.0000 0.13010  0.14770  0.21160  Biso   1.000  H
  H162     1.0000 0.86990  0.64770  0.78840  Biso   1.000  H
  H163     1.0000 0.86990  0.85230  0.78840  Biso   1.000  H
  H164     1.0000 0.13010  0.35230  0.21160  Biso   1.000  H
  H165     1.0000 0.16530  0.19240  0.23760  Biso   1.000  H
  H166     1.0000 0.83470  0.69240  0.76240  Biso   1.000  H
  H167     1.0000 0.83470  0.80760  0.76240  Biso   1.000  H
  H168     1.0000 0.16530  0.30760  0.23760  Biso   1.000  H
  H169     1.0000 0.01800  0.16440  0.26890  Biso   1.000  H
  H170     1.0000 0.98200  0.66440  0.73110  Biso   1.000  H
  H171     1.0000 0.98200  0.83560  0.73110  Biso   1.000  H
  H172     1.0000 0.01800  0.33560  0.26890  Biso   1.000  H
  C125     1.0000 0.21700  0.10270  0.30370  Biso   1.000  C
  C126     1.0000 0.78300  0.60270  0.69630  Biso   1.000  C
  C127     1.0000 0.78300  0.89730  0.69630  Biso   1.000  C
  C128     1.0000 0.21700  0.39730  0.30370  Biso   1.000  C
  H173     1.0000 0.23180  0.08800  0.26460  Biso   1.000  H
  H174     1.0000 0.76820  0.58800  0.73540  Biso   1.000  H
  H175     1.0000 0.76820  0.91200  0.73540  Biso   1.000  H
  H176     1.0000 0.23180  0.41200  0.26460  Biso   1.000  H
  H177     1.0000 0.09250  0.10180  0.31590  Biso   1.000  H
  H178     1.0000 0.90750  0.60180  0.68410  Biso   1.000  H
  H179     1.0000 0.90750  0.89820  0.68410  Biso   1.000  H
  H180     1.0000 0.09250  0.39820  0.31590  Biso   1.000  H
  H181     1.0000 0.28900  0.09010  0.33600  Biso   1.000  H
  H182     1.0000 0.71100  0.59010  0.66400  Biso   1.000  H
  H183     1.0000 0.71100  0.90990  0.66400  Biso   1.000  H
  H184     1.0000 0.28900  0.40990  0.33600  Biso   1.000  H
  C129     1.0000 0.05970  0.05260  0.03380  Biso   1.000  C
  C130     1.0000 0.94030  0.55260  0.96620  Biso   1.000  C
  C131     1.0000 0.94030  0.94740  0.96620  Biso   1.000  C
  C132     1.0000 0.05970  0.44740  0.03380  Biso   1.000  C
  H185     1.0000 0.05280  0.03450  0.99790  Biso   1.000  H
  H186     1.0000 0.94720  0.53450  0.00210  Biso   1.000  H
  H187     1.0000 0.94720  0.96550  0.00210  Biso   1.000  H
  H188     1.0000 0.05280  0.46550  0.99790  Biso   1.000  H
  H189     1.0000 0.96200  0.07200  0.03220  Biso   1.000  H
  H190     1.0000 0.03800  0.57200  0.96780  Biso   1.000  H
  H191     1.0000 0.03800  0.92800  0.96780  Biso   1.000  H
  H192     1.0000 0.96200  0.42800  0.03220  Biso   1.000  H
  H193     1.0000 0.05200  0.03670  0.07200  Biso   1.000  H
  H194     1.0000 0.94800  0.53670  0.92800  Biso   1.000  H
  H195     1.0000 0.94800  0.96330  0.92800  Biso   1.000  H
  H196     1.0000 0.05200  0.46330  0.07200  Biso   1.000  H
  C133     1.0000 0.38180  0.04320  0.03380  Biso   1.000  C
  C134     1.0000 0.61820  0.54320  0.96620  Biso   1.000  C
  C135     1.0000 0.61820  0.95680  0.96620  Biso   1.000  C
  C136     1.0000 0.38180  0.45680  0.03380  Biso   1.000  C
  H197     1.0000 0.41340  0.03720  0.07700  Biso   1.000  H
  H198     1.0000 0.58660  0.53720  0.92300  Biso   1.000  H
  H199     1.0000 0.58660  0.96280  0.92300  Biso   1.000  H
  H200     1.0000 0.41340  0.46280  0.07700  Biso   1.000  H
  H201     1.0000 0.48470  0.05410  0.01220  Biso   1.000  H
  H202     1.0000 0.51530  0.55410  0.98780  Biso   1.000  H
  H203     1.0000 0.51530  0.94590  0.98780  Biso   1.000  H
  H204     1.0000 0.48470  0.44590  0.01220  Biso   1.000  H
  H205     1.0000 0.34250  0.01840  0.01320  Biso   1.000  H
  H206     1.0000 0.65750  0.51840  0.98680  Biso   1.000  H
  H207     1.0000 0.65750  0.98160  0.98680  Biso   1.000  H
  H208     1.0000 0.34250  0.48160  0.01320  Biso   1.000  H
  C137     1.0000 0.27370  0.10150  0.09020  Biso   1.000  C
  C138     1.0000 0.72630  0.60150  0.90980  Biso   1.000  C
  C139     1.0000 0.72630  0.89850  0.90980  Biso   1.000  C
  C140     1.0000 0.27370  0.39850  0.09020  Biso   1.000  C
  H209     1.0000 0.17590  0.12020  0.09800  Biso   1.000  H
  H210     1.0000 0.82410  0.62020  0.90200  Biso   1.000  H
  H211     1.0000 0.82410  0.87980  0.90200  Biso   1.000  H
  H212     1.0000 0.17590  0.37980  0.09800  Biso   1.000  H
  H213     1.0000 0.38140  0.11700  0.08250  Biso   1.000  H
  H214     1.0000 0.61860  0.61700  0.91750  Biso   1.000  H
  H215     1.0000 0.61860  0.88300  0.91750  Biso   1.000  H
  H216     1.0000 0.38140  0.38300  0.08250  Biso   1.000  H
  H217     1.0000 0.29080  0.08400  0.12650  Biso   1.000  H
  H218     1.0000 0.70920  0.58400  0.87350  Biso   1.000  H
  H219     1.0000 0.70920  0.91600  0.87350  Biso   1.000  H
  H220     1.0000 0.29080  0.41600  0.12650  Biso   1.000  H
  C141     1.0000 0.23070  0.07500  0.03260  Biso   1.000  C
  C142     1.0000 0.76930  0.57500  0.96740  Biso   1.000  C
  C143     1.0000 0.76930  0.92500  0.96740  Biso   1.000  C
  C144     1.0000 0.23070  0.42500  0.03260  Biso   1.000  C
  C145     1.0000 0.19010  0.03680  0.03210  Biso   1.000  C
  C146     1.0000 0.80990  0.53680  0.96790  Biso   1.000  C
  C147     1.0000 0.80990  0.96320  0.96790  Biso   1.000  C
  C148     1.0000 0.19010  0.46320  0.03210  Biso   1.000  C
  H221     1.0000 0.23600  0.01820  0.00060  Biso   1.000  H
  H222     1.0000 0.76400  0.51820  0.99940  Biso   1.000  H
  H223     1.0000 0.76400  0.98180  0.99940  Biso   1.000  H
  H224     1.0000 0.23600  0.48180  0.00060  Biso   1.000  H
  H225     1.0000 0.06690  0.04320  0.02270  Biso   1.000  H
  H226     1.0000 0.93310  0.54320  0.97730  Biso   1.000  H
  H227     1.0000 0.93310  0.95680  0.97730  Biso   1.000  H
  H228     1.0000 0.06690  0.45680  0.02270  Biso   1.000  H
  H229     1.0000 0.19770  0.02400  0.07300  Biso   1.000  H
  H230     1.0000 0.80230  0.52400  0.92700  Biso   1.000  H
  H231     1.0000 0.80230  0.97600  0.92700  Biso   1.000  H
  H232     1.0000 0.19770  0.47600  0.07300  Biso   1.000  H
  C149     1.0000 0.49140  0.06330  0.03630  Biso   1.000  C
  C150     1.0000 0.50860  0.56330  0.96370  Biso   1.000  C
  C151     1.0000 0.50860  0.93670  0.96370  Biso   1.000  C
  C152     1.0000 0.49140  0.43670  0.03630  Biso   1.000  C
  H233     1.0000 0.52150  0.05700  0.07940  Biso   1.000  H
  H234     1.0000 0.47850  0.55700  0.92060  Biso   1.000  H
  H235     1.0000 0.47850  0.94300  0.92060  Biso   1.000  H
  H236     1.0000 0.52150  0.44300  0.07940  Biso   1.000  H
  H237     1.0000 0.56410  0.08590  0.02180  Biso   1.000  H
  H238     1.0000 0.43590  0.58590  0.97820  Biso   1.000  H
  H239     1.0000 0.43590  0.91410  0.97820  Biso   1.000  H
  H240     1.0000 0.56410  0.41410  0.02180  Biso   1.000  H
  H241     1.0000 0.51330  0.03950  0.01030  Biso   1.000  H
  H242     1.0000 0.48670  0.53950  0.98970  Biso   1.000  H
  H243     1.0000 0.48670  0.96050  0.98970  Biso   1.000  H
  H244     1.0000 0.51330  0.46050  0.01030  Biso   1.000  H
  C153     1.0000 0.22390  0.10030  0.08830  Biso   1.000  C
  C154     1.0000 0.77610  0.60030  0.91170  Biso   1.000  C
  C155     1.0000 0.77610  0.89970  0.91170  Biso   1.000  C
  C156     1.0000 0.22390  0.39970  0.08830  Biso   1.000  C
  H245     1.0000 0.10880  0.11180  0.07740  Biso   1.000  H
  H246     1.0000 0.89120  0.61180  0.92260  Biso   1.000  H
  H247     1.0000 0.89120  0.88820  0.92260  Biso   1.000  H
  H248     1.0000 0.10880  0.38820  0.07740  Biso   1.000  H
  H249     1.0000 0.30600  0.12240  0.09800  Biso   1.000  H
  H250     1.0000 0.69400  0.62240  0.90200  Biso   1.000  H
  H251     1.0000 0.69400  0.87760  0.90200  Biso   1.000  H
  H252     1.0000 0.30600  0.37760  0.09800  Biso   1.000  H
  H253     1.0000 0.21150  0.08270  0.12460  Biso   1.000  H
  H254     1.0000 0.78850  0.58270  0.87540  Biso   1.000  H
  H255     1.0000 0.78850  0.91730  0.87540  Biso   1.000  H
  H256     1.0000 0.21150  0.41730  0.12460  Biso   1.000  H
  C157     1.0000 0.29670  0.07500  0.03210  Biso   1.000  C
  C158     1.0000 0.70330  0.57500  0.96790  Biso   1.000  C
  C159     1.0000 0.70330  0.92500  0.96790  Biso   1.000  C
  C160     1.0000 0.29670  0.42500  0.03210  Biso   1.000  C
  C161     1.0000 0.25750  0.09778  0.96996  Biso   1.000  C
  C162     1.0000 0.74250  0.59778  0.03004  Biso   1.000  C
  C163     1.0000 0.74250  0.90222  0.03004  Biso   1.000  C
  C164     1.0000 0.25750  0.40222  0.96996  Biso   1.000  C
  C165     1.0000 0.25670  0.13978  0.96799  Biso   1.000  C
  C166     1.0000 0.74330  0.63978  0.03201  Biso   1.000  C
  C167     1.0000 0.74330  0.86022  0.03201  Biso   1.000  C
  C168     1.0000 0.25670  0.36022  0.96799  Biso   1.000  C
  H257     1.0000 0.25450  0.15400  0.00630  Biso   1.000  H
  H258     1.0000 0.74550  0.65400  0.99370  Biso   1.000  H
  H259     1.0000 0.74550  0.84600  0.99370  Biso   1.000  H
  H260     1.0000 0.25450  0.34600  0.00630  Biso   1.000  H
  C169     1.0000 0.25900  0.16240  0.91329  Biso   1.000  C
  C170     1.0000 0.74100  0.66240  0.08671  Biso   1.000  C
  C171     1.0000 0.74100  0.83760  0.08671  Biso   1.000  C
  C172     1.0000 0.25900  0.33760  0.91329  Biso   1.000  C
  C173     1.0000 0.26390  0.20770  0.91558  Biso   1.000  C
  C174     1.0000 0.73610  0.70770  0.08442  Biso   1.000  C
  C175     1.0000 0.73610  0.79230  0.08442  Biso   1.000  C
  C176     1.0000 0.26390  0.29230  0.91558  Biso   1.000  C
  C177     1.0000 0.20700  0.22860  0.96920  Biso   1.000  C
  C178     1.0000 0.79300  0.72860  0.03080  Biso   1.000  C
  C179     1.0000 0.79300  0.77140  0.03080  Biso   1.000  C
  C180     1.0000 0.20700  0.27140  0.96920  Biso   1.000  C
  H261     1.0000 0.16920  0.21410  0.00480  Biso   1.000  H
  H262     1.0000 0.83080  0.71410  0.99520  Biso   1.000  H
  H263     1.0000 0.83080  0.78590  0.99520  Biso   1.000  H
  H264     1.0000 0.16920  0.28590  0.00480  Biso   1.000  H
  C181     1.0000 0.26900  0.22880  0.86350  Biso   1.000  C
  C182     1.0000 0.73100  0.72880  0.13650  Biso   1.000  C
  C183     1.0000 0.73100  0.77120  0.13650  Biso   1.000  C
  C184     1.0000 0.26900  0.27120  0.86350  Biso   1.000  C
  H265     1.0000 0.27350  0.21480  0.82510  Biso   1.000  H
  H266     1.0000 0.72650  0.71480  0.17490  Biso   1.000  H
  H267     1.0000 0.72650  0.78520  0.17490  Biso   1.000  H
  H268     1.0000 0.27350  0.28520  0.82510  Biso   1.000  H
  C185     1.0000 0.32910  0.22900  0.96610  Biso   1.000  C
  C186     1.0000 0.67090  0.72900  0.03390  Biso   1.000  C
  C187     1.0000 0.67090  0.77100  0.03390  Biso   1.000  C
  C188     1.0000 0.32910  0.27100  0.96610  Biso   1.000  C
  H269     1.0000 0.37400  0.21480  0.00090  Biso   1.000  H
  H270     1.0000 0.62600  0.71480  0.99910  Biso   1.000  H
  H271     1.0000 0.62600  0.78520  0.99910  Biso   1.000  H
  H272     1.0000 0.37400  0.28520  0.00090  Biso   1.000  H
  C189     1.0000 0.19200  0.22900  0.86420  Biso   1.000  C
  C190     1.0000 0.80800  0.72900  0.13580  Biso   1.000  C
  C191     1.0000 0.80800  0.77100  0.13580  Biso   1.000  C
  C192     1.0000 0.19200  0.27100  0.86420  Biso   1.000  C
  H273     1.0000 0.14400  0.21460  0.83000  Biso   1.000  H
  H274     1.0000 0.85600  0.71460  0.17000  Biso   1.000  H
  H275     1.0000 0.85600  0.78540  0.17000  Biso   1.000  H
  H276     1.0000 0.14400  0.28540  0.83000  Biso   1.000  H
  C193     1.0000 0.65680  0.12790  0.86940  Biso   1.000  C
  C194     1.0000 0.34320  0.62790  0.13060  Biso   1.000  C
  C195     1.0000 0.34320  0.87210  0.13060  Biso   1.000  C
  C196     1.0000 0.65680  0.37210  0.86940  Biso   1.000  C
  H277     1.0000 0.60360  0.12880  0.91130  Biso   1.000  H
  H278     1.0000 0.39640  0.62880  0.08870  Biso   1.000  H
  H279     1.0000 0.39640  0.87120  0.08870  Biso   1.000  H
  H280     1.0000 0.60360  0.37120  0.91130  Biso   1.000  H
  H281     1.0000 0.62700  0.15340  0.84770  Biso   1.000  H
  H282     1.0000 0.37300  0.65340  0.15230  Biso   1.000  H
  H283     1.0000 0.37300  0.84660  0.15230  Biso   1.000  H
  H284     1.0000 0.62700  0.34660  0.84770  Biso   1.000  H
  C197     1.0000 0.65750  0.05690  0.85950  Biso   1.000  C
  C198     1.0000 0.34250  0.55690  0.14050  Biso   1.000  C
  C199     1.0000 0.34250  0.94310  0.14050  Biso   1.000  C
  C200     1.0000 0.65750  0.44310  0.85950  Biso   1.000  C
  H285     1.0000 0.59150  0.03330  0.84310  Biso   1.000  H
  H286     1.0000 0.40850  0.53330  0.15690  Biso   1.000  H
  H287     1.0000 0.40850  0.96670  0.15690  Biso   1.000  H
  H288     1.0000 0.59150  0.46670  0.84310  Biso   1.000  H
  H289     1.0000 0.64690  0.05690  0.90520  Biso   1.000  H
  H290     1.0000 0.35310  0.55690  0.09480  Biso   1.000  H
  H291     1.0000 0.35310  0.94310  0.09480  Biso   1.000  H
  H292     1.0000 0.64690  0.44310  0.90520  Biso   1.000  H
  C201     1.0000 0.65160  0.09680  0.76850  Biso   1.000  C
  C202     1.0000 0.34840  0.59680  0.23150  Biso   1.000  C
  C203     1.0000 0.34840  0.90320  0.23150  Biso   1.000  C
  C204     1.0000 0.65160  0.40320  0.76850  Biso   1.000  C
  H293     1.0000 0.58620  0.11820  0.74600  Biso   1.000  H
  H294     1.0000 0.41380  0.61820  0.25400  Biso   1.000  H
  H295     1.0000 0.41380  0.88180  0.25400  Biso   1.000  H
  H296     1.0000 0.58620  0.38180  0.74600  Biso   1.000  H
  H297     1.0000 0.63410  0.07080  0.74650  Biso   1.000  H
  H298     1.0000 0.36590  0.57080  0.25350  Biso   1.000  H
  H299     1.0000 0.36590  0.92920  0.25350  Biso   1.000  H
  H300     1.0000 0.63410  0.42920  0.74650  Biso   1.000  H
  C205     1.0000 0.85850  0.12400  0.87520  Biso   1.000  C
  C206     1.0000 0.14150  0.62400  0.12480  Biso   1.000  C
  C207     1.0000 0.14150  0.87600  0.12480  Biso   1.000  C
  C208     1.0000 0.85850  0.37600  0.87520  Biso   1.000  C
  H301     1.0000 0.91370  0.15030  0.86480  Biso   1.000  H
  H302     1.0000 0.08630  0.65030  0.13520  Biso   1.000  H
  H303     1.0000 0.08630  0.84970  0.13520  Biso   1.000  H
  H304     1.0000 0.91370  0.34970  0.86480  Biso   1.000  H
  H305     1.0000 0.88950  0.11740  0.91870  Biso   1.000  H
  H306     1.0000 0.11050  0.61740  0.08130  Biso   1.000  H
  H307     1.0000 0.11050  0.88260  0.08130  Biso   1.000  H
  H308     1.0000 0.88950  0.38260  0.91870  Biso   1.000  H
  C209     1.0000 0.85880  0.05340  0.84050  Biso   1.000  C
  C210     1.0000 0.14120  0.55340  0.15950  Biso   1.000  C
  C211     1.0000 0.14120  0.94660  0.15950  Biso   1.000  C
  C212     1.0000 0.85880  0.44660  0.84050  Biso   1.000  C
  H309     1.0000 0.92470  0.03810  0.87250  Biso   1.000  H
  H310     1.0000 0.07530  0.53810  0.12750  Biso   1.000  H
  H311     1.0000 0.07530  0.96190  0.12750  Biso   1.000  H
  H312     1.0000 0.92470  0.46190  0.87250  Biso   1.000  H
  H313     1.0000 0.86980  0.03880  0.80050  Biso   1.000  H
  H314     1.0000 0.13020  0.53880  0.19950  Biso   1.000  H
  H315     1.0000 0.13020  0.96120  0.19950  Biso   1.000  H
  H316     1.0000 0.86980  0.46120  0.80050  Biso   1.000  H
  C213     1.0000 0.85280  0.10760  0.77140  Biso   1.000  C
  C214     1.0000 0.14720  0.60760  0.22860  Biso   1.000  C
  C215     1.0000 0.14720  0.89240  0.22860  Biso   1.000  C
  C216     1.0000 0.85280  0.39240  0.77140  Biso   1.000  C
  H317     1.0000 0.91600  0.09400  0.73710  Biso   1.000  H
  H318     1.0000 0.08400  0.59400  0.26290  Biso   1.000  H
  H319     1.0000 0.08400  0.90600  0.26290  Biso   1.000  H
  H320     1.0000 0.91600  0.40600  0.73710  Biso   1.000  H
  H321     1.0000 0.86900  0.13720  0.76710  Biso   1.000  H
  H322     1.0000 0.13100  0.63720  0.23290  Biso   1.000  H
  H323     1.0000 0.13100  0.86280  0.23290  Biso   1.000  H
  H324     1.0000 0.86900  0.36280  0.76710  Biso   1.000  H
  C217     1.0000 0.65100  0.08330  0.90260  Biso   1.000  C
  C218     1.0000 0.34900  0.58330  0.09740  Biso   1.000  C
  C219     1.0000 0.34900  0.91670  0.09740  Biso   1.000  C
  C220     1.0000 0.65100  0.41670  0.90260  Biso   1.000  C
  H325     1.0000 0.63610  0.10690  0.93050  Biso   1.000  H
  H326     1.0000 0.36390  0.60690  0.06950  Biso   1.000  H
  H327     1.0000 0.36390  0.89310  0.06950  Biso   1.000  H
  H328     1.0000 0.63610  0.39310  0.93050  Biso   1.000  H
  H329     1.0000 0.58680  0.05990  0.91980  Biso   1.000  H
  H330     1.0000 0.41320  0.55990  0.08020  Biso   1.000  H
  H331     1.0000 0.41320  0.94010  0.08020  Biso   1.000  H
  H332     1.0000 0.58680  0.44010  0.91980  Biso   1.000  H
  C221     1.0000 0.65700  0.05780  0.80490  Biso   1.000  C
  C222     1.0000 0.34300  0.55780  0.19510  Biso   1.000  C
  C223     1.0000 0.34300  0.94220  0.19510  Biso   1.000  C
  C224     1.0000 0.65700  0.44220  0.80490  Biso   1.000  C
  H333     1.0000 0.58450  0.04960  0.76870  Biso   1.000  H
  H334     1.0000 0.41550  0.54960  0.23130  Biso   1.000  H
  H335     1.0000 0.41550  0.95040  0.23130  Biso   1.000  H
  H336     1.0000 0.58450  0.45040  0.76870  Biso   1.000  H
  H337     1.0000 0.66620  0.03480  0.83420  Biso   1.000  H
  H338     1.0000 0.33380  0.53480  0.16580  Biso   1.000  H
  H339     1.0000 0.33380  0.96520  0.16580  Biso   1.000  H
  H340     1.0000 0.66620  0.46520  0.83420  Biso   1.000  H
  C225     1.0000 0.65300  0.13160  0.82190  Biso   1.000  C
  C226     1.0000 0.34700  0.63160  0.17810  Biso   1.000  C
  C227     1.0000 0.34700  0.86840  0.17810  Biso   1.000  C
  C228     1.0000 0.65300  0.36840  0.82190  Biso   1.000  C
  H341     1.0000 0.58510  0.15220  0.84540  Biso   1.000  H
  H342     1.0000 0.41490  0.65220  0.15460  Biso   1.000  H
  H343     1.0000 0.41490  0.84780  0.15460  Biso   1.000  H
  H344     1.0000 0.58510  0.34780  0.84540  Biso   1.000  H
  H345     1.0000 0.63730  0.13740  0.77720  Biso   1.000  H
  H346     1.0000 0.36270  0.63740  0.22280  Biso   1.000  H
  H347     1.0000 0.36270  0.86260  0.22280  Biso   1.000  H
  H348     1.0000 0.63730  0.36260  0.77720  Biso   1.000  H
  C229     1.0000 0.85100  0.07320  0.89330  Biso   1.000  C
  C230     1.0000 0.14900  0.57320  0.10670  Biso   1.000  C
  C231     1.0000 0.14900  0.92680  0.10670  Biso   1.000  C
  C232     1.0000 0.85100  0.42680  0.89330  Biso   1.000  C
  H349     1.0000 0.91780  0.08260  0.93010  Biso   1.000  H
  H350     1.0000 0.08220  0.58260  0.06990  Biso   1.000  H
  H351     1.0000 0.08220  0.91740  0.06990  Biso   1.000  H
  H352     1.0000 0.91780  0.41740  0.93010  Biso   1.000  H
  H353     1.0000 0.86520  0.04340  0.89040  Biso   1.000  H
  H354     1.0000 0.13480  0.54340  0.10960  Biso   1.000  H
  H355     1.0000 0.13480  0.95660  0.10960  Biso   1.000  H
  H356     1.0000 0.86520  0.45660  0.89040  Biso   1.000  H
  C233     1.0000 0.85300  0.07410  0.78320  Biso   1.000  C
  C234     1.0000 0.14700  0.57410  0.21680  Biso   1.000  C
  C235     1.0000 0.14700  0.92590  0.21680  Biso   1.000  C
  C236     1.0000 0.85300  0.42590  0.78320  Biso   1.000  C
  H357     1.0000 0.92720  0.05110  0.76960  Biso   1.000  H
  H358     1.0000 0.07280  0.55110  0.23040  Biso   1.000  H
  H359     1.0000 0.07280  0.94890  0.23040  Biso   1.000  H
  H360     1.0000 0.92720  0.44890  0.76960  Biso   1.000  H
  H361     1.0000 0.84180  0.09350  0.74840  Biso   1.000  H
  H362     1.0000 0.15820  0.59350  0.25160  Biso   1.000  H
  H363     1.0000 0.15820  0.90650  0.25160  Biso   1.000  H
  H364     1.0000 0.84180  0.40650  0.74840  Biso   1.000  H
  C237     1.0000 0.85300  0.13530  0.83920  Biso   1.000  C
  C238     1.0000 0.14700  0.63530  0.16080  Biso   1.000  C
  C239     1.0000 0.14700  0.86470  0.16080  Biso   1.000  C
  C240     1.0000 0.85300  0.36470  0.83920  Biso   1.000  C
  H365     1.0000 0.91370  0.15370  0.81000  Biso   1.000  H
  H366     1.0000 0.08630  0.65370  0.19000  Biso   1.000  H
  H367     1.0000 0.08630  0.84630  0.19000  Biso   1.000  H
  H368     1.0000 0.91370  0.34630  0.81000  Biso   1.000  H
  H369     1.0000 0.86680  0.14610  0.88180  Biso   1.000  H
  H370     1.0000 0.13320  0.64610  0.11820  Biso   1.000  H
  H371     1.0000 0.13320  0.85390  0.11820  Biso   1.000  H
  H372     1.0000 0.86680  0.35390  0.88180  Biso   1.000  H
  C241     1.0000 0.63300  0.25000  0.48110  Biso   1.000  C
  C242     1.0000 0.36700  0.75000  0.51890  Biso   1.000  C
  H373     1.0000 0.59300  0.22550  0.50360  Biso   1.000  H
  H374     1.0000 0.40700  0.72550  0.49640  Biso   1.000  H
  H375     1.0000 0.40700  0.77450  0.49640  Biso   1.000  H
  H376     1.0000 0.59300  0.27450  0.50360  Biso   1.000  H
  C243     1.0000 0.83000  0.25000  0.47320  Biso   1.000  C
  C244     1.0000 0.17000  0.75000  0.52680  Biso   1.000  C
  H377     1.0000 0.87430  0.27400  0.49590  Biso   1.000  H
  H378     1.0000 0.12570  0.77400  0.50410  Biso   1.000  H
  H379     1.0000 0.12570  0.72600  0.50410  Biso   1.000  H
  H380     1.0000 0.87430  0.22600  0.49590  Biso   1.000  H
  C245     1.0000 0.83600  0.25000  0.35440  Biso   1.000  C
  C246     1.0000 0.16400  0.75000  0.64560  Biso   1.000  C
  H381     1.0000 0.87890  0.22580  0.33180  Biso   1.000  H
  H382     1.0000 0.12110  0.72580  0.66820  Biso   1.000  H
  H383     1.0000 0.12110  0.77420  0.66820  Biso   1.000  H
  H384     1.0000 0.87890  0.27420  0.33180  Biso   1.000  H
  C247     1.0000 0.63600  0.25000  0.35380  Biso   1.000  C
  C248     1.0000 0.36400  0.75000  0.64620  Biso   1.000  C
  H385     1.0000 0.59230  0.27430  0.33180  Biso   1.000  H
  H386     1.0000 0.40770  0.77430  0.66820  Biso   1.000  H
  H387     1.0000 0.40770  0.72570  0.66820  Biso   1.000  H
  H388     1.0000 0.59230  0.22570  0.33180  Biso   1.000  H
  C249     1.0000 0.81300  0.20760  0.39680  Biso   1.000  C
  C250     1.0000 0.18700  0.70760  0.60320  Biso   1.000  C
  C251     1.0000 0.18700  0.79240  0.60320  Biso   1.000  C
  C252     1.0000 0.81300  0.29240  0.39680  Biso   1.000  C
  H389     1.0000 0.87490  0.19430  0.36200  Biso   1.000  H
  H390     1.0000 0.12510  0.69430  0.63800  Biso   1.000  H
  H391     1.0000 0.12510  0.80570  0.63800  Biso   1.000  H
  H392     1.0000 0.87490  0.30570  0.36200  Biso   1.000  H
  H393     1.0000 0.80910  0.18850  0.43230  Biso   1.000  H
  H394     1.0000 0.19090  0.68850  0.56770  Biso   1.000  H
  H395     1.0000 0.19090  0.81150  0.56770  Biso   1.000  H
  H396     1.0000 0.80910  0.31150  0.43230  Biso   1.000  H
  C253     1.0000 0.64800  0.21820  0.37970  Biso   1.000  C
  C254     1.0000 0.35200  0.71820  0.62030  Biso   1.000  C
  C255     1.0000 0.35200  0.78180  0.62030  Biso   1.000  C
  C256     1.0000 0.64800  0.28180  0.37970  Biso   1.000  C
  H397     1.0000 0.57140  0.19400  0.38170  Biso   1.000  H
  H398     1.0000 0.42860  0.69400  0.61830  Biso   1.000  H
  H399     1.0000 0.42860  0.80600  0.61830  Biso   1.000  H
  H400     1.0000 0.57140  0.30600  0.38170  Biso   1.000  H
  H401     1.0000 0.65050  0.22760  0.33610  Biso   1.000  H
  H402     1.0000 0.34950  0.72760  0.66390  Biso   1.000  H
  H403     1.0000 0.34950  0.77240  0.66390  Biso   1.000  H
  H404     1.0000 0.65050  0.27240  0.33610  Biso   1.000  H
  C257     1.0000 0.64800  0.21260  0.44370  Biso   1.000  C
  C258     1.0000 0.35200  0.71260  0.55630  Biso   1.000  C
  C259     1.0000 0.35200  0.78740  0.55630  Biso   1.000  C
  C260     1.0000 0.64800  0.28740  0.44370  Biso   1.000  C
  H405     1.0000 0.61590  0.18960  0.41640  Biso   1.000  H
  H406     1.0000 0.38410  0.68960  0.58360  Biso   1.000  H
  H407     1.0000 0.38410  0.81040  0.58360  Biso   1.000  H
  H408     1.0000 0.61590  0.31040  0.41640  Biso   1.000  H
  H409     1.0000 0.59750  0.20740  0.48520  Biso   1.000  H
  H410     1.0000 0.40250  0.70740  0.51480  Biso   1.000  H
  H411     1.0000 0.40250  0.79260  0.51480  Biso   1.000  H
  H412     1.0000 0.59750  0.29260  0.48520  Biso   1.000  H
  C261     1.0000 0.84700  0.21490  0.44900  Biso   1.000  C
  C262     1.0000 0.15300  0.71490  0.55100  Biso   1.000  C
  C263     1.0000 0.15300  0.78510  0.55100  Biso   1.000  C
  C264     1.0000 0.84700  0.28510  0.44900  Biso   1.000  C
  H413     1.0000 0.88050  0.21640  0.49330  Biso   1.000  H
  H414     1.0000 0.11950  0.71640  0.50670  Biso   1.000  H
  H415     1.0000 0.11950  0.78360  0.50670  Biso   1.000  H
  H416     1.0000 0.88050  0.28360  0.49330  Biso   1.000  H
  H417     1.0000 0.89940  0.19010  0.43120  Biso   1.000  H
  H418     1.0000 0.10060  0.69010  0.56880  Biso   1.000  H
  H419     1.0000 0.10060  0.80990  0.56880  Biso   1.000  H
  H420     1.0000 0.89940  0.30990  0.43120  Biso   1.000  H
  C265     1.0000 0.64400  0.23310  0.36240  Biso   1.000  C
  C266     1.0000 0.35600  0.73310  0.63760  Biso   1.000  C
  C267     1.0000 0.35600  0.76690  0.63760  Biso   1.000  C
  C268     1.0000 0.64400  0.26690  0.36240  Biso   1.000  C
  H421     1.0000 0.60450  0.25010  0.32710  Biso   1.000  H
  H422     1.0000 0.39550  0.75010  0.67290  Biso   1.000  H
  H423     1.0000 0.59270  0.20580  0.35640  Biso   1.000  H
  H424     1.0000 0.40730  0.70580  0.64360  Biso   1.000  H
  H425     1.0000 0.40730  0.79420  0.64360  Biso   1.000  H
  H426     1.0000 0.59270  0.29420  0.35640  Biso   1.000  H
  C269     1.0000 0.85400  0.22960  0.36040  Biso   1.000  C
  C270     1.0000 0.14600  0.72960  0.63960  Biso   1.000  C
  C271     1.0000 0.14600  0.77040  0.63960  Biso   1.000  C
  C272     1.0000 0.85400  0.27040  0.36040  Biso   1.000  C
  H427     1.0000 0.89100  0.20080  0.36030  Biso   1.000  H
  H428     1.0000 0.10900  0.70080  0.63970  Biso   1.000  H
  H429     1.0000 0.10900  0.79920  0.63970  Biso   1.000  H
  H430     1.0000 0.89100  0.29920  0.36030  Biso   1.000  H
  H431     1.0000 0.90150  0.24310  0.32310  Biso   1.000  H
  H432     1.0000 0.09850  0.74310  0.67690  Biso   1.000  H
  H433     1.0000 0.09850  0.75690  0.67690  Biso   1.000  H
  H434     1.0000 0.90150  0.25690  0.32310  Biso   1.000  H
  C273     1.0000 0.64800  0.22500  0.46910  Biso   1.000  C
  C274     1.0000 0.35200  0.72500  0.53090  Biso   1.000  C
  C275     1.0000 0.35200  0.77500  0.53090  Biso   1.000  C
  C276     1.0000 0.64800  0.27500  0.46910  Biso   1.000  C
  H435     1.0000 0.60400  0.19690  0.46450  Biso   1.000  H
  H436     1.0000 0.39600  0.69690  0.53550  Biso   1.000  H
  H437     1.0000 0.39600  0.80310  0.53550  Biso   1.000  H
  H438     1.0000 0.60400  0.30310  0.46450  Biso   1.000  H
  H439     1.0000 0.60500  0.23560  0.50920  Biso   1.000  H
  H440     1.0000 0.39500  0.73560  0.49080  Biso   1.000  H
  H441     1.0000 0.39500  0.76440  0.49080  Biso   1.000  H
  H442     1.0000 0.60500  0.26440  0.50920  Biso   1.000  H
  C277     1.0000 0.84800  0.22400  0.47060  Biso   1.000  C
  C278     1.0000 0.15200  0.72400  0.52940  Biso   1.000  C
  C279     1.0000 0.15200  0.77600  0.52940  Biso   1.000  C
  C280     1.0000 0.84800  0.27600  0.47060  Biso   1.000  C
  H443     1.0000 0.89130  0.19590  0.46610  Biso   1.000  H
  H444     1.0000 0.10870  0.69590  0.53390  Biso   1.000  H
  H445     1.0000 0.10870  0.80410  0.53390  Biso   1.000  H
  H446     1.0000 0.89130  0.30410  0.46610  Biso   1.000  H
  H447     1.0000 0.89230  0.23500  0.51050  Biso   1.000  H
  H448     1.0000 0.10770  0.73500  0.48950  Biso   1.000  H
  H449     1.0000 0.10770  0.76500  0.48950  Biso   1.000  H
  H450     1.0000 0.89230  0.26500  0.51050  Biso   1.000  H
  C281     1.0000 0.85100  0.21230  0.42490  Biso   1.000  C
  C282     1.0000 0.14900  0.71230  0.57510  Biso   1.000  C
  C283     1.0000 0.14900  0.78770  0.57510  Biso   1.000  C
  C284     1.0000 0.85100  0.28770  0.42490  Biso   1.000  C
  H451     1.0000 0.89070  0.20210  0.46580  Biso   1.000  H
  H452     1.0000 0.10930  0.70210  0.53420  Biso   1.000  H
  H453     1.0000 0.10930  0.79790  0.53420  Biso   1.000  H
  H454     1.0000 0.89070  0.29790  0.46580  Biso   1.000  H
  H455     1.0000 0.90260  0.19440  0.39270  Biso   1.000  H
  H456     1.0000 0.09740  0.69440  0.60730  Biso   1.000  H
  H457     1.0000 0.09740  0.80560  0.60730  Biso   1.000  H
  H458     1.0000 0.90260  0.30560  0.39270  Biso   1.000  H
  C285     1.0000 0.64400  0.20950  0.42120  Biso   1.000  C
  C286     1.0000 0.35600  0.70950  0.57880  Biso   1.000  C
  C287     1.0000 0.35600  0.79050  0.57880  Biso   1.000  C
  C288     1.0000 0.64400  0.29050  0.42120  Biso   1.000  C
  H459     1.0000 0.60860  0.19410  0.38380  Biso   1.000  H
  H460     1.0000 0.39140  0.69410  0.61620  Biso   1.000  H
  H461     1.0000 0.39140  0.80590  0.61620  Biso   1.000  H
  H462     1.0000 0.60860  0.30590  0.38380  Biso   1.000  H
  H463     1.0000 0.59820  0.19520  0.45820  Biso   1.000  H
  H464     1.0000 0.40180  0.69520  0.54180  Biso   1.000  H
  H465     1.0000 0.40180  0.80480  0.54180  Biso   1.000  H
  H466     1.0000 0.59820  0.30480  0.45820  Biso   1.000  H
  O1       1.0000 0.73800  0.05590  0.55040  Biso   1.000  O
  O2       1.0000 0.26200  0.55590  0.44960  Biso   1.000  O
  O3       1.0000 0.26200  0.94410  0.44960  Biso   1.000  O
  O4       1.0000 0.73800  0.44410  0.55040  Biso   1.000  O
  C289     1.0000 0.74600  0.01240  0.63450  Biso   1.000  C
  C290     1.0000 0.25400  0.51240  0.36550  Biso   1.000  C
  C291     1.0000 0.25400  0.98760  0.36550  Biso   1.000  C
  C292     1.0000 0.74600  0.48760  0.63450  Biso   1.000  C
  H467     1.0000 0.75540  0.01280  0.67980  Biso   1.000  H
  H468     1.0000 0.24460  0.51280  0.32020  Biso   1.000  H
  H469     1.0000 0.24460  0.98720  0.32020  Biso   1.000  H
  H470     1.0000 0.75540  0.48720  0.67980  Biso   1.000  H
  H471     1.0000 0.84620  0.99730  0.61730  Biso   1.000  H
  H472     1.0000 0.15380  0.49730  0.38270  Biso   1.000  H
  H473     1.0000 0.15380  0.00270  0.38270  Biso   1.000  H
  H474     1.0000 0.84620  0.50270  0.61730  Biso   1.000  H
  H475     1.0000 0.63610  0.99920  0.62220  Biso   1.000  H
  H476     1.0000 0.36390  0.49920  0.37780  Biso   1.000  H
  H477     1.0000 0.36390  0.00080  0.37780  Biso   1.000  H
  H478     1.0000 0.63610  0.50080  0.62220  Biso   1.000  H
  C293     1.0000 0.74900  0.05150  0.61220  Biso   1.000  C
  C294     1.0000 0.25100  0.55150  0.38780  Biso   1.000  C
  C295     1.0000 0.25100  0.94850  0.38780  Biso   1.000  C
  C296     1.0000 0.74900  0.44850  0.61220  Biso   1.000  C
  H479     1.0000 0.64910  0.06630  0.63110  Biso   1.000  H
  H480     1.0000 0.35090  0.56630  0.36890  Biso   1.000  H
  H481     1.0000 0.35090  0.93370  0.36890  Biso   1.000  H
  H482     1.0000 0.64910  0.43370  0.63110  Biso   1.000  H
  H483     1.0000 0.85850  0.06460  0.62650  Biso   1.000  H
  H484     1.0000 0.14150  0.56460  0.37350  Biso   1.000  H
  H485     1.0000 0.14150  0.93540  0.37350  Biso   1.000  H
  H486     1.0000 0.85850  0.43540  0.62650  Biso   1.000  H
  C297     1.0000 0.71300  0.09710  0.52660  Biso   1.000  C
  C298     1.0000 0.28700  0.59710  0.47340  Biso   1.000  C
  C299     1.0000 0.28700  0.90290  0.47340  Biso   1.000  C
  C300     1.0000 0.71300  0.40290  0.52660  Biso   1.000  C
  H487     1.0000 0.80490  0.11510  0.54440  Biso   1.000  H
  H488     1.0000 0.19510  0.61510  0.45560  Biso   1.000  H
  H489     1.0000 0.19510  0.88490  0.45560  Biso   1.000  H
  H490     1.0000 0.80490  0.38490  0.54440  Biso   1.000  H
  H491     1.0000 0.59690  0.10740  0.53980  Biso   1.000  H
  H492     1.0000 0.40310  0.60740  0.46020  Biso   1.000  H
  H493     1.0000 0.40310  0.89260  0.46020  Biso   1.000  H
  H494     1.0000 0.59690  0.39260  0.53980  Biso   1.000  H
  C301     1.0000 0.72500  0.09800  0.45280  Biso   1.000  C
  C302     1.0000 0.27500  0.59800  0.54720  Biso   1.000  C
  C303     1.0000 0.27500  0.90200  0.54720  Biso   1.000  C
  C304     1.0000 0.72500  0.40200  0.45280  Biso   1.000  C
  H495     1.0000 0.71160  0.12600  0.43810  Biso   1.000  H
  H496     1.0000 0.28840  0.62600  0.56190  Biso   1.000  H
  H497     1.0000 0.28840  0.87400  0.56190  Biso   1.000  H
  H498     1.0000 0.71160  0.37400  0.43810  Biso   1.000  H
  H499     1.0000 0.63170  0.08110  0.43510  Biso   1.000  H
  H500     1.0000 0.36830  0.58110  0.56490  Biso   1.000  H
  H501     1.0000 0.36830  0.91890  0.56490  Biso   1.000  H
  H502     1.0000 0.63170  0.41890  0.43510  Biso   1.000  H
  H503     1.0000 0.84020  0.08760  0.43970  Biso   1.000  H
  H504     1.0000 0.15980  0.58760  0.56030  Biso   1.000  H
  H505     1.0000 0.15980  0.91240  0.56030  Biso   1.000  H
  H506     1.0000 0.84020  0.41240  0.43970  Biso   1.000  H
  O5       1.0000 0.82000  0.25000  0.63640  Biso   1.000  O
  O6       1.0000 0.18000  0.75000  0.36360  Biso   1.000  O
  C305     1.0000 0.82100  0.31670  0.63540  Biso   1.000  C
  C306     1.0000 0.17900  0.81670  0.36460  Biso   1.000  C
  C307     1.0000 0.17900  0.68330  0.36460  Biso   1.000  C
  C308     1.0000 0.82100  0.18330  0.63540  Biso   1.000  C
  H507     1.0000 0.90740  0.33850  0.64160  Biso   1.000  H
  H508     1.0000 0.09260  0.83850  0.35840  Biso   1.000  H
  H509     1.0000 0.09260  0.66150  0.35840  Biso   1.000  H
  H510     1.0000 0.90740  0.16150  0.64160  Biso   1.000  H
  H511     1.0000 0.72390  0.32010  0.66470  Biso   1.000  H
  H512     1.0000 0.27610  0.82010  0.33530  Biso   1.000  H
  H513     1.0000 0.27610  0.67990  0.33530  Biso   1.000  H
  H514     1.0000 0.72390  0.17990  0.66470  Biso   1.000  H
  H515     1.0000 0.77580  0.31790  0.59290  Biso   1.000  H
  H516     1.0000 0.22420  0.81790  0.40710  Biso   1.000  H
  H517     1.0000 0.22420  0.68210  0.40710  Biso   1.000  H
  H518     1.0000 0.77580  0.18210  0.59290  Biso   1.000  H
  C309     1.0000 0.89800  0.28110  0.64510  Biso   1.000  C
  C310     1.0000 0.10200  0.78110  0.35490  Biso   1.000  C
  C311     1.0000 0.10200  0.71890  0.35490  Biso   1.000  C
  C312     1.0000 0.89800  0.21890  0.64510  Biso   1.000  C
  H519     1.0000 0.00490  0.28030  0.61870  Biso   1.000  H
  H520     1.0000 0.99510  0.78030  0.38130  Biso   1.000  H
  H521     1.0000 0.99510  0.71970  0.38130  Biso   1.000  H
  H522     1.0000 0.00490  0.21970  0.61870  Biso   1.000  H
  H523     1.0000 0.93940  0.28080  0.68870  Biso   1.000  H
  H524     1.0000 0.06060  0.78080  0.31130  Biso   1.000  H
  H525     1.0000 0.06060  0.71920  0.31130  Biso   1.000  H
  H526     1.0000 0.93940  0.21920  0.68870  Biso   1.000  H
  N1       1.0000 0.92780  0.09301  0.83490  Biso   1.000  N
  N2       1.0000 0.07220  0.59301  0.16510  Biso   1.000  N
  N3       1.0000 0.07220  0.90699  0.16510  Biso   1.000  N
  N4       1.0000 0.92780  0.40699  0.83490  Biso   1.000  N
  N5       1.0000 0.58530  0.09354  0.83480  Biso   1.000  N
  N6       1.0000 0.41470  0.59354  0.16520  Biso   1.000  N
  N7       1.0000 0.41470  0.90646  0.16520  Biso   1.000  N
  N8       1.0000 0.58530  0.40646  0.83480  Biso   1.000  N
  N9       1.0000 0.57370  0.25000  0.41850  Biso   1.000  N
  N10      1.0000 0.42630  0.75000  0.58150  Biso   1.000  N
  N11      1.0000 0.91370  0.25000  0.41680  Biso   1.000  N
  N12      1.0000 0.08630  0.75000  0.58320  Biso   1.000  N
  O7       1.0000 0.25670  0.03376  0.81499  Biso   1.000  O
  O8       1.0000 0.74330  0.53376  0.18501  Biso   1.000  O
  O9       1.0000 0.74330  0.96624  0.18501  Biso   1.000  O
  O10      1.0000 0.25670  0.46624  0.81499  Biso   1.000  O
  O11      1.0000 0.25350  0.10707  0.75032  Biso   1.000  O
  O12      1.0000 0.74650  0.60707  0.24968  Biso   1.000  O
  O13      1.0000 0.74650  0.89293  0.24968  Biso   1.000  O
  O14      1.0000 0.25350  0.39293  0.75032  Biso   1.000  O
  O15      1.0000 0.24490  0.20934  0.47928  Biso   1.000  O
  O16      1.0000 0.75510  0.70934  0.52072  Biso   1.000  O
  O17      1.0000 0.75510  0.79066  0.52072  Biso   1.000  O
  O18      1.0000 0.24490  0.29066  0.47928  Biso   1.000  O
  O19      1.0000 0.24280  0.20921  0.34890  Biso   1.000  O
  O20      1.0000 0.75720  0.70921  0.65110  Biso   1.000  O
  O21      1.0000 0.75720  0.79079  0.65110  Biso   1.000  O
  O22      1.0000 0.24280  0.29079  0.34890  Biso   1.000  O
  O23      1.0000 0.25730  0.07455  0.92369  Biso   1.000  O
  O24      1.0000 0.74270  0.57455  0.07631  Biso   1.000  O
  O25      1.0000 0.74270  0.92545  0.07631  Biso   1.000  O
  O26      1.0000 0.25730  0.42545  0.92369  Biso   1.000  O
  O27      1.0000 0.25710  0.14795  0.85843  Biso   1.000  O
  O28      1.0000 0.74290  0.64795  0.14157  Biso   1.000  O
  O29      1.0000 0.74290  0.85205  0.14157  Biso   1.000  O
  O30      1.0000 0.25710  0.35205  0.85843  Biso   1.000  O
  Cu1      1.0000 0.25558  0.09085  0.83695  Biso   1.000  Cu
  Cu2      1.0000 0.74442  0.59085  0.16305  Biso   1.000  Cu
  Cu3      1.0000 0.74442  0.90915  0.16305  Biso   1.000  Cu
  Cu4      1.0000 0.25558  0.40915  0.83695  Biso   1.000  Cu
  Cu5      1.0000 0.24448  0.25000  0.41420  Biso   1.000  Cu
  Cu6      1.0000 0.75552  0.75000  0.58580  Biso   1.000  Cu
