data_image0
_cell_length_a       25.3114
_cell_length_b       25.3114
_cell_length_c       14.3685
_cell_angle_alpha    90
_cell_angle_beta     90
_cell_angle_gamma    120

_symmetry_space_group_name_H-M    "P 1"
_symmetry_int_tables_number       1

loop_
  _symmetry_equiv_pos_as_xyz
  'x, y, z'

loop_
  _atom_site_label
  _atom_site_occupancy
  _atom_site_fract_x
  _atom_site_fract_y
  _atom_site_fract_z
  _atom_site_thermal_displace_type
  _atom_site_B_iso_or_equiv
  _atom_site_type_symbol
  Mo1      1.0000 0.76311  0.49175  0.71629  Biso   1.000  Mo
  Mo2      1.0000 0.50825  0.27136  0.71629  Biso   1.000  Mo
  Mo3      1.0000 0.72864  0.23689  0.71629  Biso   1.000  Mo
  Mo4      1.0000 0.42978  0.82508  0.04962  Biso   1.000  Mo
  Mo5      1.0000 0.17492  0.60469  0.04962  Biso   1.000  Mo
  Mo6      1.0000 0.39531  0.57022  0.04962  Biso   1.000  Mo
  Mo7      1.0000 0.09644  0.15842  0.38296  Biso   1.000  Mo
  Mo8      1.0000 0.84158  0.93803  0.38296  Biso   1.000  Mo
  Mo9      1.0000 0.06197  0.90356  0.38296  Biso   1.000  Mo
  Mo10     1.0000 0.23689  0.50825  0.28371  Biso   1.000  Mo
  Mo11     1.0000 0.49175  0.72864  0.28371  Biso   1.000  Mo
  Mo12     1.0000 0.27136  0.76311  0.28371  Biso   1.000  Mo
  Mo13     1.0000 0.90356  0.84158  0.61704  Biso   1.000  Mo
  Mo14     1.0000 0.15842  0.06197  0.61704  Biso   1.000  Mo
  Mo15     1.0000 0.93803  0.09644  0.61704  Biso   1.000  Mo
  Mo16     1.0000 0.57022  0.17492  0.95038  Biso   1.000  Mo
  Mo17     1.0000 0.82508  0.39531  0.95038  Biso   1.000  Mo
  Mo18     1.0000 0.60469  0.42978  0.95038  Biso   1.000  Mo
  Mo19     1.0000 0.60417  0.42921  0.68385  Biso   1.000  Mo
  Mo20     1.0000 0.57079  0.17496  0.68385  Biso   1.000  Mo
  Mo21     1.0000 0.82504  0.39583  0.68385  Biso   1.000  Mo
  Mo22     1.0000 0.27084  0.76254  0.01718  Biso   1.000  Mo
  Mo23     1.0000 0.23746  0.50829  0.01718  Biso   1.000  Mo
  Mo24     1.0000 0.49171  0.72916  0.01718  Biso   1.000  Mo
  Mo25     1.0000 0.93750  0.09588  0.35052  Biso   1.000  Mo
  Mo26     1.0000 0.90412  0.84163  0.35052  Biso   1.000  Mo
  Mo27     1.0000 0.15837  0.06250  0.35052  Biso   1.000  Mo
  Mo28     1.0000 0.39583  0.57079  0.31615  Biso   1.000  Mo
  Mo29     1.0000 0.42921  0.82504  0.31615  Biso   1.000  Mo
  Mo30     1.0000 0.17496  0.60417  0.31615  Biso   1.000  Mo
  Mo31     1.0000 0.06250  0.90412  0.64948  Biso   1.000  Mo
  Mo32     1.0000 0.09588  0.15837  0.64948  Biso   1.000  Mo
  Mo33     1.0000 0.84163  0.93750  0.64948  Biso   1.000  Mo
  Mo34     1.0000 0.72916  0.23746  0.98282  Biso   1.000  Mo
  Mo35     1.0000 0.76254  0.49171  0.98282  Biso   1.000  Mo
  Mo36     1.0000 0.50829  0.27084  0.98282  Biso   1.000  Mo
  O1       1.0000 0.80527  0.56494  0.68290  Biso   1.000  O
  O2       1.0000 0.43506  0.24033  0.68290  Biso   1.000  O
  O3       1.0000 0.75967  0.19473  0.68290  Biso   1.000  O
  O4       1.0000 0.47194  0.89827  0.01623  Biso   1.000  O
  O5       1.0000 0.10173  0.57366  0.01623  Biso   1.000  O
  O6       1.0000 0.42634  0.52806  0.01623  Biso   1.000  O
  O7       1.0000 0.13860  0.23161  0.34957  Biso   1.000  O
  O8       1.0000 0.76839  0.90700  0.34957  Biso   1.000  O
  O9       1.0000 0.09300  0.86140  0.34957  Biso   1.000  O
  O10      1.0000 0.19473  0.43506  0.31710  Biso   1.000  O
  O11      1.0000 0.56494  0.75967  0.31710  Biso   1.000  O
  O12      1.0000 0.24033  0.80527  0.31710  Biso   1.000  O
  O13      1.0000 0.86140  0.76839  0.65043  Biso   1.000  O
  O14      1.0000 0.23161  0.09300  0.65043  Biso   1.000  O
  O15      1.0000 0.90700  0.13860  0.65043  Biso   1.000  O
  O16      1.0000 0.52806  0.10173  0.98377  Biso   1.000  O
  O17      1.0000 0.89827  0.42634  0.98377  Biso   1.000  O
  O18      1.0000 0.57366  0.47194  0.98377  Biso   1.000  O
  O19      1.0000 0.75610  0.50280  0.84000  Biso   1.000  O
  O20      1.0000 0.49720  0.25330  0.84000  Biso   1.000  O
  O21      1.0000 0.74670  0.24390  0.84000  Biso   1.000  O
  O22      1.0000 0.42277  0.83613  0.17333  Biso   1.000  O
  O23      1.0000 0.16387  0.58663  0.17333  Biso   1.000  O
  O24      1.0000 0.41337  0.57723  0.17333  Biso   1.000  O
  O25      1.0000 0.08943  0.16947  0.50667  Biso   1.000  O
  O26      1.0000 0.83053  0.91997  0.50667  Biso   1.000  O
  O27      1.0000 0.08003  0.91057  0.50667  Biso   1.000  O
  O28      1.0000 0.24390  0.49720  0.16000  Biso   1.000  O
  O29      1.0000 0.50280  0.74670  0.16000  Biso   1.000  O
  O30      1.0000 0.25330  0.75610  0.16000  Biso   1.000  O
  O31      1.0000 0.91057  0.83053  0.49333  Biso   1.000  O
  O32      1.0000 0.16947  0.08003  0.49333  Biso   1.000  O
  O33      1.0000 0.91997  0.08943  0.49333  Biso   1.000  O
  O34      1.0000 0.57723  0.16387  0.82667  Biso   1.000  O
  O35      1.0000 0.83613  0.41337  0.82667  Biso   1.000  O
  O36      1.0000 0.58663  0.42277  0.82667  Biso   1.000  O
  O37      1.0000 0.80470  0.45180  0.72560  Biso   1.000  O
  O38      1.0000 0.54820  0.35290  0.72560  Biso   1.000  O
  O39      1.0000 0.64710  0.19530  0.72560  Biso   1.000  O
  O40      1.0000 0.47137  0.78513  0.05893  Biso   1.000  O
  O41      1.0000 0.21487  0.68623  0.05893  Biso   1.000  O
  O42      1.0000 0.31377  0.52863  0.05893  Biso   1.000  O
  O43      1.0000 0.13803  0.11847  0.39227  Biso   1.000  O
  O44      1.0000 0.88153  0.01957  0.39227  Biso   1.000  O
  O45      1.0000 0.98043  0.86197  0.39227  Biso   1.000  O
  O46      1.0000 0.19530  0.54820  0.27440  Biso   1.000  O
  O47      1.0000 0.45180  0.64710  0.27440  Biso   1.000  O
  O48      1.0000 0.35290  0.80470  0.27440  Biso   1.000  O
  O49      1.0000 0.86197  0.88153  0.60773  Biso   1.000  O
  O50      1.0000 0.11847  0.98043  0.60773  Biso   1.000  O
  O51      1.0000 0.01957  0.13803  0.60773  Biso   1.000  O
  O52      1.0000 0.52863  0.21487  0.94107  Biso   1.000  O
  O53      1.0000 0.78513  0.31377  0.94107  Biso   1.000  O
  O54      1.0000 0.68623  0.47137  0.94107  Biso   1.000  O
  O55      1.0000 0.74455  0.46242  0.57613  Biso   1.000  O
  O56      1.0000 0.53758  0.28213  0.57613  Biso   1.000  O
  O57      1.0000 0.71787  0.25545  0.57613  Biso   1.000  O
  O58      1.0000 0.41122  0.79575  0.90946  Biso   1.000  O
  O59      1.0000 0.20425  0.61546  0.90946  Biso   1.000  O
  O60      1.0000 0.38454  0.58878  0.90946  Biso   1.000  O
  O61      1.0000 0.07788  0.12909  0.24280  Biso   1.000  O
  O62      1.0000 0.87091  0.94880  0.24280  Biso   1.000  O
  O63      1.0000 0.05120  0.92212  0.24280  Biso   1.000  O
  O64      1.0000 0.25545  0.53758  0.42387  Biso   1.000  O
  O65      1.0000 0.46242  0.71787  0.42387  Biso   1.000  O
  O66      1.0000 0.28213  0.74455  0.42387  Biso   1.000  O
  O67      1.0000 0.92212  0.87091  0.75720  Biso   1.000  O
  O68      1.0000 0.12909  0.05120  0.75720  Biso   1.000  O
  O69      1.0000 0.94880  0.07788  0.75720  Biso   1.000  O
  O70      1.0000 0.58878  0.20425  0.09054  Biso   1.000  O
  O71      1.0000 0.79575  0.38454  0.09054  Biso   1.000  O
  O72      1.0000 0.61546  0.41122  0.09054  Biso   1.000  O
  O73      1.0000 0.68960  0.50150  0.68810  Biso   1.000  O
  O74      1.0000 0.49850  0.18810  0.68810  Biso   1.000  O
  O75      1.0000 0.81190  0.31040  0.68810  Biso   1.000  O
  O76      1.0000 0.35627  0.83483  0.02143  Biso   1.000  O
  O77      1.0000 0.16517  0.52143  0.02143  Biso   1.000  O
  O78      1.0000 0.47857  0.64373  0.02143  Biso   1.000  O
  O79      1.0000 0.02293  0.16817  0.35477  Biso   1.000  O
  O80      1.0000 0.83183  0.85477  0.35477  Biso   1.000  O
  O81      1.0000 0.14523  0.97707  0.35477  Biso   1.000  O
  O82      1.0000 0.31040  0.49850  0.31190  Biso   1.000  O
  O83      1.0000 0.50150  0.81190  0.31190  Biso   1.000  O
  O84      1.0000 0.18810  0.68960  0.31190  Biso   1.000  O
  O85      1.0000 0.97707  0.83183  0.64523  Biso   1.000  O
  O86      1.0000 0.16817  0.14523  0.64523  Biso   1.000  O
  O87      1.0000 0.85477  0.02293  0.64523  Biso   1.000  O
  O88      1.0000 0.64373  0.16517  0.97857  Biso   1.000  O
  O89      1.0000 0.83483  0.47857  0.97857  Biso   1.000  O
  O90      1.0000 0.52143  0.35627  0.97857  Biso   1.000  O
  O91      1.0000 0.61724  0.41372  0.56970  Biso   1.000  O
  O92      1.0000 0.58628  0.20352  0.56970  Biso   1.000  O
  O93      1.0000 0.79648  0.38276  0.56970  Biso   1.000  O
  O94      1.0000 0.28391  0.74705  0.90303  Biso   1.000  O
  O95      1.0000 0.25295  0.53685  0.90303  Biso   1.000  O
  O96      1.0000 0.46315  0.71609  0.90303  Biso   1.000  O
  O97      1.0000 0.95057  0.08039  0.23637  Biso   1.000  O
  O98      1.0000 0.91961  0.87019  0.23637  Biso   1.000  O
  O99      1.0000 0.12981  0.04943  0.23637  Biso   1.000  O
  O100     1.0000 0.38276  0.58628  0.43030  Biso   1.000  O
  O101     1.0000 0.41372  0.79648  0.43030  Biso   1.000  O
  O102     1.0000 0.20352  0.61724  0.43030  Biso   1.000  O
  O103     1.0000 0.04943  0.91961  0.76363  Biso   1.000  O
  O104     1.0000 0.08039  0.12981  0.76363  Biso   1.000  O
  O105     1.0000 0.87019  0.95057  0.76363  Biso   1.000  O
  O106     1.0000 0.71609  0.25295  0.09697  Biso   1.000  O
  O107     1.0000 0.74705  0.46315  0.09697  Biso   1.000  O
  O108     1.0000 0.53685  0.28391  0.09697  Biso   1.000  O
  O109     1.0000 0.57589  0.47593  0.67090  Biso   1.000  O
  O110     1.0000 0.52407  0.09996  0.67090  Biso   1.000  O
  O111     1.0000 0.90004  0.42411  0.67090  Biso   1.000  O
  O112     1.0000 0.24256  0.80926  0.00423  Biso   1.000  O
  O113     1.0000 0.19074  0.43329  0.00423  Biso   1.000  O
  O114     1.0000 0.56671  0.75744  0.00423  Biso   1.000  O
  O115     1.0000 0.90922  0.14260  0.33757  Biso   1.000  O
  O116     1.0000 0.85740  0.76663  0.33757  Biso   1.000  O
  O117     1.0000 0.23337  0.09078  0.33757  Biso   1.000  O
  O118     1.0000 0.42411  0.52407  0.32910  Biso   1.000  O
  O119     1.0000 0.47593  0.90004  0.32910  Biso   1.000  O
  O120     1.0000 0.09996  0.57589  0.32910  Biso   1.000  O
  O121     1.0000 0.09078  0.85740  0.66243  Biso   1.000  O
  O122     1.0000 0.14260  0.23337  0.66243  Biso   1.000  O
  O123     1.0000 0.76663  0.90922  0.66243  Biso   1.000  O
  O124     1.0000 0.75744  0.19074  0.99577  Biso   1.000  O
  O125     1.0000 0.80926  0.56671  0.99577  Biso   1.000  O
  O126     1.0000 0.43329  0.24256  0.99577  Biso   1.000  O
  Mo37     1.0000 0.69020  0.41949  0.48171  Biso   1.000  Mo
  Mo38     1.0000 0.58051  0.27071  0.48171  Biso   1.000  Mo
  Mo39     1.0000 0.72929  0.30980  0.48171  Biso   1.000  Mo
  Mo40     1.0000 0.35687  0.75282  0.81504  Biso   1.000  Mo
  Mo41     1.0000 0.24718  0.60404  0.81504  Biso   1.000  Mo
  Mo42     1.0000 0.39596  0.64313  0.81504  Biso   1.000  Mo
  Mo43     1.0000 0.02353  0.08616  0.14838  Biso   1.000  Mo
  Mo44     1.0000 0.91384  0.93738  0.14838  Biso   1.000  Mo
  Mo45     1.0000 0.06262  0.97647  0.14838  Biso   1.000  Mo
  Mo46     1.0000 0.30980  0.58051  0.51829  Biso   1.000  Mo
  Mo47     1.0000 0.41949  0.72929  0.51829  Biso   1.000  Mo
  Mo48     1.0000 0.27071  0.69020  0.51829  Biso   1.000  Mo
  Mo49     1.0000 0.97647  0.91384  0.85162  Biso   1.000  Mo
  Mo50     1.0000 0.08616  0.06262  0.85162  Biso   1.000  Mo
  Mo51     1.0000 0.93738  0.02353  0.85162  Biso   1.000  Mo
  Mo52     1.0000 0.64313  0.24718  0.18496  Biso   1.000  Mo
  Mo53     1.0000 0.75282  0.39596  0.18496  Biso   1.000  Mo
  Mo54     1.0000 0.60404  0.35687  0.18496  Biso   1.000  Mo
  O127     1.0000 0.69830  0.47410  0.40550  Biso   1.000  O
  O128     1.0000 0.52590  0.22420  0.40550  Biso   1.000  O
  O129     1.0000 0.77580  0.30170  0.40550  Biso   1.000  O
  O130     1.0000 0.36497  0.80743  0.73883  Biso   1.000  O
  O131     1.0000 0.19257  0.55753  0.73883  Biso   1.000  O
  O132     1.0000 0.44247  0.63503  0.73883  Biso   1.000  O
  O133     1.0000 0.03163  0.14077  0.07217  Biso   1.000  O
  O134     1.0000 0.85923  0.89087  0.07217  Biso   1.000  O
  O135     1.0000 0.10913  0.96837  0.07217  Biso   1.000  O
  O136     1.0000 0.30170  0.52590  0.59450  Biso   1.000  O
  O137     1.0000 0.47410  0.77580  0.59450  Biso   1.000  O
  O138     1.0000 0.22420  0.69830  0.59450  Biso   1.000  O
  O139     1.0000 0.96837  0.85923  0.92783  Biso   1.000  O
  O140     1.0000 0.14077  0.10913  0.92783  Biso   1.000  O
  O141     1.0000 0.89087  0.03163  0.92783  Biso   1.000  O
  O142     1.0000 0.63503  0.19257  0.26117  Biso   1.000  O
  O143     1.0000 0.80743  0.44247  0.26117  Biso   1.000  O
  O144     1.0000 0.55753  0.36497  0.26117  Biso   1.000  O
  O145     1.0000 0.73370  0.38680  0.43190  Biso   1.000  O
  O146     1.0000 0.61320  0.34690  0.43190  Biso   1.000  O
  O147     1.0000 0.65310  0.26630  0.43190  Biso   1.000  O
  O148     1.0000 0.40037  0.72013  0.76523  Biso   1.000  O
  O149     1.0000 0.27987  0.68023  0.76523  Biso   1.000  O
  O150     1.0000 0.31977  0.59963  0.76523  Biso   1.000  O
  O151     1.0000 0.06703  0.05347  0.09857  Biso   1.000  O
  O152     1.0000 0.94653  0.01357  0.09857  Biso   1.000  O
  O153     1.0000 0.98643  0.93297  0.09857  Biso   1.000  O
  O154     1.0000 0.26630  0.61320  0.56810  Biso   1.000  O
  O155     1.0000 0.38680  0.65310  0.56810  Biso   1.000  O
  O156     1.0000 0.34690  0.73370  0.56810  Biso   1.000  O
  O157     1.0000 0.93297  0.94653  0.90143  Biso   1.000  O
  O158     1.0000 0.05347  0.98643  0.90143  Biso   1.000  O
  O159     1.0000 0.01357  0.06703  0.90143  Biso   1.000  O
  O160     1.0000 0.59963  0.27987  0.23477  Biso   1.000  O
  O161     1.0000 0.72013  0.31977  0.23477  Biso   1.000  O
  O162     1.0000 0.68023  0.40037  0.23477  Biso   1.000  O
  As1      1.0000 0.66670  0.33330  0.69400  Biso   1.000  As
  As2      1.0000 0.33337  0.66663  0.02733  Biso   1.000  As
  As3      1.0000 0.00003  0.99997  0.36067  Biso   1.000  As
  As4      1.0000 0.33330  0.66670  0.30600  Biso   1.000  As
  As5      1.0000 0.99997  0.00003  0.63933  Biso   1.000  As
  As6      1.0000 0.66663  0.33337  0.97267  Biso   1.000  As
  O163     1.0000 0.67540  0.40040  0.73270  Biso   1.000  O
  O164     1.0000 0.59960  0.27500  0.73270  Biso   1.000  O
  O165     1.0000 0.72500  0.32460  0.73270  Biso   1.000  O
  O166     1.0000 0.34207  0.73373  0.06603  Biso   1.000  O
  O167     1.0000 0.26627  0.60833  0.06603  Biso   1.000  O
  O168     1.0000 0.39167  0.65793  0.06603  Biso   1.000  O
  O169     1.0000 0.00873  0.06707  0.39937  Biso   1.000  O
  O170     1.0000 0.93293  0.94167  0.39937  Biso   1.000  O
  O171     1.0000 0.05833  0.99127  0.39937  Biso   1.000  O
  O172     1.0000 0.32460  0.59960  0.26730  Biso   1.000  O
  O173     1.0000 0.40040  0.72500  0.26730  Biso   1.000  O
  O174     1.0000 0.27500  0.67540  0.26730  Biso   1.000  O
  O175     1.0000 0.99127  0.93293  0.60063  Biso   1.000  O
  O176     1.0000 0.06707  0.05833  0.60063  Biso   1.000  O
  O177     1.0000 0.94167  0.00873  0.60063  Biso   1.000  O
  O178     1.0000 0.65793  0.26627  0.93397  Biso   1.000  O
  O179     1.0000 0.73373  0.39167  0.93397  Biso   1.000  O
  O180     1.0000 0.60833  0.34207  0.93397  Biso   1.000  O
  O181     1.0000 0.66670  0.33330  0.57600  Biso   1.000  O
  O182     1.0000 0.33337  0.66663  0.90933  Biso   1.000  O
  O183     1.0000 0.00003  0.99997  0.24267  Biso   1.000  O
  O184     1.0000 0.33330  0.66670  0.42400  Biso   1.000  O
  O185     1.0000 0.99997  0.00003  0.75733  Biso   1.000  O
  O186     1.0000 0.66663  0.33337  0.09067  Biso   1.000  O
  Cu1      1.0000 0.83330  0.66670  0.66670  Biso   1.000  Cu
  Cu2      1.0000 0.33330  0.16660  0.66670  Biso   1.000  Cu
  Cu3      1.0000 0.83340  0.16670  0.66670  Biso   1.000  Cu
  Cu4      1.0000 0.49997  0.00003  0.00003  Biso   1.000  Cu
  Cu5      1.0000 0.99997  0.49993  0.00003  Biso   1.000  Cu
  Cu6      1.0000 0.50007  0.50003  0.00003  Biso   1.000  Cu
  Cu7      1.0000 0.16663  0.33337  0.33337  Biso   1.000  Cu
  Cu8      1.0000 0.66663  0.83327  0.33337  Biso   1.000  Cu
  Cu9      1.0000 0.16673  0.83337  0.33337  Biso   1.000  Cu
  N1       1.0000 0.75980  0.64990  0.58490  Biso   1.000  N
  N2       1.0000 0.35010  0.10990  0.58490  Biso   1.000  N
  N3       1.0000 0.89010  0.24020  0.58490  Biso   1.000  N
  N4       1.0000 0.42647  0.98323  0.91823  Biso   1.000  N
  N5       1.0000 0.01677  0.44323  0.91823  Biso   1.000  N
  N6       1.0000 0.55677  0.57353  0.91823  Biso   1.000  N
  N7       1.0000 0.09313  0.31657  0.25157  Biso   1.000  N
  N8       1.0000 0.68343  0.77657  0.25157  Biso   1.000  N
  N9       1.0000 0.22343  0.90687  0.25157  Biso   1.000  N
  N10      1.0000 0.24020  0.35010  0.41510  Biso   1.000  N
  N11      1.0000 0.64990  0.89010  0.41510  Biso   1.000  N
  N12      1.0000 0.10990  0.75980  0.41510  Biso   1.000  N
  N13      1.0000 0.90687  0.68343  0.74843  Biso   1.000  N
  N14      1.0000 0.31657  0.22343  0.74843  Biso   1.000  N
  N15      1.0000 0.77657  0.09313  0.74843  Biso   1.000  N
  N16      1.0000 0.57353  0.01677  0.08177  Biso   1.000  N
  N17      1.0000 0.98323  0.55677  0.08177  Biso   1.000  N
  N18      1.0000 0.44323  0.42647  0.08177  Biso   1.000  N
  N19      1.0000 0.67530  0.60720  0.50600  Biso   1.000  N
  N20      1.0000 0.39280  0.06810  0.50600  Biso   1.000  N
  N21      1.0000 0.93190  0.32470  0.50600  Biso   1.000  N
  N22      1.0000 0.34197  0.94053  0.83933  Biso   1.000  N
  N23      1.0000 0.05947  0.40143  0.83933  Biso   1.000  N
  N24      1.0000 0.59857  0.65803  0.83933  Biso   1.000  N
  N25      1.0000 0.00863  0.27387  0.17267  Biso   1.000  N
  N26      1.0000 0.72613  0.73477  0.17267  Biso   1.000  N
  N27      1.0000 0.26523  0.99137  0.17267  Biso   1.000  N
  N28      1.0000 0.32470  0.39280  0.49400  Biso   1.000  N
  N29      1.0000 0.60720  0.93190  0.49400  Biso   1.000  N
  N30      1.0000 0.06810  0.67530  0.49400  Biso   1.000  N
  N31      1.0000 0.99137  0.72613  0.82733  Biso   1.000  N
  N32      1.0000 0.27387  0.26523  0.82733  Biso   1.000  N
  N33      1.0000 0.73477  0.00863  0.82733  Biso   1.000  N
  N34      1.0000 0.65803  0.05947  0.16067  Biso   1.000  N
  N35      1.0000 0.94053  0.59857  0.16067  Biso   1.000  N
  N36      1.0000 0.40143  0.34197  0.16067  Biso   1.000  N
  N37      1.0000 0.71280  0.65420  0.44920  Biso   1.000  N
  N38      1.0000 0.34580  0.05860  0.44920  Biso   1.000  N
  N39      1.0000 0.94140  0.28720  0.44920  Biso   1.000  N
  N40      1.0000 0.37947  0.98753  0.78253  Biso   1.000  N
  N41      1.0000 0.01247  0.39193  0.78253  Biso   1.000  N
  N42      1.0000 0.60807  0.62053  0.78253  Biso   1.000  N
  N43      1.0000 0.04613  0.32087  0.11587  Biso   1.000  N
  N44      1.0000 0.67913  0.72527  0.11587  Biso   1.000  N
  N45      1.0000 0.27473  0.95387  0.11587  Biso   1.000  N
  N46      1.0000 0.28720  0.34580  0.55080  Biso   1.000  N
  N47      1.0000 0.65420  0.94140  0.55080  Biso   1.000  N
  N48      1.0000 0.05860  0.71280  0.55080  Biso   1.000  N
  N49      1.0000 0.95387  0.67913  0.88413  Biso   1.000  N
  N50      1.0000 0.32087  0.27473  0.88413  Biso   1.000  N
  N51      1.0000 0.72527  0.04613  0.88413  Biso   1.000  N
  N52      1.0000 0.62053  0.01247  0.21747  Biso   1.000  N
  N53      1.0000 0.98753  0.60807  0.21747  Biso   1.000  N
  N54      1.0000 0.39193  0.37947  0.21747  Biso   1.000  N
  N55      1.0000 0.58350  0.54380  0.25630  Biso   1.000  N
  N56      1.0000 0.45620  0.03970  0.25630  Biso   1.000  N
  N57      1.0000 0.96030  0.41650  0.25630  Biso   1.000  N
  N58      1.0000 0.25017  0.87713  0.58963  Biso   1.000  N
  N59      1.0000 0.12287  0.37303  0.58963  Biso   1.000  N
  N60      1.0000 0.62697  0.74983  0.58963  Biso   1.000  N
  N61      1.0000 0.91683  0.21047  0.92297  Biso   1.000  N
  N62      1.0000 0.78953  0.70637  0.92297  Biso   1.000  N
  N63      1.0000 0.29363  0.08317  0.92297  Biso   1.000  N
  N64      1.0000 0.41650  0.45620  0.74370  Biso   1.000  N
  N65      1.0000 0.54380  0.96030  0.74370  Biso   1.000  N
  N66      1.0000 0.03970  0.58350  0.74370  Biso   1.000  N
  N67      1.0000 0.08317  0.78953  0.07703  Biso   1.000  N
  N68      1.0000 0.21047  0.29363  0.07703  Biso   1.000  N
  N69      1.0000 0.70637  0.91683  0.07703  Biso   1.000  N
  N70      1.0000 0.74983  0.12287  0.41037  Biso   1.000  N
  N71      1.0000 0.87713  0.62697  0.41037  Biso   1.000  N
  N72      1.0000 0.37303  0.25017  0.41037  Biso   1.000  N
  N73      1.0000 0.57400  0.59220  0.25330  Biso   1.000  N
  N74      1.0000 0.40780  0.98180  0.25330  Biso   1.000  N
  N75      1.0000 0.01820  0.42600  0.25330  Biso   1.000  N
  N76      1.0000 0.24067  0.92553  0.58663  Biso   1.000  N
  N77      1.0000 0.07447  0.31513  0.58663  Biso   1.000  N
  N78      1.0000 0.68487  0.75933  0.58663  Biso   1.000  N
  N79      1.0000 0.90733  0.25887  0.91997  Biso   1.000  N
  N80      1.0000 0.74113  0.64847  0.91997  Biso   1.000  N
  N81      1.0000 0.35153  0.09267  0.91997  Biso   1.000  N
  N82      1.0000 0.42600  0.40780  0.74670  Biso   1.000  N
  N83      1.0000 0.59220  0.01820  0.74670  Biso   1.000  N
  N84      1.0000 0.98180  0.57400  0.74670  Biso   1.000  N
  N85      1.0000 0.09267  0.74113  0.08003  Biso   1.000  N
  N86      1.0000 0.25887  0.35153  0.08003  Biso   1.000  N
  N87      1.0000 0.64847  0.90733  0.08003  Biso   1.000  N
  N88      1.0000 0.75933  0.07447  0.41337  Biso   1.000  N
  N89      1.0000 0.92553  0.68487  0.41337  Biso   1.000  N
  N90      1.0000 0.31513  0.24067  0.41337  Biso   1.000  N
  N91      1.0000 0.54240  0.53940  0.12030  Biso   1.000  N
  N92      1.0000 0.46060  0.00300  0.12030  Biso   1.000  N
  N93      1.0000 0.99700  0.45760  0.12030  Biso   1.000  N
  N94      1.0000 0.20907  0.87273  0.45363  Biso   1.000  N
  N95      1.0000 0.12727  0.33633  0.45363  Biso   1.000  N
  N96      1.0000 0.66367  0.79093  0.45363  Biso   1.000  N
  N97      1.0000 0.87573  0.20607  0.78697  Biso   1.000  N
  N98      1.0000 0.79393  0.66967  0.78697  Biso   1.000  N
  N99      1.0000 0.33033  0.12427  0.78697  Biso   1.000  N
  N100     1.0000 0.45760  0.46060  0.87970  Biso   1.000  N
  N101     1.0000 0.53940  0.99700  0.87970  Biso   1.000  N
  N102     1.0000 0.00300  0.54240  0.87970  Biso   1.000  N
  N103     1.0000 0.12427  0.79393  0.21303  Biso   1.000  N
  N104     1.0000 0.20607  0.33033  0.21303  Biso   1.000  N
  N105     1.0000 0.66967  0.87573  0.21303  Biso   1.000  N
  N106     1.0000 0.79093  0.12727  0.54637  Biso   1.000  N
  N107     1.0000 0.87273  0.66367  0.54637  Biso   1.000  N
  N108     1.0000 0.33633  0.20907  0.54637  Biso   1.000  N
  C1       1.0000 0.70300  0.60460  0.58230  Biso   1.000  C
  C2       1.0000 0.39540  0.09840  0.58230  Biso   1.000  C
  C3       1.0000 0.90160  0.29700  0.58230  Biso   1.000  C
  C4       1.0000 0.36967  0.93793  0.91563  Biso   1.000  C
  C5       1.0000 0.06207  0.43173  0.91563  Biso   1.000  C
  C6       1.0000 0.56827  0.63033  0.91563  Biso   1.000  C
  C7       1.0000 0.03633  0.27127  0.24897  Biso   1.000  C
  C8       1.0000 0.72873  0.76507  0.24897  Biso   1.000  C
  C9       1.0000 0.23493  0.96367  0.24897  Biso   1.000  C
  C10      1.0000 0.29700  0.39540  0.41770  Biso   1.000  C
  C11      1.0000 0.60460  0.90160  0.41770  Biso   1.000  C
  C12      1.0000 0.09840  0.70300  0.41770  Biso   1.000  C
  C13      1.0000 0.96367  0.72873  0.75103  Biso   1.000  C
  C14      1.0000 0.27127  0.23493  0.75103  Biso   1.000  C
  C15      1.0000 0.76507  0.03633  0.75103  Biso   1.000  C
  C16      1.0000 0.63033  0.06207  0.08437  Biso   1.000  C
  C17      1.0000 0.93793  0.56827  0.08437  Biso   1.000  C
  C18      1.0000 0.43173  0.36967  0.08437  Biso   1.000  C
  H1       1.0000 0.68490  0.57480  0.62800  Biso   1.000  H
  H2       1.0000 0.42520  0.11010  0.62800  Biso   1.000  H
  H3       1.0000 0.88990  0.31510  0.62800  Biso   1.000  H
  H4       1.0000 0.35157  0.90813  0.96133  Biso   1.000  H
  H5       1.0000 0.09187  0.44343  0.96133  Biso   1.000  H
  H6       1.0000 0.55657  0.64843  0.96133  Biso   1.000  H
  H7       1.0000 0.01823  0.24147  0.29467  Biso   1.000  H
  H8       1.0000 0.75853  0.77677  0.29467  Biso   1.000  H
  H9       1.0000 0.22323  0.98177  0.29467  Biso   1.000  H
  H10      1.0000 0.31510  0.42520  0.37200  Biso   1.000  H
  H11      1.0000 0.57480  0.88990  0.37200  Biso   1.000  H
  H12      1.0000 0.11010  0.68490  0.37200  Biso   1.000  H
  H13      1.0000 0.98177  0.75853  0.70533  Biso   1.000  H
  H14      1.0000 0.24147  0.22323  0.70533  Biso   1.000  H
  H15      1.0000 0.77677  0.01823  0.70533  Biso   1.000  H
  H16      1.0000 0.64843  0.09187  0.03867  Biso   1.000  H
  H17      1.0000 0.90813  0.55657  0.03867  Biso   1.000  H
  H18      1.0000 0.44343  0.35157  0.03867  Biso   1.000  H
  C19      1.0000 0.76220  0.67660  0.49910  Biso   1.000  C
  C20      1.0000 0.32340  0.08560  0.49910  Biso   1.000  C
  C21      1.0000 0.91440  0.23780  0.49910  Biso   1.000  C
  C22      1.0000 0.42887  0.00993  0.83243  Biso   1.000  C
  C23      1.0000 0.99007  0.41893  0.83243  Biso   1.000  C
  C24      1.0000 0.58107  0.57113  0.83243  Biso   1.000  C
  C25      1.0000 0.09553  0.34327  0.16577  Biso   1.000  C
  C26      1.0000 0.65673  0.75227  0.16577  Biso   1.000  C
  C27      1.0000 0.24773  0.90447  0.16577  Biso   1.000  C
  C28      1.0000 0.23780  0.32340  0.50090  Biso   1.000  C
  C29      1.0000 0.67660  0.91440  0.50090  Biso   1.000  C
  C30      1.0000 0.08560  0.76220  0.50090  Biso   1.000  C
  C31      1.0000 0.90447  0.65673  0.83423  Biso   1.000  C
  C32      1.0000 0.34327  0.24773  0.83423  Biso   1.000  C
  C33      1.0000 0.75227  0.09553  0.83423  Biso   1.000  C
  C34      1.0000 0.57113  0.99007  0.16757  Biso   1.000  C
  C35      1.0000 0.00993  0.58107  0.16757  Biso   1.000  C
  C36      1.0000 0.41893  0.42887  0.16757  Biso   1.000  C
  H19      1.0000 0.79840  0.70970  0.47800  Biso   1.000  H
  H20      1.0000 0.29030  0.08870  0.47800  Biso   1.000  H
  H21      1.0000 0.91130  0.20160  0.47800  Biso   1.000  H
  H22      1.0000 0.46507  0.04303  0.81133  Biso   1.000  H
  H23      1.0000 0.95697  0.42203  0.81133  Biso   1.000  H
  H24      1.0000 0.57797  0.53493  0.81133  Biso   1.000  H
  H25      1.0000 0.13173  0.37637  0.14467  Biso   1.000  H
  H26      1.0000 0.62363  0.75537  0.14467  Biso   1.000  H
  H27      1.0000 0.24463  0.86827  0.14467  Biso   1.000  H
  H28      1.0000 0.20160  0.29030  0.52200  Biso   1.000  H
  H29      1.0000 0.70970  0.91130  0.52200  Biso   1.000  H
  H30      1.0000 0.08870  0.79840  0.52200  Biso   1.000  H
  H31      1.0000 0.86827  0.62363  0.85533  Biso   1.000  H
  H32      1.0000 0.37637  0.24463  0.85533  Biso   1.000  H
  H33      1.0000 0.75537  0.13173  0.85533  Biso   1.000  H
  H34      1.0000 0.53493  0.95697  0.18867  Biso   1.000  H
  H35      1.0000 0.04303  0.57797  0.18867  Biso   1.000  H
  H36      1.0000 0.42203  0.46507  0.18867  Biso   1.000  H
  C37      1.0000 0.61080  0.56280  0.49460  Biso   1.000  C
  C38      1.0000 0.43720  0.04800  0.49460  Biso   1.000  C
  C39      1.0000 0.95200  0.38920  0.49460  Biso   1.000  C
  C40      1.0000 0.27747  0.89613  0.82793  Biso   1.000  C
  C41      1.0000 0.10387  0.38133  0.82793  Biso   1.000  C
  C42      1.0000 0.61867  0.72253  0.82793  Biso   1.000  C
  C43      1.0000 0.94413  0.22947  0.16127  Biso   1.000  C
  C44      1.0000 0.77053  0.71467  0.16127  Biso   1.000  C
  C45      1.0000 0.28533  0.05587  0.16127  Biso   1.000  C
  C46      1.0000 0.38920  0.43720  0.50540  Biso   1.000  C
  C47      1.0000 0.56280  0.95200  0.50540  Biso   1.000  C
  C48      1.0000 0.04800  0.61080  0.50540  Biso   1.000  C
  C49      1.0000 0.05587  0.77053  0.83873  Biso   1.000  C
  C50      1.0000 0.22947  0.28533  0.83873  Biso   1.000  C
  C51      1.0000 0.71467  0.94413  0.83873  Biso   1.000  C
  C52      1.0000 0.72253  0.10387  0.17207  Biso   1.000  C
  C53      1.0000 0.89613  0.61867  0.17207  Biso   1.000  C
  C54      1.0000 0.38133  0.27747  0.17207  Biso   1.000  C
  H37      1.0000 0.60680  0.52290  0.48790  Biso   1.000  H
  H38      1.0000 0.47710  0.08390  0.48790  Biso   1.000  H
  H39      1.0000 0.91610  0.39320  0.48790  Biso   1.000  H
  H40      1.0000 0.27347  0.85623  0.82123  Biso   1.000  H
  H41      1.0000 0.14377  0.41723  0.82123  Biso   1.000  H
  H42      1.0000 0.58277  0.72653  0.82123  Biso   1.000  H
  H43      1.0000 0.94013  0.18957  0.15457  Biso   1.000  H
  H44      1.0000 0.81043  0.75057  0.15457  Biso   1.000  H
  H45      1.0000 0.24943  0.05987  0.15457  Biso   1.000  H
  H46      1.0000 0.39320  0.47710  0.51210  Biso   1.000  H
  H47      1.0000 0.52290  0.91610  0.51210  Biso   1.000  H
  H48      1.0000 0.08390  0.60680  0.51210  Biso   1.000  H
  H49      1.0000 0.05987  0.81043  0.84543  Biso   1.000  H
  H50      1.0000 0.18957  0.24943  0.84543  Biso   1.000  H
  H51      1.0000 0.75057  0.94013  0.84543  Biso   1.000  H
  H52      1.0000 0.72653  0.14377  0.17877  Biso   1.000  H
  H53      1.0000 0.85623  0.58277  0.17877  Biso   1.000  H
  H54      1.0000 0.41723  0.27347  0.17877  Biso   1.000  H
  H55      1.0000 0.59000  0.56230  0.55170  Biso   1.000  H
  H56      1.0000 0.43770  0.02770  0.55170  Biso   1.000  H
  H57      1.0000 0.97230  0.41000  0.55170  Biso   1.000  H
  H58      1.0000 0.25667  0.89563  0.88503  Biso   1.000  H
  H59      1.0000 0.10437  0.36103  0.88503  Biso   1.000  H
  H60      1.0000 0.63897  0.74333  0.88503  Biso   1.000  H
  H61      1.0000 0.92333  0.22897  0.21837  Biso   1.000  H
  H62      1.0000 0.77103  0.69437  0.21837  Biso   1.000  H
  H63      1.0000 0.30563  0.07667  0.21837  Biso   1.000  H
  H64      1.0000 0.41000  0.43770  0.44830  Biso   1.000  H
  H65      1.0000 0.56230  0.97230  0.44830  Biso   1.000  H
  H66      1.0000 0.02770  0.59000  0.44830  Biso   1.000  H
  H67      1.0000 0.07667  0.77103  0.78163  Biso   1.000  H
  H68      1.0000 0.22897  0.30563  0.78163  Biso   1.000  H
  H69      1.0000 0.69437  0.92333  0.78163  Biso   1.000  H
  H70      1.0000 0.74333  0.10437  0.11497  Biso   1.000  H
  H71      1.0000 0.89563  0.63897  0.11497  Biso   1.000  H
  H72      1.0000 0.36103  0.25667  0.11497  Biso   1.000  H
  C55      1.0000 0.57910  0.57110  0.41930  Biso   1.000  C
  C56      1.0000 0.42890  0.00800  0.41930  Biso   1.000  C
  C57      1.0000 0.99200  0.42090  0.41930  Biso   1.000  C
  C58      1.0000 0.24577  0.90443  0.75263  Biso   1.000  C
  C59      1.0000 0.09557  0.34133  0.75263  Biso   1.000  C
  C60      1.0000 0.65867  0.75423  0.75263  Biso   1.000  C
  C61      1.0000 0.91243  0.23777  0.08597  Biso   1.000  C
  C62      1.0000 0.76223  0.67467  0.08597  Biso   1.000  C
  C63      1.0000 0.32533  0.08757  0.08597  Biso   1.000  C
  C64      1.0000 0.42090  0.42890  0.58070  Biso   1.000  C
  C65      1.0000 0.57110  0.99200  0.58070  Biso   1.000  C
  C66      1.0000 0.00800  0.57910  0.58070  Biso   1.000  C
  C67      1.0000 0.08757  0.76223  0.91403  Biso   1.000  C
  C68      1.0000 0.23777  0.32533  0.91403  Biso   1.000  C
  C69      1.0000 0.67467  0.91243  0.91403  Biso   1.000  C
  C70      1.0000 0.75423  0.09557  0.24737  Biso   1.000  C
  C71      1.0000 0.90443  0.65867  0.24737  Biso   1.000  C
  C72      1.0000 0.34133  0.24577  0.24737  Biso   1.000  C
  H73      1.0000 0.59280  0.61340  0.40500  Biso   1.000  H
  H74      1.0000 0.38660  0.97940  0.40500  Biso   1.000  H
  H75      1.0000 0.02060  0.40720  0.40500  Biso   1.000  H
  H76      1.0000 0.25947  0.94673  0.73833  Biso   1.000  H
  H77      1.0000 0.05327  0.31273  0.73833  Biso   1.000  H
  H78      1.0000 0.68727  0.74053  0.73833  Biso   1.000  H
  H79      1.0000 0.92613  0.28007  0.07167  Biso   1.000  H
  H80      1.0000 0.71993  0.64607  0.07167  Biso   1.000  H
  H81      1.0000 0.35393  0.07387  0.07167  Biso   1.000  H
  H82      1.0000 0.40720  0.38660  0.59500  Biso   1.000  H
  H83      1.0000 0.61340  0.02060  0.59500  Biso   1.000  H
  H84      1.0000 0.97940  0.59280  0.59500  Biso   1.000  H
  H85      1.0000 0.07387  0.71993  0.92833  Biso   1.000  H
  H86      1.0000 0.28007  0.35393  0.92833  Biso   1.000  H
  H87      1.0000 0.64607  0.92613  0.92833  Biso   1.000  H
  H88      1.0000 0.74053  0.05327  0.26167  Biso   1.000  H
  H89      1.0000 0.94673  0.68727  0.26167  Biso   1.000  H
  H90      1.0000 0.31273  0.25947  0.26167  Biso   1.000  H
  H91      1.0000 0.53500  0.54760  0.42500  Biso   1.000  H
  H92      1.0000 0.45240  0.98740  0.42500  Biso   1.000  H
  H93      1.0000 0.01260  0.46500  0.42500  Biso   1.000  H
  H94      1.0000 0.20167  0.88093  0.75833  Biso   1.000  H
  H95      1.0000 0.11907  0.32073  0.75833  Biso   1.000  H
  H96      1.0000 0.67927  0.79833  0.75833  Biso   1.000  H
  H97      1.0000 0.86833  0.21427  0.09167  Biso   1.000  H
  H98      1.0000 0.78573  0.65407  0.09167  Biso   1.000  H
  H99      1.0000 0.34593  0.13167  0.09167  Biso   1.000  H
  H100     1.0000 0.46500  0.45240  0.57500  Biso   1.000  H
  H101     1.0000 0.54760  0.01260  0.57500  Biso   1.000  H
  H102     1.0000 0.98740  0.53500  0.57500  Biso   1.000  H
  H103     1.0000 0.13167  0.78573  0.90833  Biso   1.000  H
  H104     1.0000 0.21427  0.34593  0.90833  Biso   1.000  H
  H105     1.0000 0.65407  0.86833  0.90833  Biso   1.000  H
  H106     1.0000 0.79833  0.11907  0.24167  Biso   1.000  H
  H107     1.0000 0.88093  0.67927  0.24167  Biso   1.000  H
  H108     1.0000 0.32073  0.20167  0.24167  Biso   1.000  H
  C73      1.0000 0.60880  0.53870  0.34810  Biso   1.000  C
  C74      1.0000 0.46130  0.07010  0.34810  Biso   1.000  C
  C75      1.0000 0.92990  0.39120  0.34810  Biso   1.000  C
  C76      1.0000 0.27547  0.87203  0.68143  Biso   1.000  C
  C77      1.0000 0.12797  0.40343  0.68143  Biso   1.000  C
  C78      1.0000 0.59657  0.72453  0.68143  Biso   1.000  C
  C79      1.0000 0.94213  0.20537  0.01477  Biso   1.000  C
  C80      1.0000 0.79463  0.73677  0.01477  Biso   1.000  C
  C81      1.0000 0.26323  0.05787  0.01477  Biso   1.000  C
  C82      1.0000 0.39120  0.46130  0.65190  Biso   1.000  C
  C83      1.0000 0.53870  0.92990  0.65190  Biso   1.000  C
  C84      1.0000 0.07010  0.60880  0.65190  Biso   1.000  C
  C85      1.0000 0.05787  0.79463  0.98523  Biso   1.000  C
  C86      1.0000 0.20537  0.26323  0.98523  Biso   1.000  C
  C87      1.0000 0.73677  0.94213  0.98523  Biso   1.000  C
  C88      1.0000 0.72453  0.12797  0.31857  Biso   1.000  C
  C89      1.0000 0.87203  0.59657  0.31857  Biso   1.000  C
  C90      1.0000 0.40343  0.27547  0.31857  Biso   1.000  C
  H109     1.0000 0.65300  0.56140  0.34840  Biso   1.000  H
  H110     1.0000 0.43860  0.09160  0.34840  Biso   1.000  H
  H111     1.0000 0.90840  0.34700  0.34840  Biso   1.000  H
  H112     1.0000 0.31967  0.89473  0.68173  Biso   1.000  H
  H113     1.0000 0.10527  0.42493  0.68173  Biso   1.000  H
  H114     1.0000 0.57507  0.68033  0.68173  Biso   1.000  H
  H115     1.0000 0.98633  0.22807  0.01507  Biso   1.000  H
  H116     1.0000 0.77193  0.75827  0.01507  Biso   1.000  H
  H117     1.0000 0.24173  0.01367  0.01507  Biso   1.000  H
  H118     1.0000 0.34700  0.43860  0.65160  Biso   1.000  H
  H119     1.0000 0.56140  0.90840  0.65160  Biso   1.000  H
  H120     1.0000 0.09160  0.65300  0.65160  Biso   1.000  H
  H121     1.0000 0.01367  0.77193  0.98493  Biso   1.000  H
  H122     1.0000 0.22807  0.24173  0.98493  Biso   1.000  H
  H123     1.0000 0.75827  0.98633  0.98493  Biso   1.000  H
  H124     1.0000 0.68033  0.10527  0.31827  Biso   1.000  H
  H125     1.0000 0.89473  0.57507  0.31827  Biso   1.000  H
  H126     1.0000 0.42493  0.31967  0.31827  Biso   1.000  H
  H127     1.0000 0.59450  0.49660  0.36470  Biso   1.000  H
  H128     1.0000 0.50340  0.09790  0.36470  Biso   1.000  H
  H129     1.0000 0.90210  0.40550  0.36470  Biso   1.000  H
  H130     1.0000 0.26117  0.82993  0.69803  Biso   1.000  H
  H131     1.0000 0.17007  0.43123  0.69803  Biso   1.000  H
  H132     1.0000 0.56877  0.73883  0.69803  Biso   1.000  H
  H133     1.0000 0.92783  0.16327  0.03137  Biso   1.000  H
  H134     1.0000 0.83673  0.76457  0.03137  Biso   1.000  H
  H135     1.0000 0.23543  0.07217  0.03137  Biso   1.000  H
  H136     1.0000 0.40550  0.50340  0.63530  Biso   1.000  H
  H137     1.0000 0.49660  0.90210  0.63530  Biso   1.000  H
  H138     1.0000 0.09790  0.59450  0.63530  Biso   1.000  H
  H139     1.0000 0.07217  0.83673  0.96863  Biso   1.000  H
  H140     1.0000 0.16327  0.23543  0.96863  Biso   1.000  H
  H141     1.0000 0.76457  0.92783  0.96863  Biso   1.000  H
  H142     1.0000 0.73883  0.17007  0.30197  Biso   1.000  H
  H143     1.0000 0.82993  0.56877  0.30197  Biso   1.000  H
  H144     1.0000 0.43123  0.26117  0.30197  Biso   1.000  H
  C91      1.0000 0.56240  0.51260  0.17770  Biso   1.000  C
  C92      1.0000 0.48740  0.04980  0.17770  Biso   1.000  C
  C93      1.0000 0.95020  0.43760  0.17770  Biso   1.000  C
  C94      1.0000 0.22907  0.84593  0.51103  Biso   1.000  C
  C95      1.0000 0.15407  0.38313  0.51103  Biso   1.000  C
  C96      1.0000 0.61687  0.77093  0.51103  Biso   1.000  C
  C97      1.0000 0.89573  0.17927  0.84437  Biso   1.000  C
  C98      1.0000 0.82073  0.71647  0.84437  Biso   1.000  C
  C99      1.0000 0.28353  0.10427  0.84437  Biso   1.000  C
  C100     1.0000 0.43760  0.48740  0.82230  Biso   1.000  C
  C101     1.0000 0.51260  0.95020  0.82230  Biso   1.000  C
  C102     1.0000 0.04980  0.56240  0.82230  Biso   1.000  C
  C103     1.0000 0.10427  0.82073  0.15563  Biso   1.000  C
  C104     1.0000 0.17927  0.28353  0.15563  Biso   1.000  C
  C105     1.0000 0.71647  0.89573  0.15563  Biso   1.000  C
  C106     1.0000 0.77093  0.15407  0.48897  Biso   1.000  C
  C107     1.0000 0.84593  0.61687  0.48897  Biso   1.000  C
  C108     1.0000 0.38313  0.22907  0.48897  Biso   1.000  C
  H145     1.0000 0.56180  0.47630  0.16480  Biso   1.000  H
  H146     1.0000 0.52370  0.08550  0.16480  Biso   1.000  H
  H147     1.0000 0.91450  0.43820  0.16480  Biso   1.000  H
  H148     1.0000 0.22847  0.80963  0.49813  Biso   1.000  H
  H149     1.0000 0.19037  0.41883  0.49813  Biso   1.000  H
  H150     1.0000 0.58117  0.77153  0.49813  Biso   1.000  H
  H151     1.0000 0.89513  0.14297  0.83147  Biso   1.000  H
  H152     1.0000 0.85703  0.75217  0.83147  Biso   1.000  H
  H153     1.0000 0.24783  0.10487  0.83147  Biso   1.000  H
  H154     1.0000 0.43820  0.52370  0.83520  Biso   1.000  H
  H155     1.0000 0.47630  0.91450  0.83520  Biso   1.000  H
  H156     1.0000 0.08550  0.56180  0.83520  Biso   1.000  H
  H157     1.0000 0.10487  0.85703  0.16853  Biso   1.000  H
  H158     1.0000 0.14297  0.24783  0.16853  Biso   1.000  H
  H159     1.0000 0.75217  0.89513  0.16853  Biso   1.000  H
  H160     1.0000 0.77153  0.19037  0.50187  Biso   1.000  H
  H161     1.0000 0.80963  0.58117  0.50187  Biso   1.000  H
  H162     1.0000 0.41883  0.22847  0.50187  Biso   1.000  H
  C109     1.0000 0.54460  0.58470  0.17560  Biso   1.000  C
  C110     1.0000 0.41530  0.95990  0.17560  Biso   1.000  C
  C111     1.0000 0.04010  0.45540  0.17560  Biso   1.000  C
  C112     1.0000 0.21127  0.91803  0.50893  Biso   1.000  C
  C113     1.0000 0.08197  0.29323  0.50893  Biso   1.000  C
  C114     1.0000 0.70677  0.78873  0.50893  Biso   1.000  C
  C115     1.0000 0.87793  0.25137  0.84227  Biso   1.000  C
  C116     1.0000 0.74863  0.62657  0.84227  Biso   1.000  C
  C117     1.0000 0.37343  0.12207  0.84227  Biso   1.000  C
  C118     1.0000 0.45540  0.41530  0.82440  Biso   1.000  C
  C119     1.0000 0.58470  0.04010  0.82440  Biso   1.000  C
  C120     1.0000 0.95990  0.54460  0.82440  Biso   1.000  C
  C121     1.0000 0.12207  0.74863  0.15773  Biso   1.000  C
  C122     1.0000 0.25137  0.37343  0.15773  Biso   1.000  C
  C123     1.0000 0.62657  0.87793  0.15773  Biso   1.000  C
  C124     1.0000 0.78873  0.08197  0.49107  Biso   1.000  C
  C125     1.0000 0.91803  0.70677  0.49107  Biso   1.000  C
  C126     1.0000 0.29323  0.21127  0.49107  Biso   1.000  C
  H163     1.0000 0.52690  0.60780  0.15910  Biso   1.000  H
  H164     1.0000 0.39220  0.91910  0.15910  Biso   1.000  H
  H165     1.0000 0.08090  0.47310  0.15910  Biso   1.000  H
  H166     1.0000 0.19357  0.94113  0.49243  Biso   1.000  H
  H167     1.0000 0.05887  0.25243  0.49243  Biso   1.000  H
  H168     1.0000 0.74757  0.80643  0.49243  Biso   1.000  H
  H169     1.0000 0.86023  0.27447  0.82577  Biso   1.000  H
  H170     1.0000 0.72553  0.58577  0.82577  Biso   1.000  H
  H171     1.0000 0.41423  0.13977  0.82577  Biso   1.000  H
  H172     1.0000 0.47310  0.39220  0.84090  Biso   1.000  H
  H173     1.0000 0.60780  0.08090  0.84090  Biso   1.000  H
  H174     1.0000 0.91910  0.52690  0.84090  Biso   1.000  H
  H175     1.0000 0.13977  0.72553  0.17423  Biso   1.000  H
  H176     1.0000 0.27447  0.41423  0.17423  Biso   1.000  H
  H177     1.0000 0.58577  0.86023  0.17423  Biso   1.000  H
  H178     1.0000 0.80643  0.05887  0.50757  Biso   1.000  H
  H179     1.0000 0.94113  0.74757  0.50757  Biso   1.000  H
  H180     1.0000 0.25243  0.19357  0.50757  Biso   1.000  H
  Mo55     1.0000 0.58889  0.33198  0.48576  Biso   1.000  Mo
  Mo56     1.0000 0.66802  0.25691  0.48576  Biso   1.000  Mo
  Mo57     1.0000 0.74309  0.41111  0.48576  Biso   1.000  Mo
  Mo58     1.0000 0.25556  0.66531  0.81909  Biso   1.000  Mo
  Mo59     1.0000 0.33469  0.59024  0.81909  Biso   1.000  Mo
  Mo60     1.0000 0.40976  0.74444  0.81909  Biso   1.000  Mo
  Mo61     1.0000 0.92222  0.99865  0.15243  Biso   1.000  Mo
  Mo62     1.0000 0.00135  0.92358  0.15243  Biso   1.000  Mo
  Mo63     1.0000 0.07642  0.07778  0.15243  Biso   1.000  Mo
  Mo64     1.0000 0.41111  0.66802  0.51424  Biso   1.000  Mo
  Mo65     1.0000 0.33198  0.74309  0.51424  Biso   1.000  Mo
  Mo66     1.0000 0.25691  0.58889  0.51424  Biso   1.000  Mo
  Mo67     1.0000 0.07778  0.00135  0.84757  Biso   1.000  Mo
  Mo68     1.0000 0.99865  0.07642  0.84757  Biso   1.000  Mo
  Mo69     1.0000 0.92358  0.92222  0.84757  Biso   1.000  Mo
  Mo70     1.0000 0.74444  0.33469  0.18091  Biso   1.000  Mo
  Mo71     1.0000 0.66531  0.40976  0.18091  Biso   1.000  Mo
  Mo72     1.0000 0.59024  0.25556  0.18091  Biso   1.000  Mo
  O187     1.0000 0.78020  0.49990  0.83420  Biso   1.000  O
  O188     1.0000 0.50010  0.28030  0.83420  Biso   1.000  O
  O189     1.0000 0.71970  0.21980  0.83420  Biso   1.000  O
  O190     1.0000 0.44687  0.83323  0.16753  Biso   1.000  O
  O191     1.0000 0.16677  0.61363  0.16753  Biso   1.000  O
  O192     1.0000 0.38637  0.55313  0.16753  Biso   1.000  O
  O193     1.0000 0.11353  0.16657  0.50087  Biso   1.000  O
  O194     1.0000 0.83343  0.94697  0.50087  Biso   1.000  O
  O195     1.0000 0.05303  0.88647  0.50087  Biso   1.000  O
  O196     1.0000 0.21980  0.50010  0.16580  Biso   1.000  O
  O197     1.0000 0.49990  0.71970  0.16580  Biso   1.000  O
  O198     1.0000 0.28030  0.78020  0.16580  Biso   1.000  O
  O199     1.0000 0.88647  0.83343  0.49913  Biso   1.000  O
  O200     1.0000 0.16657  0.05303  0.49913  Biso   1.000  O
  O201     1.0000 0.94697  0.11353  0.49913  Biso   1.000  O
  O202     1.0000 0.55313  0.16677  0.83247  Biso   1.000  O
  O203     1.0000 0.83323  0.38637  0.83247  Biso   1.000  O
  O204     1.0000 0.61363  0.44687  0.83247  Biso   1.000  O
  O205     1.0000 0.83420  0.47900  0.68170  Biso   1.000  O
  O206     1.0000 0.52100  0.35520  0.68170  Biso   1.000  O
  O207     1.0000 0.64480  0.16580  0.68170  Biso   1.000  O
  O208     1.0000 0.50087  0.81233  0.01503  Biso   1.000  O
  O209     1.0000 0.18767  0.68853  0.01503  Biso   1.000  O
  O210     1.0000 0.31147  0.49913  0.01503  Biso   1.000  O
  O211     1.0000 0.16753  0.14567  0.34837  Biso   1.000  O
  O212     1.0000 0.85433  0.02187  0.34837  Biso   1.000  O
  O213     1.0000 0.97813  0.83247  0.34837  Biso   1.000  O
  O214     1.0000 0.16580  0.52100  0.31830  Biso   1.000  O
  O215     1.0000 0.47900  0.64480  0.31830  Biso   1.000  O
  O216     1.0000 0.35520  0.83420  0.31830  Biso   1.000  O
  O217     1.0000 0.83247  0.85433  0.65163  Biso   1.000  O
  O218     1.0000 0.14567  0.97813  0.65163  Biso   1.000  O
  O219     1.0000 0.02187  0.16753  0.65163  Biso   1.000  O
  O220     1.0000 0.49913  0.18767  0.98497  Biso   1.000  O
  O221     1.0000 0.81233  0.31147  0.98497  Biso   1.000  O
  O222     1.0000 0.68853  0.50087  0.98497  Biso   1.000  O
  O223     1.0000 0.68380  0.46950  0.72180  Biso   1.000  O
  O224     1.0000 0.53050  0.21430  0.72180  Biso   1.000  O
  O225     1.0000 0.78570  0.31620  0.72180  Biso   1.000  O
  O226     1.0000 0.35047  0.80283  0.05513  Biso   1.000  O
  O227     1.0000 0.19717  0.54763  0.05513  Biso   1.000  O
  O228     1.0000 0.45237  0.64953  0.05513  Biso   1.000  O
  O229     1.0000 0.01713  0.13617  0.38847  Biso   1.000  O
  O230     1.0000 0.86383  0.88097  0.38847  Biso   1.000  O
  O231     1.0000 0.11903  0.98287  0.38847  Biso   1.000  O
  O232     1.0000 0.31620  0.53050  0.27820  Biso   1.000  O
  O233     1.0000 0.46950  0.78570  0.27820  Biso   1.000  O
  O234     1.0000 0.21430  0.68380  0.27820  Biso   1.000  O
  O235     1.0000 0.98287  0.86383  0.61153  Biso   1.000  O
  O236     1.0000 0.13617  0.11903  0.61153  Biso   1.000  O
  O237     1.0000 0.88097  0.01713  0.61153  Biso   1.000  O
  O238     1.0000 0.64953  0.19717  0.94487  Biso   1.000  O
  O239     1.0000 0.80283  0.45237  0.94487  Biso   1.000  O
  O240     1.0000 0.54763  0.35047  0.94487  Biso   1.000  O
  O241     1.0000 0.73370  0.39140  0.72780  Biso   1.000  O
  O242     1.0000 0.60860  0.34230  0.72780  Biso   1.000  O
  O243     1.0000 0.65770  0.26630  0.72780  Biso   1.000  O
  O244     1.0000 0.40037  0.72473  0.06113  Biso   1.000  O
  O245     1.0000 0.27527  0.67563  0.06113  Biso   1.000  O
  O246     1.0000 0.32437  0.59963  0.06113  Biso   1.000  O
  O247     1.0000 0.06703  0.05807  0.39447  Biso   1.000  O
  O248     1.0000 0.94193  0.00897  0.39447  Biso   1.000  O
  O249     1.0000 0.99103  0.93297  0.39447  Biso   1.000  O
  O250     1.0000 0.26630  0.60860  0.27220  Biso   1.000  O
  O251     1.0000 0.39140  0.65770  0.27220  Biso   1.000  O
  O252     1.0000 0.34230  0.73370  0.27220  Biso   1.000  O
  O253     1.0000 0.93297  0.94193  0.60553  Biso   1.000  O
  O254     1.0000 0.05807  0.99103  0.60553  Biso   1.000  O
  O255     1.0000 0.00897  0.06703  0.60553  Biso   1.000  O
  O256     1.0000 0.59963  0.27527  0.93887  Biso   1.000  O
  O257     1.0000 0.72473  0.32437  0.93887  Biso   1.000  O
  O258     1.0000 0.67563  0.40037  0.93887  Biso   1.000  O
  O259     1.0000 0.54250  0.33900  0.40920  Biso   1.000  O
  O260     1.0000 0.66100  0.20350  0.40920  Biso   1.000  O
  O261     1.0000 0.79650  0.45750  0.40920  Biso   1.000  O
  O262     1.0000 0.20917  0.67233  0.74253  Biso   1.000  O
  O263     1.0000 0.32767  0.53683  0.74253  Biso   1.000  O
  O264     1.0000 0.46317  0.79083  0.74253  Biso   1.000  O
  O265     1.0000 0.87583  0.00567  0.07587  Biso   1.000  O
  O266     1.0000 0.99433  0.87017  0.07587  Biso   1.000  O
  O267     1.0000 0.12983  0.12417  0.07587  Biso   1.000  O
  O268     1.0000 0.45750  0.66100  0.59080  Biso   1.000  O
  O269     1.0000 0.33900  0.79650  0.59080  Biso   1.000  O
  O270     1.0000 0.20350  0.54250  0.59080  Biso   1.000  O
  O271     1.0000 0.12417  0.99433  0.92413  Biso   1.000  O
  O272     1.0000 0.00567  0.12983  0.92413  Biso   1.000  O
  O273     1.0000 0.87017  0.87583  0.92413  Biso   1.000  O
  O274     1.0000 0.79083  0.32767  0.25747  Biso   1.000  O
  O275     1.0000 0.67233  0.46317  0.25747  Biso   1.000  O
  O276     1.0000 0.53683  0.20917  0.25747  Biso   1.000  O
  O277     1.0000 0.60380  0.27450  0.43450  Biso   1.000  O
  O278     1.0000 0.72550  0.32930  0.43450  Biso   1.000  O
  O279     1.0000 0.67070  0.39620  0.43450  Biso   1.000  O
  O280     1.0000 0.27047  0.60783  0.76783  Biso   1.000  O
  O281     1.0000 0.39217  0.66263  0.76783  Biso   1.000  O
  O282     1.0000 0.33737  0.72953  0.76783  Biso   1.000  O
  O283     1.0000 0.93713  0.94117  0.10117  Biso   1.000  O
  O284     1.0000 0.05883  0.99597  0.10117  Biso   1.000  O
  O285     1.0000 0.00403  0.06287  0.10117  Biso   1.000  O
  O286     1.0000 0.39620  0.72550  0.56550  Biso   1.000  O
  O287     1.0000 0.27450  0.67070  0.56550  Biso   1.000  O
  O288     1.0000 0.32930  0.60380  0.56550  Biso   1.000  O
  O289     1.0000 0.06287  0.05883  0.89883  Biso   1.000  O
  O290     1.0000 0.94117  0.00403  0.89883  Biso   1.000  O
  O291     1.0000 0.99597  0.93713  0.89883  Biso   1.000  O
  O292     1.0000 0.72953  0.39217  0.23217  Biso   1.000  O
  O293     1.0000 0.60783  0.33737  0.23217  Biso   1.000  O
  O294     1.0000 0.66263  0.27047  0.23217  Biso   1.000  O
  N109     1.0000 0.75710  0.64790  0.59030  Biso   1.000  N
  N110     1.0000 0.35210  0.10920  0.59030  Biso   1.000  N
  N111     1.0000 0.89080  0.24290  0.59030  Biso   1.000  N
  N112     1.0000 0.42377  0.98123  0.92363  Biso   1.000  N
  N113     1.0000 0.01877  0.44253  0.92363  Biso   1.000  N
  N114     1.0000 0.55747  0.57623  0.92363  Biso   1.000  N
  N115     1.0000 0.09043  0.31457  0.25697  Biso   1.000  N
  N116     1.0000 0.68543  0.77587  0.25697  Biso   1.000  N
  N117     1.0000 0.22413  0.90957  0.25697  Biso   1.000  N
  N118     1.0000 0.24290  0.35210  0.40970  Biso   1.000  N
  N119     1.0000 0.64790  0.89080  0.40970  Biso   1.000  N
  N120     1.0000 0.10920  0.75710  0.40970  Biso   1.000  N
  N121     1.0000 0.90957  0.68543  0.74303  Biso   1.000  N
  N122     1.0000 0.31457  0.22413  0.74303  Biso   1.000  N
  N123     1.0000 0.77587  0.09043  0.74303  Biso   1.000  N
  N124     1.0000 0.57623  0.01877  0.07637  Biso   1.000  N
  N125     1.0000 0.98123  0.55747  0.07637  Biso   1.000  N
  N126     1.0000 0.44253  0.42377  0.07637  Biso   1.000  N
  N127     1.0000 0.76420  0.64540  0.57260  Biso   1.000  N
  N128     1.0000 0.35460  0.11880  0.57260  Biso   1.000  N
  N129     1.0000 0.88120  0.23580  0.57260  Biso   1.000  N
  N130     1.0000 0.43087  0.97873  0.90593  Biso   1.000  N
  N131     1.0000 0.02127  0.45213  0.90593  Biso   1.000  N
  N132     1.0000 0.54787  0.56913  0.90593  Biso   1.000  N
  N133     1.0000 0.09753  0.31207  0.23927  Biso   1.000  N
  N134     1.0000 0.68793  0.78547  0.23927  Biso   1.000  N
  N135     1.0000 0.21453  0.90247  0.23927  Biso   1.000  N
  N136     1.0000 0.23580  0.35460  0.42740  Biso   1.000  N
  N137     1.0000 0.64540  0.88120  0.42740  Biso   1.000  N
  N138     1.0000 0.11880  0.76420  0.42740  Biso   1.000  N
  N139     1.0000 0.90247  0.68793  0.76073  Biso   1.000  N
  N140     1.0000 0.31207  0.21453  0.76073  Biso   1.000  N
  N141     1.0000 0.78547  0.09753  0.76073  Biso   1.000  N
  N142     1.0000 0.56913  0.02127  0.09407  Biso   1.000  N
  N143     1.0000 0.97873  0.54787  0.09407  Biso   1.000  N
  N144     1.0000 0.45213  0.43087  0.09407  Biso   1.000  N
  N145     1.0000 0.66630  0.61560  0.52520  Biso   1.000  N
  N146     1.0000 0.38440  0.05070  0.52520  Biso   1.000  N
  N147     1.0000 0.94930  0.33370  0.52520  Biso   1.000  N
  N148     1.0000 0.33297  0.94893  0.85853  Biso   1.000  N
  N149     1.0000 0.05107  0.38403  0.85853  Biso   1.000  N
  N150     1.0000 0.61597  0.66703  0.85853  Biso   1.000  N
  N151     1.0000 0.99963  0.28227  0.19187  Biso   1.000  N
  N152     1.0000 0.71773  0.71737  0.19187  Biso   1.000  N
  N153     1.0000 0.28263  0.00037  0.19187  Biso   1.000  N
  N154     1.0000 0.33370  0.38440  0.47480  Biso   1.000  N
  N155     1.0000 0.61560  0.94930  0.47480  Biso   1.000  N
  N156     1.0000 0.05070  0.66630  0.47480  Biso   1.000  N
  N157     1.0000 0.00037  0.71773  0.80813  Biso   1.000  N
  N158     1.0000 0.28227  0.28263  0.80813  Biso   1.000  N
  N159     1.0000 0.71737  0.99963  0.80813  Biso   1.000  N
  N160     1.0000 0.66703  0.05107  0.14147  Biso   1.000  N
  N161     1.0000 0.94893  0.61597  0.14147  Biso   1.000  N
  N162     1.0000 0.38403  0.33297  0.14147  Biso   1.000  N
  N163     1.0000 0.68340  0.58050  0.51240  Biso   1.000  N
  N164     1.0000 0.41950  0.10290  0.51240  Biso   1.000  N
  N165     1.0000 0.89710  0.31660  0.51240  Biso   1.000  N
  N166     1.0000 0.35007  0.91383  0.84573  Biso   1.000  N
  N167     1.0000 0.08617  0.43623  0.84573  Biso   1.000  N
  N168     1.0000 0.56377  0.64993  0.84573  Biso   1.000  N
  N169     1.0000 0.01673  0.24717  0.17907  Biso   1.000  N
  N170     1.0000 0.75283  0.76957  0.17907  Biso   1.000  N
  N171     1.0000 0.23043  0.98327  0.17907  Biso   1.000  N
  N172     1.0000 0.31660  0.41950  0.48760  Biso   1.000  N
  N173     1.0000 0.58050  0.89710  0.48760  Biso   1.000  N
  N174     1.0000 0.10290  0.68340  0.48760  Biso   1.000  N
  N175     1.0000 0.98327  0.75283  0.82093  Biso   1.000  N
  N176     1.0000 0.24717  0.23043  0.82093  Biso   1.000  N
  N177     1.0000 0.76957  0.01673  0.82093  Biso   1.000  N
  N178     1.0000 0.64993  0.08617  0.15427  Biso   1.000  N
  N179     1.0000 0.91383  0.56377  0.15427  Biso   1.000  N
  N180     1.0000 0.43623  0.35007  0.15427  Biso   1.000  N
  N181     1.0000 0.70730  0.66550  0.47640  Biso   1.000  N
  N182     1.0000 0.33450  0.04180  0.47640  Biso   1.000  N
  N183     1.0000 0.95820  0.29270  0.47640  Biso   1.000  N
  N184     1.0000 0.37397  0.99883  0.80973  Biso   1.000  N
  N185     1.0000 0.00117  0.37513  0.80973  Biso   1.000  N
  N186     1.0000 0.62487  0.62603  0.80973  Biso   1.000  N
  N187     1.0000 0.04063  0.33217  0.14307  Biso   1.000  N
  N188     1.0000 0.66783  0.70847  0.14307  Biso   1.000  N
  N189     1.0000 0.29153  0.95937  0.14307  Biso   1.000  N
  N190     1.0000 0.29270  0.33450  0.52360  Biso   1.000  N
  N191     1.0000 0.66550  0.95820  0.52360  Biso   1.000  N
  N192     1.0000 0.04180  0.70730  0.52360  Biso   1.000  N
  N193     1.0000 0.95937  0.66783  0.85693  Biso   1.000  N
  N194     1.0000 0.33217  0.29153  0.85693  Biso   1.000  N
  N195     1.0000 0.70847  0.04063  0.85693  Biso   1.000  N
  N196     1.0000 0.62603  0.00117  0.19027  Biso   1.000  N
  N197     1.0000 0.99883  0.62487  0.19027  Biso   1.000  N
  N198     1.0000 0.37513  0.37397  0.19027  Biso   1.000  N
  N199     1.0000 0.67560  0.62820  0.53690  Biso   1.000  N
  N200     1.0000 0.37180  0.04740  0.53690  Biso   1.000  N
  N201     1.0000 0.95260  0.32440  0.53690  Biso   1.000  N
  N202     1.0000 0.34227  0.96153  0.87023  Biso   1.000  N
  N203     1.0000 0.03847  0.38073  0.87023  Biso   1.000  N
  N204     1.0000 0.61927  0.65773  0.87023  Biso   1.000  N
  N205     1.0000 0.00893  0.29487  0.20357  Biso   1.000  N
  N206     1.0000 0.70513  0.71407  0.20357  Biso   1.000  N
  N207     1.0000 0.28593  0.99107  0.20357  Biso   1.000  N
  N208     1.0000 0.32440  0.37180  0.46310  Biso   1.000  N
  N209     1.0000 0.62820  0.95260  0.46310  Biso   1.000  N
  N210     1.0000 0.04740  0.67560  0.46310  Biso   1.000  N
  N211     1.0000 0.99107  0.70513  0.79643  Biso   1.000  N
  N212     1.0000 0.29487  0.28593  0.79643  Biso   1.000  N
  N213     1.0000 0.71407  0.00893  0.79643  Biso   1.000  N
  N214     1.0000 0.65773  0.03847  0.12977  Biso   1.000  N
  N215     1.0000 0.96153  0.61927  0.12977  Biso   1.000  N
  N216     1.0000 0.38073  0.34227  0.12977  Biso   1.000  N
  N217     1.0000 0.58130  0.58370  0.25790  Biso   1.000  N
  N218     1.0000 0.41630  0.99760  0.25790  Biso   1.000  N
  N219     1.0000 0.00240  0.41870  0.25790  Biso   1.000  N
  N220     1.0000 0.24797  0.91703  0.59123  Biso   1.000  N
  N221     1.0000 0.08297  0.33093  0.59123  Biso   1.000  N
  N222     1.0000 0.66907  0.75203  0.59123  Biso   1.000  N
  N223     1.0000 0.91463  0.25037  0.92457  Biso   1.000  N
  N224     1.0000 0.74963  0.66427  0.92457  Biso   1.000  N
  N225     1.0000 0.33573  0.08537  0.92457  Biso   1.000  N
  N226     1.0000 0.41870  0.41630  0.74210  Biso   1.000  N
  N227     1.0000 0.58370  0.00240  0.74210  Biso   1.000  N
  N228     1.0000 0.99760  0.58130  0.74210  Biso   1.000  N
  N229     1.0000 0.08537  0.74963  0.07543  Biso   1.000  N
  N230     1.0000 0.25037  0.33573  0.07543  Biso   1.000  N
  N231     1.0000 0.66427  0.91463  0.07543  Biso   1.000  N
  N232     1.0000 0.75203  0.08297  0.40877  Biso   1.000  N
  N233     1.0000 0.91703  0.66907  0.40877  Biso   1.000  N
  N234     1.0000 0.33093  0.24797  0.40877  Biso   1.000  N
  N235     1.0000 0.59620  0.57070  0.24080  Biso   1.000  N
  N236     1.0000 0.42930  0.02550  0.24080  Biso   1.000  N
  N237     1.0000 0.97450  0.40380  0.24080  Biso   1.000  N
  N238     1.0000 0.26287  0.90403  0.57413  Biso   1.000  N
  N239     1.0000 0.09597  0.35883  0.57413  Biso   1.000  N
  N240     1.0000 0.64117  0.73713  0.57413  Biso   1.000  N
  N241     1.0000 0.92953  0.23737  0.90747  Biso   1.000  N
  N242     1.0000 0.76263  0.69217  0.90747  Biso   1.000  N
  N243     1.0000 0.30783  0.07047  0.90747  Biso   1.000  N
  N244     1.0000 0.40380  0.42930  0.75920  Biso   1.000  N
  N245     1.0000 0.57070  0.97450  0.75920  Biso   1.000  N
  N246     1.0000 0.02550  0.59620  0.75920  Biso   1.000  N
  N247     1.0000 0.07047  0.76263  0.09253  Biso   1.000  N
  N248     1.0000 0.23737  0.30783  0.09253  Biso   1.000  N
  N249     1.0000 0.69217  0.92953  0.09253  Biso   1.000  N
  N250     1.0000 0.73713  0.09597  0.42587  Biso   1.000  N
  N251     1.0000 0.90403  0.64117  0.42587  Biso   1.000  N
  N252     1.0000 0.35883  0.26287  0.42587  Biso   1.000  N
  N253     1.0000 0.62630  0.57490  0.22290  Biso   1.000  N
  N254     1.0000 0.42510  0.05140  0.22290  Biso   1.000  N
  N255     1.0000 0.94860  0.37370  0.22290  Biso   1.000  N
  N256     1.0000 0.29297  0.90823  0.55623  Biso   1.000  N
  N257     1.0000 0.09177  0.38473  0.55623  Biso   1.000  N
  N258     1.0000 0.61527  0.70703  0.55623  Biso   1.000  N
  N259     1.0000 0.95963  0.24157  0.88957  Biso   1.000  N
  N260     1.0000 0.75843  0.71807  0.88957  Biso   1.000  N
  N261     1.0000 0.28193  0.04037  0.88957  Biso   1.000  N
  N262     1.0000 0.37370  0.42510  0.77710  Biso   1.000  N
  N263     1.0000 0.57490  0.94860  0.77710  Biso   1.000  N
  N264     1.0000 0.05140  0.62630  0.77710  Biso   1.000  N
  N265     1.0000 0.04037  0.75843  0.11043  Biso   1.000  N
  N266     1.0000 0.24157  0.28193  0.11043  Biso   1.000  N
  N267     1.0000 0.71807  0.95963  0.11043  Biso   1.000  N
  N268     1.0000 0.70703  0.09177  0.44377  Biso   1.000  N
  N269     1.0000 0.90823  0.61527  0.44377  Biso   1.000  N
  N270     1.0000 0.38473  0.29297  0.44377  Biso   1.000  N
  N271     1.0000 0.57690  0.61180  0.22800  Biso   1.000  N
  N272     1.0000 0.38820  0.96510  0.22800  Biso   1.000  N
  N273     1.0000 0.03490  0.42310  0.22800  Biso   1.000  N
  N274     1.0000 0.24357  0.94513  0.56133  Biso   1.000  N
  N275     1.0000 0.05487  0.29843  0.56133  Biso   1.000  N
  N276     1.0000 0.70157  0.75643  0.56133  Biso   1.000  N
  N277     1.0000 0.91023  0.27847  0.89467  Biso   1.000  N
  N278     1.0000 0.72153  0.63177  0.89467  Biso   1.000  N
  N279     1.0000 0.36823  0.08977  0.89467  Biso   1.000  N
  N280     1.0000 0.42310  0.38820  0.77200  Biso   1.000  N
  N281     1.0000 0.61180  0.03490  0.77200  Biso   1.000  N
  N282     1.0000 0.96510  0.57690  0.77200  Biso   1.000  N
  N283     1.0000 0.08977  0.72153  0.10533  Biso   1.000  N
  N284     1.0000 0.27847  0.36823  0.10533  Biso   1.000  N
  N285     1.0000 0.63177  0.91023  0.10533  Biso   1.000  N
  N286     1.0000 0.75643  0.05487  0.43867  Biso   1.000  N
  N287     1.0000 0.94513  0.70157  0.43867  Biso   1.000  N
  N288     1.0000 0.29843  0.24357  0.43867  Biso   1.000  N
  N289     1.0000 0.55200  0.54850  0.11610  Biso   1.000  N
  N290     1.0000 0.45150  0.00350  0.11610  Biso   1.000  N
  N291     1.0000 0.99650  0.44800  0.11610  Biso   1.000  N
  N292     1.0000 0.21867  0.88183  0.44943  Biso   1.000  N
  N293     1.0000 0.11817  0.33683  0.44943  Biso   1.000  N
  N294     1.0000 0.66317  0.78133  0.44943  Biso   1.000  N
  N295     1.0000 0.88533  0.21517  0.78277  Biso   1.000  N
  N296     1.0000 0.78483  0.67017  0.78277  Biso   1.000  N
  N297     1.0000 0.32983  0.11467  0.78277  Biso   1.000  N
  N298     1.0000 0.44800  0.45150  0.88390  Biso   1.000  N
  N299     1.0000 0.54850  0.99650  0.88390  Biso   1.000  N
  N300     1.0000 0.00350  0.55200  0.88390  Biso   1.000  N
  N301     1.0000 0.11467  0.78483  0.21723  Biso   1.000  N
  N302     1.0000 0.21517  0.32983  0.21723  Biso   1.000  N
  N303     1.0000 0.67017  0.88533  0.21723  Biso   1.000  N
  N304     1.0000 0.78133  0.11817  0.55057  Biso   1.000  N
  N305     1.0000 0.88183  0.66317  0.55057  Biso   1.000  N
  N306     1.0000 0.33683  0.21867  0.55057  Biso   1.000  N
  N307     1.0000 0.54500  0.54180  0.11300  Biso   1.000  N
  N308     1.0000 0.45820  0.00320  0.11300  Biso   1.000  N
  N309     1.0000 0.99680  0.45500  0.11300  Biso   1.000  N
  N310     1.0000 0.21167  0.87513  0.44633  Biso   1.000  N
  N311     1.0000 0.12487  0.33653  0.44633  Biso   1.000  N
  N312     1.0000 0.66347  0.78833  0.44633  Biso   1.000  N
  N313     1.0000 0.87833  0.20847  0.77967  Biso   1.000  N
  N314     1.0000 0.79153  0.66987  0.77967  Biso   1.000  N
  N315     1.0000 0.33013  0.12167  0.77967  Biso   1.000  N
  N316     1.0000 0.45500  0.45820  0.88700  Biso   1.000  N
  N317     1.0000 0.54180  0.99680  0.88700  Biso   1.000  N
  N318     1.0000 0.00320  0.54500  0.88700  Biso   1.000  N
  N319     1.0000 0.12167  0.79153  0.22033  Biso   1.000  N
  N320     1.0000 0.20847  0.33013  0.22033  Biso   1.000  N
  N321     1.0000 0.66987  0.87833  0.22033  Biso   1.000  N
  N322     1.0000 0.78833  0.12487  0.55367  Biso   1.000  N
  N323     1.0000 0.87513  0.66347  0.55367  Biso   1.000  N
  N324     1.0000 0.33653  0.21167  0.55367  Biso   1.000  N
  C127     1.0000 0.69730  0.61390  0.59770  Biso   1.000  C
  C128     1.0000 0.38610  0.08340  0.59770  Biso   1.000  C
  C129     1.0000 0.91660  0.30270  0.59770  Biso   1.000  C
  C130     1.0000 0.36397  0.94723  0.93103  Biso   1.000  C
  C131     1.0000 0.05277  0.41673  0.93103  Biso   1.000  C
  C132     1.0000 0.58327  0.63603  0.93103  Biso   1.000  C
  C133     1.0000 0.03063  0.28057  0.26437  Biso   1.000  C
  C134     1.0000 0.71943  0.75007  0.26437  Biso   1.000  C
  C135     1.0000 0.24993  0.96937  0.26437  Biso   1.000  C
  C136     1.0000 0.30270  0.38610  0.40230  Biso   1.000  C
  C137     1.0000 0.61390  0.91660  0.40230  Biso   1.000  C
  C138     1.0000 0.08340  0.69730  0.40230  Biso   1.000  C
  C139     1.0000 0.96937  0.71943  0.73563  Biso   1.000  C
  C140     1.0000 0.28057  0.24993  0.73563  Biso   1.000  C
  C141     1.0000 0.75007  0.03063  0.73563  Biso   1.000  C
  C142     1.0000 0.63603  0.05277  0.06897  Biso   1.000  C
  C143     1.0000 0.94723  0.58327  0.06897  Biso   1.000  C
  C144     1.0000 0.41673  0.36397  0.06897  Biso   1.000  C
  H181     1.0000 0.67840  0.59040  0.65020  Biso   1.000  H
  H182     1.0000 0.40960  0.08800  0.65020  Biso   1.000  H
  H183     1.0000 0.91200  0.32160  0.65020  Biso   1.000  H
  H184     1.0000 0.34507  0.92373  0.98353  Biso   1.000  H
  H185     1.0000 0.07627  0.42133  0.98353  Biso   1.000  H
  H186     1.0000 0.57867  0.65493  0.98353  Biso   1.000  H
  H187     1.0000 0.01173  0.25707  0.31687  Biso   1.000  H
  H188     1.0000 0.74293  0.75467  0.31687  Biso   1.000  H
  H189     1.0000 0.24533  0.98827  0.31687  Biso   1.000  H
  H190     1.0000 0.32160  0.40960  0.34980  Biso   1.000  H
  H191     1.0000 0.59040  0.91200  0.34980  Biso   1.000  H
  H192     1.0000 0.08800  0.67840  0.34980  Biso   1.000  H
  H193     1.0000 0.98827  0.74293  0.68313  Biso   1.000  H
  H194     1.0000 0.25707  0.24533  0.68313  Biso   1.000  H
  H195     1.0000 0.75467  0.01173  0.68313  Biso   1.000  H
  H196     1.0000 0.65493  0.07627  0.01647  Biso   1.000  H
  H197     1.0000 0.92373  0.57867  0.01647  Biso   1.000  H
  H198     1.0000 0.42133  0.34507  0.01647  Biso   1.000  H
  C145     1.0000 0.73660  0.58920  0.54180  Biso   1.000  C
  C146     1.0000 0.41080  0.14740  0.54180  Biso   1.000  C
  C147     1.0000 0.85260  0.26340  0.54180  Biso   1.000  C
  C148     1.0000 0.40327  0.92253  0.87513  Biso   1.000  C
  C149     1.0000 0.07747  0.48073  0.87513  Biso   1.000  C
  C150     1.0000 0.51927  0.59673  0.87513  Biso   1.000  C
  C151     1.0000 0.06993  0.25587  0.20847  Biso   1.000  C
  C152     1.0000 0.74413  0.81407  0.20847  Biso   1.000  C
  C153     1.0000 0.18593  0.93007  0.20847  Biso   1.000  C
  C154     1.0000 0.26340  0.41080  0.45820  Biso   1.000  C
  C155     1.0000 0.58920  0.85260  0.45820  Biso   1.000  C
  C156     1.0000 0.14740  0.73660  0.45820  Biso   1.000  C
  C157     1.0000 0.93007  0.74413  0.79153  Biso   1.000  C
  C158     1.0000 0.25587  0.18593  0.79153  Biso   1.000  C
  C159     1.0000 0.81407  0.06993  0.79153  Biso   1.000  C
  C160     1.0000 0.59673  0.07747  0.12487  Biso   1.000  C
  C161     1.0000 0.92253  0.51927  0.12487  Biso   1.000  C
  C162     1.0000 0.48073  0.40327  0.12487  Biso   1.000  C
  H199     1.0000 0.75100  0.56180  0.54080  Biso   1.000  H
  H200     1.0000 0.43820  0.18920  0.54080  Biso   1.000  H
  H201     1.0000 0.81080  0.24900  0.54080  Biso   1.000  H
  H202     1.0000 0.41767  0.89513  0.87413  Biso   1.000  H
  H203     1.0000 0.10487  0.52253  0.87413  Biso   1.000  H
  H204     1.0000 0.47747  0.58233  0.87413  Biso   1.000  H
  H205     1.0000 0.08433  0.22847  0.20747  Biso   1.000  H
  H206     1.0000 0.77153  0.85587  0.20747  Biso   1.000  H
  H207     1.0000 0.14413  0.91567  0.20747  Biso   1.000  H
  H208     1.0000 0.24900  0.43820  0.45920  Biso   1.000  H
  H209     1.0000 0.56180  0.81080  0.45920  Biso   1.000  H
  H210     1.0000 0.18920  0.75100  0.45920  Biso   1.000  H
  H211     1.0000 0.91567  0.77153  0.79253  Biso   1.000  H
  H212     1.0000 0.22847  0.14413  0.79253  Biso   1.000  H
  H213     1.0000 0.85587  0.08433  0.79253  Biso   1.000  H
  H214     1.0000 0.58233  0.10487  0.12587  Biso   1.000  H
  H215     1.0000 0.89513  0.47747  0.12587  Biso   1.000  H
  H216     1.0000 0.52253  0.41767  0.12587  Biso   1.000  H
  C163     1.0000 0.75940  0.68560  0.51870  Biso   1.000  C
  C164     1.0000 0.31440  0.07380  0.51870  Biso   1.000  C
  C165     1.0000 0.92620  0.24060  0.51870  Biso   1.000  C
  C166     1.0000 0.42607  0.01893  0.85203  Biso   1.000  C
  C167     1.0000 0.98107  0.40713  0.85203  Biso   1.000  C
  C168     1.0000 0.59287  0.57393  0.85203  Biso   1.000  C
  C169     1.0000 0.09273  0.35227  0.18537  Biso   1.000  C
  C170     1.0000 0.64773  0.74047  0.18537  Biso   1.000  C
  C171     1.0000 0.25953  0.90727  0.18537  Biso   1.000  C
  C172     1.0000 0.24060  0.31440  0.48130  Biso   1.000  C
  C173     1.0000 0.68560  0.92620  0.48130  Biso   1.000  C
  C174     1.0000 0.07380  0.75940  0.48130  Biso   1.000  C
  C175     1.0000 0.90727  0.64773  0.81463  Biso   1.000  C
  C176     1.0000 0.35227  0.25953  0.81463  Biso   1.000  C
  C177     1.0000 0.74047  0.09273  0.81463  Biso   1.000  C
  C178     1.0000 0.57393  0.98107  0.14797  Biso   1.000  C
  C179     1.0000 0.01893  0.59287  0.14797  Biso   1.000  C
  C180     1.0000 0.40713  0.42607  0.14797  Biso   1.000  C
  H217     1.0000 0.79450  0.72150  0.50250  Biso   1.000  H
  H218     1.0000 0.27850  0.07300  0.50250  Biso   1.000  H
  H219     1.0000 0.92700  0.20550  0.50250  Biso   1.000  H
  H220     1.0000 0.46117  0.05483  0.83583  Biso   1.000  H
  H221     1.0000 0.94517  0.40633  0.83583  Biso   1.000  H
  H222     1.0000 0.59367  0.53883  0.83583  Biso   1.000  H
  H223     1.0000 0.12783  0.38817  0.16917  Biso   1.000  H
  H224     1.0000 0.61183  0.73967  0.16917  Biso   1.000  H
  H225     1.0000 0.26033  0.87217  0.16917  Biso   1.000  H
  H226     1.0000 0.20550  0.27850  0.49750  Biso   1.000  H
  H227     1.0000 0.72150  0.92700  0.49750  Biso   1.000  H
  H228     1.0000 0.07300  0.79450  0.49750  Biso   1.000  H
  H229     1.0000 0.87217  0.61183  0.83083  Biso   1.000  H
  H230     1.0000 0.38817  0.26033  0.83083  Biso   1.000  H
  H231     1.0000 0.73967  0.12783  0.83083  Biso   1.000  H
  H232     1.0000 0.53883  0.94517  0.16417  Biso   1.000  H
  H233     1.0000 0.05483  0.59367  0.16417  Biso   1.000  H
  H234     1.0000 0.40633  0.46117  0.16417  Biso   1.000  H
  C181     1.0000 0.71690  0.65300  0.60130  Biso   1.000  C
  C182     1.0000 0.34700  0.06390  0.60130  Biso   1.000  C
  C183     1.0000 0.93610  0.28310  0.60130  Biso   1.000  C
  C184     1.0000 0.38357  0.98633  0.93463  Biso   1.000  C
  C185     1.0000 0.01367  0.39723  0.93463  Biso   1.000  C
  C186     1.0000 0.60277  0.61643  0.93463  Biso   1.000  C
  C187     1.0000 0.05023  0.31967  0.26797  Biso   1.000  C
  C188     1.0000 0.68033  0.73057  0.26797  Biso   1.000  C
  C189     1.0000 0.26943  0.94977  0.26797  Biso   1.000  C
  C190     1.0000 0.28310  0.34700  0.39870  Biso   1.000  C
  C191     1.0000 0.65300  0.93610  0.39870  Biso   1.000  C
  C192     1.0000 0.06390  0.71690  0.39870  Biso   1.000  C
  C193     1.0000 0.94977  0.68033  0.73203  Biso   1.000  C
  C194     1.0000 0.31967  0.26943  0.73203  Biso   1.000  C
  C195     1.0000 0.73057  0.05023  0.73203  Biso   1.000  C
  C196     1.0000 0.61643  0.01367  0.06537  Biso   1.000  C
  C197     1.0000 0.98633  0.60277  0.06537  Biso   1.000  C
  C198     1.0000 0.39723  0.38357  0.06537  Biso   1.000  C
  H235     1.0000 0.71470  0.67180  0.65560  Biso   1.000  H
  H236     1.0000 0.32820  0.04290  0.65560  Biso   1.000  H
  H237     1.0000 0.95710  0.28530  0.65560  Biso   1.000  H
  H238     1.0000 0.38137  0.00513  0.98893  Biso   1.000  H
  H239     1.0000 0.99487  0.37623  0.98893  Biso   1.000  H
  H240     1.0000 0.62377  0.61863  0.98893  Biso   1.000  H
  H241     1.0000 0.04803  0.33847  0.32227  Biso   1.000  H
  H242     1.0000 0.66153  0.70957  0.32227  Biso   1.000  H
  H243     1.0000 0.29043  0.95197  0.32227  Biso   1.000  H
  H244     1.0000 0.28530  0.32820  0.34440  Biso   1.000  H
  H245     1.0000 0.67180  0.95710  0.34440  Biso   1.000  H
  H246     1.0000 0.04290  0.71470  0.34440  Biso   1.000  H
  H247     1.0000 0.95197  0.66153  0.67773  Biso   1.000  H
  H248     1.0000 0.33847  0.29043  0.67773  Biso   1.000  H
  H249     1.0000 0.70957  0.04803  0.67773  Biso   1.000  H
  H250     1.0000 0.61863  0.99487  0.01107  Biso   1.000  H
  H251     1.0000 0.00513  0.62377  0.01107  Biso   1.000  H
  H252     1.0000 0.37623  0.38137  0.01107  Biso   1.000  H
  C199     1.0000 0.60250  0.59240  0.49830  Biso   1.000  C
  C200     1.0000 0.40760  0.01010  0.49830  Biso   1.000  C
  C201     1.0000 0.98990  0.39750  0.49830  Biso   1.000  C
  C202     1.0000 0.26917  0.92573  0.83163  Biso   1.000  C
  C203     1.0000 0.07427  0.34343  0.83163  Biso   1.000  C
  C204     1.0000 0.65657  0.73083  0.83163  Biso   1.000  C
  C205     1.0000 0.93583  0.25907  0.16497  Biso   1.000  C
  C206     1.0000 0.74093  0.67677  0.16497  Biso   1.000  C
  C207     1.0000 0.32323  0.06417  0.16497  Biso   1.000  C
  C208     1.0000 0.39750  0.40760  0.50170  Biso   1.000  C
  C209     1.0000 0.59240  0.98990  0.50170  Biso   1.000  C
  C210     1.0000 0.01010  0.60250  0.50170  Biso   1.000  C
  C211     1.0000 0.06417  0.74093  0.83503  Biso   1.000  C
  C212     1.0000 0.25907  0.32323  0.83503  Biso   1.000  C
  C213     1.0000 0.67677  0.93583  0.83503  Biso   1.000  C
  C214     1.0000 0.73083  0.07427  0.16837  Biso   1.000  C
  C215     1.0000 0.92573  0.65657  0.16837  Biso   1.000  C
  C216     1.0000 0.34343  0.26917  0.16837  Biso   1.000  C
  H253     1.0000 0.59430  0.62560  0.48940  Biso   1.000  H
  H254     1.0000 0.37440  0.96870  0.48940  Biso   1.000  H
  H255     1.0000 0.03130  0.40570  0.48940  Biso   1.000  H
  H256     1.0000 0.26097  0.95893  0.82273  Biso   1.000  H
  H257     1.0000 0.04107  0.30203  0.82273  Biso   1.000  H
  H258     1.0000 0.69797  0.73903  0.82273  Biso   1.000  H
  H259     1.0000 0.92763  0.29227  0.15607  Biso   1.000  H
  H260     1.0000 0.70773  0.63537  0.15607  Biso   1.000  H
  H261     1.0000 0.36463  0.07237  0.15607  Biso   1.000  H
  H262     1.0000 0.40570  0.37440  0.51060  Biso   1.000  H
  H263     1.0000 0.62560  0.03130  0.51060  Biso   1.000  H
  H264     1.0000 0.96870  0.59430  0.51060  Biso   1.000  H
  H265     1.0000 0.07237  0.70773  0.84393  Biso   1.000  H
  H266     1.0000 0.29227  0.36463  0.84393  Biso   1.000  H
  H267     1.0000 0.63537  0.92763  0.84393  Biso   1.000  H
  H268     1.0000 0.73903  0.04107  0.17727  Biso   1.000  H
  H269     1.0000 0.95893  0.69797  0.17727  Biso   1.000  H
  H270     1.0000 0.30203  0.26097  0.17727  Biso   1.000  H
  H271     1.0000 0.57490  0.56490  0.54530  Biso   1.000  H
  H272     1.0000 0.43510  0.01000  0.54530  Biso   1.000  H
  H273     1.0000 0.99000  0.42510  0.54530  Biso   1.000  H
  H274     1.0000 0.24157  0.89823  0.87863  Biso   1.000  H
  H275     1.0000 0.10177  0.34333  0.87863  Biso   1.000  H
  H276     1.0000 0.65667  0.75843  0.87863  Biso   1.000  H
  H277     1.0000 0.90823  0.23157  0.21197  Biso   1.000  H
  H278     1.0000 0.76843  0.67667  0.21197  Biso   1.000  H
  H279     1.0000 0.32333  0.09177  0.21197  Biso   1.000  H
  H280     1.0000 0.42510  0.43510  0.45470  Biso   1.000  H
  H281     1.0000 0.56490  0.99000  0.45470  Biso   1.000  H
  H282     1.0000 0.01000  0.57490  0.45470  Biso   1.000  H
  H283     1.0000 0.09177  0.76843  0.78803  Biso   1.000  H
  H284     1.0000 0.23157  0.32333  0.78803  Biso   1.000  H
  H285     1.0000 0.67667  0.90823  0.78803  Biso   1.000  H
  H286     1.0000 0.75843  0.10177  0.12137  Biso   1.000  H
  H287     1.0000 0.89823  0.65667  0.12137  Biso   1.000  H
  H288     1.0000 0.34333  0.24157  0.12137  Biso   1.000  H
  C217     1.0000 0.64830  0.52800  0.45120  Biso   1.000  C
  C218     1.0000 0.47200  0.12030  0.45120  Biso   1.000  C
  C219     1.0000 0.87970  0.35170  0.45120  Biso   1.000  C
  C220     1.0000 0.31497  0.86133  0.78453  Biso   1.000  C
  C221     1.0000 0.13867  0.45363  0.78453  Biso   1.000  C
  C222     1.0000 0.54637  0.68503  0.78453  Biso   1.000  C
  C223     1.0000 0.98163  0.19467  0.11787  Biso   1.000  C
  C224     1.0000 0.80533  0.78697  0.11787  Biso   1.000  C
  C225     1.0000 0.21303  0.01837  0.11787  Biso   1.000  C
  C226     1.0000 0.35170  0.47200  0.54880  Biso   1.000  C
  C227     1.0000 0.52800  0.87970  0.54880  Biso   1.000  C
  C228     1.0000 0.12030  0.64830  0.54880  Biso   1.000  C
  C229     1.0000 0.01837  0.80533  0.88213  Biso   1.000  C
  C230     1.0000 0.19467  0.21303  0.88213  Biso   1.000  C
  C231     1.0000 0.78697  0.98163  0.88213  Biso   1.000  C
  C232     1.0000 0.68503  0.13867  0.21547  Biso   1.000  C
  C233     1.0000 0.86133  0.54637  0.21547  Biso   1.000  C
  C234     1.0000 0.45363  0.31497  0.21547  Biso   1.000  C
  H289     1.0000 0.67360  0.53030  0.39880  Biso   1.000  H
  H290     1.0000 0.46970  0.14330  0.39880  Biso   1.000  H
  H291     1.0000 0.85670  0.32640  0.39880  Biso   1.000  H
  H292     1.0000 0.34027  0.86363  0.73213  Biso   1.000  H
  H293     1.0000 0.13637  0.47663  0.73213  Biso   1.000  H
  H294     1.0000 0.52337  0.65973  0.73213  Biso   1.000  H
  H295     1.0000 0.00693  0.19697  0.06547  Biso   1.000  H
  H296     1.0000 0.80303  0.80997  0.06547  Biso   1.000  H
  H297     1.0000 0.19003  0.99307  0.06547  Biso   1.000  H
  H298     1.0000 0.32640  0.46970  0.60120  Biso   1.000  H
  H299     1.0000 0.53030  0.85670  0.60120  Biso   1.000  H
  H300     1.0000 0.14330  0.67360  0.60120  Biso   1.000  H
  H301     1.0000 0.99307  0.80303  0.93453  Biso   1.000  H
  H302     1.0000 0.19697  0.19003  0.93453  Biso   1.000  H
  H303     1.0000 0.80997  0.00693  0.93453  Biso   1.000  H
  H304     1.0000 0.65973  0.13637  0.26787  Biso   1.000  H
  H305     1.0000 0.86363  0.52337  0.26787  Biso   1.000  H
  H306     1.0000 0.47663  0.34027  0.26787  Biso   1.000  H
  H307     1.0000 0.63730  0.49070  0.48500  Biso   1.000  H
  H308     1.0000 0.50930  0.14660  0.48500  Biso   1.000  H
  H309     1.0000 0.85340  0.36270  0.48500  Biso   1.000  H
  H310     1.0000 0.30397  0.82403  0.81833  Biso   1.000  H
  H311     1.0000 0.17597  0.47993  0.81833  Biso   1.000  H
  H312     1.0000 0.52007  0.69603  0.81833  Biso   1.000  H
  H313     1.0000 0.97063  0.15737  0.15167  Biso   1.000  H
  H314     1.0000 0.84263  0.81327  0.15167  Biso   1.000  H
  H315     1.0000 0.18673  0.02937  0.15167  Biso   1.000  H
  H316     1.0000 0.36270  0.50930  0.51500  Biso   1.000  H
  H317     1.0000 0.49070  0.85340  0.51500  Biso   1.000  H
  H318     1.0000 0.14660  0.63730  0.51500  Biso   1.000  H
  H319     1.0000 0.02937  0.84263  0.84833  Biso   1.000  H
  H320     1.0000 0.15737  0.18673  0.84833  Biso   1.000  H
  H321     1.0000 0.81327  0.97063  0.84833  Biso   1.000  H
  H322     1.0000 0.69603  0.17597  0.18167  Biso   1.000  H
  H323     1.0000 0.82403  0.52007  0.18167  Biso   1.000  H
  H324     1.0000 0.47993  0.30397  0.18167  Biso   1.000  H
  C235     1.0000 0.59550  0.55880  0.40740  Biso   1.000  C
  C236     1.0000 0.44120  0.03670  0.40740  Biso   1.000  C
  C237     1.0000 0.96330  0.40450  0.40740  Biso   1.000  C
  C238     1.0000 0.26217  0.89213  0.74073  Biso   1.000  C
  C239     1.0000 0.10787  0.37003  0.74073  Biso   1.000  C
  C240     1.0000 0.62997  0.73783  0.74073  Biso   1.000  C
  C241     1.0000 0.92883  0.22547  0.07407  Biso   1.000  C
  C242     1.0000 0.77453  0.70337  0.07407  Biso   1.000  C
  C243     1.0000 0.29663  0.07117  0.07407  Biso   1.000  C
  C244     1.0000 0.40450  0.44120  0.59260  Biso   1.000  C
  C245     1.0000 0.55880  0.96330  0.59260  Biso   1.000  C
  C246     1.0000 0.03670  0.59550  0.59260  Biso   1.000  C
  C247     1.0000 0.07117  0.77453  0.92593  Biso   1.000  C
  C248     1.0000 0.22547  0.29663  0.92593  Biso   1.000  C
  C249     1.0000 0.70337  0.92883  0.92593  Biso   1.000  C
  C250     1.0000 0.73783  0.10787  0.25927  Biso   1.000  C
  C251     1.0000 0.89213  0.62997  0.25927  Biso   1.000  C
  C252     1.0000 0.37003  0.26217  0.25927  Biso   1.000  C
  H325     1.0000 0.55920  0.51880  0.40500  Biso   1.000  H
  H326     1.0000 0.48120  0.04040  0.40500  Biso   1.000  H
  H327     1.0000 0.95960  0.44080  0.40500  Biso   1.000  H
  H328     1.0000 0.22587  0.85213  0.73833  Biso   1.000  H
  H329     1.0000 0.14787  0.37373  0.73833  Biso   1.000  H
  H330     1.0000 0.62627  0.77413  0.73833  Biso   1.000  H
  H331     1.0000 0.89253  0.18547  0.07167  Biso   1.000  H
  H332     1.0000 0.81453  0.70707  0.07167  Biso   1.000  H
  H333     1.0000 0.29293  0.10747  0.07167  Biso   1.000  H
  H334     1.0000 0.44080  0.48120  0.59500  Biso   1.000  H
  H335     1.0000 0.51880  0.95960  0.59500  Biso   1.000  H
  H336     1.0000 0.04040  0.55920  0.59500  Biso   1.000  H
  H337     1.0000 0.10747  0.81453  0.92833  Biso   1.000  H
  H338     1.0000 0.18547  0.29293  0.92833  Biso   1.000  H
  H339     1.0000 0.70707  0.89253  0.92833  Biso   1.000  H
  H340     1.0000 0.77413  0.14787  0.26167  Biso   1.000  H
  H341     1.0000 0.85213  0.62627  0.26167  Biso   1.000  H
  H342     1.0000 0.37373  0.22587  0.26167  Biso   1.000  H
  H343     1.0000 0.63140  0.55640  0.39060  Biso   1.000  H
  H344     1.0000 0.44360  0.07500  0.39060  Biso   1.000  H
  H345     1.0000 0.92500  0.36860  0.39060  Biso   1.000  H
  H346     1.0000 0.29807  0.88973  0.72393  Biso   1.000  H
  H347     1.0000 0.11027  0.40833  0.72393  Biso   1.000  H
  H348     1.0000 0.59167  0.70193  0.72393  Biso   1.000  H
  H349     1.0000 0.96473  0.22307  0.05727  Biso   1.000  H
  H350     1.0000 0.77693  0.74167  0.05727  Biso   1.000  H
  H351     1.0000 0.25833  0.03527  0.05727  Biso   1.000  H
  H352     1.0000 0.36860  0.44360  0.60940  Biso   1.000  H
  H353     1.0000 0.55640  0.92500  0.60940  Biso   1.000  H
  H354     1.0000 0.07500  0.63140  0.60940  Biso   1.000  H
  H355     1.0000 0.03527  0.77693  0.94273  Biso   1.000  H
  H356     1.0000 0.22307  0.25833  0.94273  Biso   1.000  H
  H357     1.0000 0.74167  0.96473  0.94273  Biso   1.000  H
  H358     1.0000 0.70193  0.11027  0.27607  Biso   1.000  H
  H359     1.0000 0.88973  0.59167  0.27607  Biso   1.000  H
  H360     1.0000 0.40833  0.29807  0.27607  Biso   1.000  H
  C253     1.0000 0.59290  0.52580  0.41700  Biso   1.000  C
  C254     1.0000 0.47420  0.06710  0.41700  Biso   1.000  C
  C255     1.0000 0.93290  0.40710  0.41700  Biso   1.000  C
  C256     1.0000 0.25957  0.85913  0.75033  Biso   1.000  C
  C257     1.0000 0.14087  0.40043  0.75033  Biso   1.000  C
  C258     1.0000 0.59957  0.74043  0.75033  Biso   1.000  C
  C259     1.0000 0.92623  0.19247  0.08367  Biso   1.000  C
  C260     1.0000 0.80753  0.73377  0.08367  Biso   1.000  C
  C261     1.0000 0.26623  0.07377  0.08367  Biso   1.000  C
  C262     1.0000 0.40710  0.47420  0.58300  Biso   1.000  C
  C263     1.0000 0.52580  0.93290  0.58300  Biso   1.000  C
  C264     1.0000 0.06710  0.59290  0.58300  Biso   1.000  C
  C265     1.0000 0.07377  0.80753  0.91633  Biso   1.000  C
  C266     1.0000 0.19247  0.26623  0.91633  Biso   1.000  C
  C267     1.0000 0.73377  0.92623  0.91633  Biso   1.000  C
  C268     1.0000 0.74043  0.14087  0.24967  Biso   1.000  C
  C269     1.0000 0.85913  0.59957  0.24967  Biso   1.000  C
  C270     1.0000 0.40043  0.25957  0.24967  Biso   1.000  C
  H361     1.0000 0.57820  0.54650  0.45670  Biso   1.000  H
  H362     1.0000 0.45350  0.03170  0.45670  Biso   1.000  H
  H363     1.0000 0.96830  0.42180  0.45670  Biso   1.000  H
  H364     1.0000 0.24487  0.87983  0.79003  Biso   1.000  H
  H365     1.0000 0.12017  0.36503  0.79003  Biso   1.000  H
  H366     1.0000 0.63497  0.75513  0.79003  Biso   1.000  H
  H367     1.0000 0.91153  0.21317  0.12337  Biso   1.000  H
  H368     1.0000 0.78683  0.69837  0.12337  Biso   1.000  H
  H369     1.0000 0.30163  0.08847  0.12337  Biso   1.000  H
  H370     1.0000 0.42180  0.45350  0.54330  Biso   1.000  H
  H371     1.0000 0.54650  0.96830  0.54330  Biso   1.000  H
  H372     1.0000 0.03170  0.57820  0.54330  Biso   1.000  H
  H373     1.0000 0.08847  0.78683  0.87663  Biso   1.000  H
  H374     1.0000 0.21317  0.30163  0.87663  Biso   1.000  H
  H375     1.0000 0.69837  0.91153  0.87663  Biso   1.000  H
  H376     1.0000 0.75513  0.12017  0.20997  Biso   1.000  H
  H377     1.0000 0.87983  0.63497  0.20997  Biso   1.000  H
  H378     1.0000 0.36503  0.24487  0.20997  Biso   1.000  H
  H379     1.0000 0.56040  0.48480  0.40220  Biso   1.000  H
  H380     1.0000 0.51520  0.07560  0.40220  Biso   1.000  H
  H381     1.0000 0.92440  0.43960  0.40220  Biso   1.000  H
  H382     1.0000 0.22707  0.81813  0.73553  Biso   1.000  H
  H383     1.0000 0.18187  0.40893  0.73553  Biso   1.000  H
  H384     1.0000 0.59107  0.77293  0.73553  Biso   1.000  H
  H385     1.0000 0.89373  0.15147  0.06887  Biso   1.000  H
  H386     1.0000 0.84853  0.74227  0.06887  Biso   1.000  H
  H387     1.0000 0.25773  0.10627  0.06887  Biso   1.000  H
  H388     1.0000 0.43960  0.51520  0.59780  Biso   1.000  H
  H389     1.0000 0.48480  0.92440  0.59780  Biso   1.000  H
  H390     1.0000 0.07560  0.56040  0.59780  Biso   1.000  H
  H391     1.0000 0.10627  0.84853  0.93113  Biso   1.000  H
  H392     1.0000 0.15147  0.25773  0.93113  Biso   1.000  H
  H393     1.0000 0.74227  0.89373  0.93113  Biso   1.000  H
  H394     1.0000 0.77293  0.18187  0.26447  Biso   1.000  H
  H395     1.0000 0.81813  0.59107  0.26447  Biso   1.000  H
  H396     1.0000 0.40893  0.22707  0.26447  Biso   1.000  H
  C271     1.0000 0.58920  0.60940  0.35150  Biso   1.000  C
  C272     1.0000 0.39060  0.97980  0.35150  Biso   1.000  C
  C273     1.0000 0.02020  0.41080  0.35150  Biso   1.000  C
  C274     1.0000 0.25587  0.94273  0.68483  Biso   1.000  C
  C275     1.0000 0.05727  0.31313  0.68483  Biso   1.000  C
  C276     1.0000 0.68687  0.74413  0.68483  Biso   1.000  C
  C277     1.0000 0.92253  0.27607  0.01817  Biso   1.000  C
  C278     1.0000 0.72393  0.64647  0.01817  Biso   1.000  C
  C279     1.0000 0.35353  0.07747  0.01817  Biso   1.000  C
  C280     1.0000 0.41080  0.39060  0.64850  Biso   1.000  C
  C281     1.0000 0.60940  0.02020  0.64850  Biso   1.000  C
  C282     1.0000 0.97980  0.58920  0.64850  Biso   1.000  C
  C283     1.0000 0.07747  0.72393  0.98183  Biso   1.000  C
  C284     1.0000 0.27607  0.35353  0.98183  Biso   1.000  C
  C285     1.0000 0.64647  0.92253  0.98183  Biso   1.000  C
  C286     1.0000 0.74413  0.05727  0.31517  Biso   1.000  C
  C287     1.0000 0.94273  0.68687  0.31517  Biso   1.000  C
  C288     1.0000 0.31313  0.25587  0.31517  Biso   1.000  C
  H397     1.0000 0.55400  0.61210  0.37130  Biso   1.000  H
  H398     1.0000 0.38790  0.94190  0.37130  Biso   1.000  H
  H399     1.0000 0.05810  0.44600  0.37130  Biso   1.000  H
  H400     1.0000 0.22067  0.94543  0.70463  Biso   1.000  H
  H401     1.0000 0.05457  0.27523  0.70463  Biso   1.000  H
  H402     1.0000 0.72477  0.77933  0.70463  Biso   1.000  H
  H403     1.0000 0.88733  0.27877  0.03797  Biso   1.000  H
  H404     1.0000 0.72123  0.60857  0.03797  Biso   1.000  H
  H405     1.0000 0.39143  0.11267  0.03797  Biso   1.000  H
  H406     1.0000 0.44600  0.38790  0.62870  Biso   1.000  H
  H407     1.0000 0.61210  0.05810  0.62870  Biso   1.000  H
  H408     1.0000 0.94190  0.55400  0.62870  Biso   1.000  H
  H409     1.0000 0.11267  0.72123  0.96203  Biso   1.000  H
  H410     1.0000 0.27877  0.39143  0.96203  Biso   1.000  H
  H411     1.0000 0.60857  0.88733  0.96203  Biso   1.000  H
  H412     1.0000 0.77933  0.05457  0.29537  Biso   1.000  H
  H413     1.0000 0.94543  0.72477  0.29537  Biso   1.000  H
  H414     1.0000 0.27523  0.22067  0.29537  Biso   1.000  H
  H415     1.0000 0.62570  0.64920  0.35630  Biso   1.000  H
  H416     1.0000 0.35080  0.97650  0.35630  Biso   1.000  H
  H417     1.0000 0.02350  0.37430  0.35630  Biso   1.000  H
  H418     1.0000 0.29237  0.98253  0.68963  Biso   1.000  H
  H419     1.0000 0.01747  0.30983  0.68963  Biso   1.000  H
  H420     1.0000 0.69017  0.70763  0.68963  Biso   1.000  H
  H421     1.0000 0.95903  0.31587  0.02297  Biso   1.000  H
  H422     1.0000 0.68413  0.64317  0.02297  Biso   1.000  H
  H423     1.0000 0.35683  0.04097  0.02297  Biso   1.000  H
  H424     1.0000 0.37430  0.35080  0.64370  Biso   1.000  H
  H425     1.0000 0.64920  0.02350  0.64370  Biso   1.000  H
  H426     1.0000 0.97650  0.62570  0.64370  Biso   1.000  H
  H427     1.0000 0.04097  0.68413  0.97703  Biso   1.000  H
  H428     1.0000 0.31587  0.35683  0.97703  Biso   1.000  H
  H429     1.0000 0.64317  0.95903  0.97703  Biso   1.000  H
  H430     1.0000 0.70763  0.01747  0.31037  Biso   1.000  H
  H431     1.0000 0.98253  0.69017  0.31037  Biso   1.000  H
  H432     1.0000 0.30983  0.29237  0.31037  Biso   1.000  H
  C289     1.0000 0.62820  0.56460  0.32630  Biso   1.000  C
  C290     1.0000 0.43540  0.06360  0.32630  Biso   1.000  C
  C291     1.0000 0.93640  0.37180  0.32630  Biso   1.000  C
  C292     1.0000 0.29487  0.89793  0.65963  Biso   1.000  C
  C293     1.0000 0.10207  0.39693  0.65963  Biso   1.000  C
  C294     1.0000 0.60307  0.70513  0.65963  Biso   1.000  C
  C295     1.0000 0.96153  0.23127  0.99297  Biso   1.000  C
  C296     1.0000 0.76873  0.73027  0.99297  Biso   1.000  C
  C297     1.0000 0.26973  0.03847  0.99297  Biso   1.000  C
  C298     1.0000 0.37180  0.43540  0.67370  Biso   1.000  C
  C299     1.0000 0.56460  0.93640  0.67370  Biso   1.000  C
  C300     1.0000 0.06360  0.62820  0.67370  Biso   1.000  C
  C301     1.0000 0.03847  0.76873  0.00703  Biso   1.000  C
  C302     1.0000 0.23127  0.26973  0.00703  Biso   1.000  C
  C303     1.0000 0.73027  0.96153  0.00703  Biso   1.000  C
  C304     1.0000 0.70513  0.10207  0.34037  Biso   1.000  C
  C305     1.0000 0.89793  0.60307  0.34037  Biso   1.000  C
  C306     1.0000 0.39693  0.29487  0.34037  Biso   1.000  C
  H433     1.0000 0.65590  0.60570  0.34780  Biso   1.000  H
  H434     1.0000 0.39430  0.05020  0.34780  Biso   1.000  H
  H435     1.0000 0.94980  0.34410  0.34780  Biso   1.000  H
  H436     1.0000 0.32257  0.93903  0.68113  Biso   1.000  H
  H437     1.0000 0.06097  0.38353  0.68113  Biso   1.000  H
  H438     1.0000 0.61647  0.67743  0.68113  Biso   1.000  H
  H439     1.0000 0.98923  0.27237  0.01447  Biso   1.000  H
  H440     1.0000 0.72763  0.71687  0.01447  Biso   1.000  H
  H441     1.0000 0.28313  0.01077  0.01447  Biso   1.000  H
  H442     1.0000 0.34410  0.39430  0.65220  Biso   1.000  H
  H443     1.0000 0.60570  0.94980  0.65220  Biso   1.000  H
  H444     1.0000 0.05020  0.65590  0.65220  Biso   1.000  H
  H445     1.0000 0.01077  0.72763  0.98553  Biso   1.000  H
  H446     1.0000 0.27237  0.28313  0.98553  Biso   1.000  H
  H447     1.0000 0.71687  0.98923  0.98553  Biso   1.000  H
  H448     1.0000 0.67743  0.06097  0.31887  Biso   1.000  H
  H449     1.0000 0.93903  0.61647  0.31887  Biso   1.000  H
  H450     1.0000 0.38353  0.32257  0.31887  Biso   1.000  H
  H451     1.0000 0.65350  0.54820  0.30470  Biso   1.000  H
  H452     1.0000 0.45180  0.10530  0.30470  Biso   1.000  H
  H453     1.0000 0.89470  0.34650  0.30470  Biso   1.000  H
  H454     1.0000 0.32017  0.88153  0.63803  Biso   1.000  H
  H455     1.0000 0.11847  0.43863  0.63803  Biso   1.000  H
  H456     1.0000 0.56137  0.67983  0.63803  Biso   1.000  H
  H457     1.0000 0.98683  0.21487  0.97137  Biso   1.000  H
  H458     1.0000 0.78513  0.77197  0.97137  Biso   1.000  H
  H459     1.0000 0.22803  0.01317  0.97137  Biso   1.000  H
  H460     1.0000 0.34650  0.45180  0.69530  Biso   1.000  H
  H461     1.0000 0.54820  0.89470  0.69530  Biso   1.000  H
  H462     1.0000 0.10530  0.65350  0.69530  Biso   1.000  H
  H463     1.0000 0.01317  0.78513  0.02863  Biso   1.000  H
  H464     1.0000 0.21487  0.22803  0.02863  Biso   1.000  H
  H465     1.0000 0.77197  0.98683  0.02863  Biso   1.000  H
  H466     1.0000 0.67983  0.11847  0.36197  Biso   1.000  H
  H467     1.0000 0.88153  0.56137  0.36197  Biso   1.000  H
  H468     1.0000 0.43863  0.32017  0.36197  Biso   1.000  H
  C307     1.0000 0.54100  0.57110  0.19100  Biso   1.000  C
  C308     1.0000 0.42890  0.96990  0.19100  Biso   1.000  C
  C309     1.0000 0.03010  0.45900  0.19100  Biso   1.000  C
  C310     1.0000 0.20767  0.90443  0.52433  Biso   1.000  C
  C311     1.0000 0.09557  0.30323  0.52433  Biso   1.000  C
  C312     1.0000 0.69677  0.79233  0.52433  Biso   1.000  C
  C313     1.0000 0.87433  0.23777  0.85767  Biso   1.000  C
  C314     1.0000 0.76223  0.63657  0.85767  Biso   1.000  C
  C315     1.0000 0.36343  0.12567  0.85767  Biso   1.000  C
  C316     1.0000 0.45900  0.42890  0.80900  Biso   1.000  C
  C317     1.0000 0.57110  0.03010  0.80900  Biso   1.000  C
  C318     1.0000 0.96990  0.54100  0.80900  Biso   1.000  C
  C319     1.0000 0.12567  0.76223  0.14233  Biso   1.000  C
  C320     1.0000 0.23777  0.36343  0.14233  Biso   1.000  C
  C321     1.0000 0.63657  0.87433  0.14233  Biso   1.000  C
  C322     1.0000 0.79233  0.09557  0.47567  Biso   1.000  C
  C323     1.0000 0.90443  0.69677  0.47567  Biso   1.000  C
  C324     1.0000 0.30323  0.20767  0.47567  Biso   1.000  C
  H469     1.0000 0.50810  0.57770  0.19640  Biso   1.000  H
  H470     1.0000 0.42230  0.93040  0.19640  Biso   1.000  H
  H471     1.0000 0.06960  0.49190  0.19640  Biso   1.000  H
  H472     1.0000 0.17477  0.91103  0.52973  Biso   1.000  H
  H473     1.0000 0.08897  0.26373  0.52973  Biso   1.000  H
  H474     1.0000 0.73627  0.82523  0.52973  Biso   1.000  H
  H475     1.0000 0.84143  0.24437  0.86307  Biso   1.000  H
  H476     1.0000 0.75563  0.59707  0.86307  Biso   1.000  H
  H477     1.0000 0.40293  0.15857  0.86307  Biso   1.000  H
  H478     1.0000 0.49190  0.42230  0.80360  Biso   1.000  H
  H479     1.0000 0.57770  0.06960  0.80360  Biso   1.000  H
  H480     1.0000 0.93040  0.50810  0.80360  Biso   1.000  H
  H481     1.0000 0.15857  0.75563  0.13693  Biso   1.000  H
  H482     1.0000 0.24437  0.40293  0.13693  Biso   1.000  H
  H483     1.0000 0.59707  0.84143  0.13693  Biso   1.000  H
  H484     1.0000 0.82523  0.08897  0.47027  Biso   1.000  H
  H485     1.0000 0.91103  0.73627  0.47027  Biso   1.000  H
  H486     1.0000 0.26373  0.17477  0.47027  Biso   1.000  H
  C325     1.0000 0.57910  0.53130  0.17110  Biso   1.000  C
  C326     1.0000 0.46870  0.04780  0.17110  Biso   1.000  C
  C327     1.0000 0.95220  0.42090  0.17110  Biso   1.000  C
  C328     1.0000 0.24577  0.86463  0.50443  Biso   1.000  C
  C329     1.0000 0.13537  0.38113  0.50443  Biso   1.000  C
  C330     1.0000 0.61887  0.75423  0.50443  Biso   1.000  C
  C331     1.0000 0.91243  0.19797  0.83777  Biso   1.000  C
  C332     1.0000 0.80203  0.71447  0.83777  Biso   1.000  C
  C333     1.0000 0.28553  0.08757  0.83777  Biso   1.000  C
  C334     1.0000 0.42090  0.46870  0.82890  Biso   1.000  C
  C335     1.0000 0.53130  0.95220  0.82890  Biso   1.000  C
  C336     1.0000 0.04780  0.57910  0.82890  Biso   1.000  C
  C337     1.0000 0.08757  0.80203  0.16223  Biso   1.000  C
  C338     1.0000 0.19797  0.28553  0.16223  Biso   1.000  C
  C339     1.0000 0.71447  0.91243  0.16223  Biso   1.000  C
  C340     1.0000 0.75423  0.13537  0.49557  Biso   1.000  C
  C341     1.0000 0.86463  0.61887  0.49557  Biso   1.000  C
  C342     1.0000 0.38113  0.24577  0.49557  Biso   1.000  C
  H487     1.0000 0.58940  0.50090  0.16430  Biso   1.000  H
  H488     1.0000 0.49910  0.08850  0.16430  Biso   1.000  H
  H489     1.0000 0.91150  0.41060  0.16430  Biso   1.000  H
  H490     1.0000 0.25607  0.83423  0.49763  Biso   1.000  H
  H491     1.0000 0.16577  0.42183  0.49763  Biso   1.000  H
  H492     1.0000 0.57817  0.74393  0.49763  Biso   1.000  H
  H493     1.0000 0.92273  0.16757  0.83097  Biso   1.000  H
  H494     1.0000 0.83243  0.75517  0.83097  Biso   1.000  H
  H495     1.0000 0.24483  0.07727  0.83097  Biso   1.000  H
  H496     1.0000 0.41060  0.49910  0.83570  Biso   1.000  H
  H497     1.0000 0.50090  0.91150  0.83570  Biso   1.000  H
  H498     1.0000 0.08850  0.58940  0.83570  Biso   1.000  H
  H499     1.0000 0.07727  0.83243  0.16903  Biso   1.000  H
  H500     1.0000 0.16757  0.24483  0.16903  Biso   1.000  H
  H501     1.0000 0.75517  0.92273  0.16903  Biso   1.000  H
  H502     1.0000 0.74393  0.16577  0.50237  Biso   1.000  H
  H503     1.0000 0.83423  0.57817  0.50237  Biso   1.000  H
  H504     1.0000 0.42183  0.25607  0.50237  Biso   1.000  H
  C343     1.0000 0.60690  0.55270  0.14020  Biso   1.000  C
  C344     1.0000 0.44730  0.05420  0.14020  Biso   1.000  C
  C345     1.0000 0.94580  0.39310  0.14020  Biso   1.000  C
  C346     1.0000 0.27357  0.88603  0.47353  Biso   1.000  C
  C347     1.0000 0.11397  0.38753  0.47353  Biso   1.000  C
  C348     1.0000 0.61247  0.72643  0.47353  Biso   1.000  C
  C349     1.0000 0.94023  0.21937  0.80687  Biso   1.000  C
  C350     1.0000 0.78063  0.72087  0.80687  Biso   1.000  C
  C351     1.0000 0.27913  0.05977  0.80687  Biso   1.000  C
  C352     1.0000 0.39310  0.44730  0.85980  Biso   1.000  C
  C353     1.0000 0.55270  0.94580  0.85980  Biso   1.000  C
  C354     1.0000 0.05420  0.60690  0.85980  Biso   1.000  C
  C355     1.0000 0.05977  0.78063  0.19313  Biso   1.000  C
  C356     1.0000 0.21937  0.27913  0.19313  Biso   1.000  C
  C357     1.0000 0.72087  0.94023  0.19313  Biso   1.000  C
  C358     1.0000 0.72643  0.11397  0.52647  Biso   1.000  C
  C359     1.0000 0.88603  0.61247  0.52647  Biso   1.000  C
  C360     1.0000 0.38753  0.27357  0.52647  Biso   1.000  C
  H505     1.0000 0.62810  0.54070  0.10070  Biso   1.000  H
  H506     1.0000 0.45930  0.08740  0.10070  Biso   1.000  H
  H507     1.0000 0.91260  0.37190  0.10070  Biso   1.000  H
  H508     1.0000 0.29477  0.87403  0.43403  Biso   1.000  H
  H509     1.0000 0.12597  0.42073  0.43403  Biso   1.000  H
  H510     1.0000 0.57927  0.70523  0.43403  Biso   1.000  H
  H511     1.0000 0.96143  0.20737  0.76737  Biso   1.000  H
  H512     1.0000 0.79263  0.75407  0.76737  Biso   1.000  H
  H513     1.0000 0.24593  0.03857  0.76737  Biso   1.000  H
  H514     1.0000 0.37190  0.45930  0.89930  Biso   1.000  H
  H515     1.0000 0.54070  0.91260  0.89930  Biso   1.000  H
  H516     1.0000 0.08740  0.62810  0.89930  Biso   1.000  H
  H517     1.0000 0.03857  0.79263  0.23263  Biso   1.000  H
  H518     1.0000 0.20737  0.24593  0.23263  Biso   1.000  H
  H519     1.0000 0.75407  0.96143  0.23263  Biso   1.000  H
  H520     1.0000 0.70523  0.12597  0.56597  Biso   1.000  H
  H521     1.0000 0.87403  0.57927  0.56597  Biso   1.000  H
  H522     1.0000 0.42073  0.29477  0.56597  Biso   1.000  H
  C361     1.0000 0.54730  0.59290  0.14970  Biso   1.000  C
  C362     1.0000 0.40710  0.95440  0.14970  Biso   1.000  C
  C363     1.0000 0.04560  0.45270  0.14970  Biso   1.000  C
  C364     1.0000 0.21397  0.92623  0.48303  Biso   1.000  C
  C365     1.0000 0.07377  0.28773  0.48303  Biso   1.000  C
  C366     1.0000 0.71227  0.78603  0.48303  Biso   1.000  C
  C367     1.0000 0.88063  0.25957  0.81637  Biso   1.000  C
  C368     1.0000 0.74043  0.62107  0.81637  Biso   1.000  C
  C369     1.0000 0.37893  0.11937  0.81637  Biso   1.000  C
  C370     1.0000 0.45270  0.40710  0.85030  Biso   1.000  C
  C371     1.0000 0.59290  0.04560  0.85030  Biso   1.000  C
  C372     1.0000 0.95440  0.54730  0.85030  Biso   1.000  C
  C373     1.0000 0.11937  0.74043  0.18363  Biso   1.000  C
  C374     1.0000 0.25957  0.37893  0.18363  Biso   1.000  C
  C375     1.0000 0.62107  0.88063  0.18363  Biso   1.000  C
  C376     1.0000 0.78603  0.07377  0.51697  Biso   1.000  C
  C377     1.0000 0.92623  0.71227  0.51697  Biso   1.000  C
  C378     1.0000 0.28773  0.21397  0.51697  Biso   1.000  C
  H523     1.0000 0.52880  0.61250  0.12100  Biso   1.000  H
  H524     1.0000 0.38750  0.91630  0.12100  Biso   1.000  H
  H525     1.0000 0.08370  0.47120  0.12100  Biso   1.000  H
  H526     1.0000 0.19547  0.94583  0.45433  Biso   1.000  H
  H527     1.0000 0.05417  0.24963  0.45433  Biso   1.000  H
  H528     1.0000 0.75037  0.80453  0.45433  Biso   1.000  H
  H529     1.0000 0.86213  0.27917  0.78767  Biso   1.000  H
  H530     1.0000 0.72083  0.58297  0.78767  Biso   1.000  H
  H531     1.0000 0.41703  0.13787  0.78767  Biso   1.000  H
  H532     1.0000 0.47120  0.38750  0.87900  Biso   1.000  H
  H533     1.0000 0.61250  0.08370  0.87900  Biso   1.000  H
  H534     1.0000 0.91630  0.52880  0.87900  Biso   1.000  H
  H535     1.0000 0.13787  0.72083  0.21233  Biso   1.000  H
  H536     1.0000 0.27917  0.41703  0.21233  Biso   1.000  H
  H537     1.0000 0.58297  0.86213  0.21233  Biso   1.000  H
  H538     1.0000 0.80453  0.05417  0.54567  Biso   1.000  H
  H539     1.0000 0.94583  0.75037  0.54567  Biso   1.000  H
  H540     1.0000 0.24963  0.19547  0.54567  Biso   1.000  H
