data_image0
_cell_length_a       32.153
_cell_length_b       16.217
_cell_length_c       21.2146
_cell_angle_alpha    90
_cell_angle_beta     118.535
_cell_angle_gamma    90

_symmetry_space_group_name_H-M    "P 1"
_symmetry_int_tables_number       1

loop_
  _symmetry_equiv_pos_as_xyz
  'x, y, z'

loop_
  _atom_site_label
  _atom_site_occupancy
  _atom_site_fract_x
  _atom_site_fract_y
  _atom_site_fract_z
  _atom_site_thermal_displace_type
  _atom_site_B_iso_or_equiv
  _atom_site_type_symbol
  Cu1      1.0000 0.24615  0.79697  0.26191  Biso   1.000  Cu
  Cu2      1.0000 0.75385  0.79697  0.73809  Biso   1.000  Cu
  Cu3      1.0000 0.74615  0.29697  0.26191  Biso   1.000  Cu
  Cu4      1.0000 0.25385  0.29697  0.73809  Biso   1.000  Cu
  O1       1.0000 0.31911  0.67850  0.65650  Biso   1.000  O
  O2       1.0000 0.68089  0.67850  0.34350  Biso   1.000  O
  O3       1.0000 0.81911  0.17850  0.65650  Biso   1.000  O
  O4       1.0000 0.18089  0.17850  0.34350  Biso   1.000  O
  O5       1.0000 0.39170  0.80930  0.68580  Biso   1.000  O
  O6       1.0000 0.60830  0.80930  0.31420  Biso   1.000  O
  O7       1.0000 0.89170  0.30930  0.68580  Biso   1.000  O
  O8       1.0000 0.10830  0.30930  0.31420  Biso   1.000  O
  O9       1.0000 0.63912  0.32040  0.85240  Biso   1.000  O
  O10      1.0000 0.36088  0.32040  0.14760  Biso   1.000  O
  O11      1.0000 0.13912  0.82040  0.85240  Biso   1.000  O
  O12      1.0000 0.86088  0.82040  0.14760  Biso   1.000  O
  O13      1.0000 0.67023  0.49110  0.88960  Biso   1.000  O
  O14      1.0000 0.32977  0.49110  0.11040  Biso   1.000  O
  O15      1.0000 0.17023  0.99110  0.88960  Biso   1.000  O
  O16      1.0000 0.82977  0.99110  0.11040  Biso   1.000  O
  O17      1.0000 0.20313  0.66800  0.22720  Biso   1.000  O
  O18      1.0000 0.79687  0.66800  0.77280  Biso   1.000  O
  O19      1.0000 0.70313  0.16800  0.22720  Biso   1.000  O
  O20      1.0000 0.29687  0.16800  0.77280  Biso   1.000  O
  H1       1.0000 0.20710  0.64570  0.19470  Biso   1.000  H
  H2       1.0000 0.79290  0.64570  0.80530  Biso   1.000  H
  H3       1.0000 0.70710  0.14570  0.19470  Biso   1.000  H
  H4       1.0000 0.29290  0.14570  0.80530  Biso   1.000  H
  H5       1.0000 0.18630  0.65130  0.24860  Biso   1.000  H
  H6       1.0000 0.81370  0.65130  0.75140  Biso   1.000  H
  H7       1.0000 0.68630  0.15130  0.24860  Biso   1.000  H
  H8       1.0000 0.31370  0.15130  0.75140  Biso   1.000  H
  N1       1.0000 0.27157  0.78500  0.19100  Biso   1.000  N
  N2       1.0000 0.72843  0.78500  0.80900  Biso   1.000  N
  N3       1.0000 0.77157  0.28500  0.19100  Biso   1.000  N
  N4       1.0000 0.22843  0.28500  0.80900  Biso   1.000  N
  N5       1.0000 0.68873  0.35750  0.18720  Biso   1.000  N
  N6       1.0000 0.31127  0.35750  0.81280  Biso   1.000  N
  N7       1.0000 0.18873  0.85750  0.18720  Biso   1.000  N
  N8       1.0000 0.81127  0.85750  0.81280  Biso   1.000  N
  N9       1.0000 0.30371  0.73870  0.33750  Biso   1.000  N
  N10      1.0000 0.69629  0.73870  0.66250  Biso   1.000  N
  N11      1.0000 0.80371  0.23870  0.33750  Biso   1.000  N
  N12      1.0000 0.19629  0.23870  0.66250  Biso   1.000  N
  N13      1.0000 0.72396  0.32170  0.33500  Biso   1.000  N
  N14      1.0000 0.27604  0.32170  0.66500  Biso   1.000  N
  N15      1.0000 0.22396  0.82170  0.33500  Biso   1.000  N
  N16      1.0000 0.77604  0.82170  0.66500  Biso   1.000  N
  C1       1.0000 0.28250  0.71130  0.17530  Biso   1.000  C
  C2       1.0000 0.71750  0.71130  0.82470  Biso   1.000  C
  C3       1.0000 0.78250  0.21130  0.17530  Biso   1.000  C
  C4       1.0000 0.21750  0.21130  0.82470  Biso   1.000  C
  H9       1.0000 0.27810  0.66390  0.19760  Biso   1.000  H
  H10      1.0000 0.72190  0.66390  0.80240  Biso   1.000  H
  H11      1.0000 0.77810  0.16390  0.19760  Biso   1.000  H
  H12      1.0000 0.22190  0.16390  0.80240  Biso   1.000  H
  C5       1.0000 0.30020  0.70130  0.12780  Biso   1.000  C
  C6       1.0000 0.69980  0.70130  0.87220  Biso   1.000  C
  C7       1.0000 0.80020  0.20130  0.12780  Biso   1.000  C
  C8       1.0000 0.19980  0.20130  0.87220  Biso   1.000  C
  H13      1.0000 0.30810  0.64780  0.11880  Biso   1.000  H
  H14      1.0000 0.69190  0.64780  0.88120  Biso   1.000  H
  H15      1.0000 0.80810  0.14780  0.11880  Biso   1.000  H
  H16      1.0000 0.19190  0.14780  0.88120  Biso   1.000  H
  C9       1.0000 0.30630  0.77000  0.09300  Biso   1.000  C
  C10      1.0000 0.69370  0.77000  0.90700  Biso   1.000  C
  C11      1.0000 0.80630  0.27000  0.09300  Biso   1.000  C
  C12      1.0000 0.19370  0.27000  0.90700  Biso   1.000  C
  C13      1.0000 0.29610  0.84670  0.11140  Biso   1.000  C
  C14      1.0000 0.70390  0.84670  0.88860  Biso   1.000  C
  C15      1.0000 0.79610  0.34670  0.11140  Biso   1.000  C
  C16      1.0000 0.20390  0.34670  0.88860  Biso   1.000  C
  H17      1.0000 0.30160  0.89540  0.09170  Biso   1.000  H
  H18      1.0000 0.69840  0.89540  0.90830  Biso   1.000  H
  H19      1.0000 0.80160  0.39540  0.09170  Biso   1.000  H
  H20      1.0000 0.19840  0.39540  0.90830  Biso   1.000  H
  C17      1.0000 0.27800  0.85150  0.15800  Biso   1.000  C
  C18      1.0000 0.72200  0.85150  0.84200  Biso   1.000  C
  C19      1.0000 0.77800  0.35150  0.15800  Biso   1.000  C
  C20      1.0000 0.22200  0.35150  0.84200  Biso   1.000  C
  H21      1.0000 0.26940  0.90420  0.16760  Biso   1.000  H
  H22      1.0000 0.73060  0.90420  0.83240  Biso   1.000  H
  H23      1.0000 0.76940  0.40420  0.16760  Biso   1.000  H
  H24      1.0000 0.23060  0.40420  0.83240  Biso   1.000  H
  C21      1.0000 0.32490  0.75680  0.04200  Biso   1.000  C
  C22      1.0000 0.67510  0.75680  0.95800  Biso   1.000  C
  C23      1.0000 0.82490  0.25680  0.04200  Biso   1.000  C
  C24      1.0000 0.17510  0.25680  0.95800  Biso   1.000  C
  H25      1.0000 0.33200  0.70180  0.03500  Biso   1.000  H
  H26      1.0000 0.66800  0.70180  0.96500  Biso   1.000  H
  H27      1.0000 0.83200  0.20180  0.03500  Biso   1.000  H
  H28      1.0000 0.16800  0.20180  0.96500  Biso   1.000  H
  C25      1.0000 0.33240  0.81660  0.00490  Biso   1.000  C
  C26      1.0000 0.66760  0.81660  0.99510  Biso   1.000  C
  C27      1.0000 0.83240  0.31660  0.00490  Biso   1.000  C
  C28      1.0000 0.16760  0.31660  0.99510  Biso   1.000  C
  H29      1.0000 0.32750  0.87210  0.01440  Biso   1.000  H
  H30      1.0000 0.67250  0.87210  0.98560  Biso   1.000  H
  H31      1.0000 0.82750  0.37210  0.01440  Biso   1.000  H
  H32      1.0000 0.17250  0.37210  0.98560  Biso   1.000  H
  C29      1.0000 0.34770  0.80220  0.95030  Biso   1.000  C
  C30      1.0000 0.65230  0.80220  0.04970  Biso   1.000  C
  C31      1.0000 0.84770  0.30220  0.95030  Biso   1.000  C
  C32      1.0000 0.15230  0.30220  0.04970  Biso   1.000  C
  C33      1.0000 0.35080  0.86540  0.91120  Biso   1.000  C
  C34      1.0000 0.64920  0.86540  0.08880  Biso   1.000  C
  C35      1.0000 0.85080  0.36540  0.91120  Biso   1.000  C
  C36      1.0000 0.14920  0.36540  0.08880  Biso   1.000  C
  H33      1.0000 0.34520  0.91980  0.92200  Biso   1.000  H
  H34      1.0000 0.65480  0.91980  0.07800  Biso   1.000  H
  H35      1.0000 0.84520  0.41980  0.92200  Biso   1.000  H
  H36      1.0000 0.15480  0.41980  0.07800  Biso   1.000  H
  C37      1.0000 0.36190  0.85400  0.85460  Biso   1.000  C
  C38      1.0000 0.63810  0.85400  0.14540  Biso   1.000  C
  C39      1.0000 0.86190  0.35400  0.85460  Biso   1.000  C
  C40      1.0000 0.13810  0.35400  0.14540  Biso   1.000  C
  C41      1.0000 0.36340  0.92120  0.81150  Biso   1.000  C
  C42      1.0000 0.63660  0.92120  0.18850  Biso   1.000  C
  C43      1.0000 0.86340  0.42120  0.81150  Biso   1.000  C
  C44      1.0000 0.13660  0.42120  0.18850  Biso   1.000  C
  H37      1.0000 0.35790  0.97590  0.82170  Biso   1.000  H
  H38      1.0000 0.64210  0.97590  0.17830  Biso   1.000  H
  H39      1.0000 0.85790  0.47590  0.82170  Biso   1.000  H
  H40      1.0000 0.14210  0.47590  0.17830  Biso   1.000  H
  C45      1.0000 0.37280  0.90700  0.75640  Biso   1.000  C
  C46      1.0000 0.62720  0.90700  0.24360  Biso   1.000  C
  C47      1.0000 0.87280  0.40700  0.75640  Biso   1.000  C
  C48      1.0000 0.12720  0.40700  0.24360  Biso   1.000  C
  H41      1.0000 0.37340  0.95200  0.72830  Biso   1.000  H
  H42      1.0000 0.62660  0.95200  0.27170  Biso   1.000  H
  H43      1.0000 0.87340  0.45200  0.72830  Biso   1.000  H
  H44      1.0000 0.12660  0.45200  0.27170  Biso   1.000  H
  C49      1.0000 0.38150  0.82650  0.74010  Biso   1.000  C
  C50      1.0000 0.61850  0.82650  0.25990  Biso   1.000  C
  C51      1.0000 0.88150  0.32650  0.74010  Biso   1.000  C
  C52      1.0000 0.11850  0.32650  0.25990  Biso   1.000  C
  C53      1.0000 0.38110  0.75900  0.78060  Biso   1.000  C
  C54      1.0000 0.61890  0.75900  0.21940  Biso   1.000  C
  C55      1.0000 0.88110  0.25900  0.78060  Biso   1.000  C
  C56      1.0000 0.11890  0.25900  0.21940  Biso   1.000  C
  C57      1.0000 0.37170  0.77290  0.83920  Biso   1.000  C
  C58      1.0000 0.62830  0.77290  0.16080  Biso   1.000  C
  C59      1.0000 0.87170  0.27290  0.83920  Biso   1.000  C
  C60      1.0000 0.12830  0.27290  0.16080  Biso   1.000  C
  C61      1.0000 0.37050  0.70810  0.88320  Biso   1.000  C
  C62      1.0000 0.62950  0.70810  0.11680  Biso   1.000  C
  C63      1.0000 0.87050  0.20810  0.88320  Biso   1.000  C
  C64      1.0000 0.12950  0.20810  0.11680  Biso   1.000  C
  H45      1.0000 0.37860  0.65380  0.87600  Biso   1.000  H
  H46      1.0000 0.62140  0.65380  0.12400  Biso   1.000  H
  H47      1.0000 0.87860  0.15380  0.87600  Biso   1.000  H
  H48      1.0000 0.12140  0.15380  0.12400  Biso   1.000  H
  C65      1.0000 0.35810  0.72140  0.93530  Biso   1.000  C
  C66      1.0000 0.64190  0.72140  0.06470  Biso   1.000  C
  C67      1.0000 0.85810  0.22140  0.93530  Biso   1.000  C
  C68      1.0000 0.14190  0.22140  0.06470  Biso   1.000  C
  H49      1.0000 0.35630  0.67600  0.96220  Biso   1.000  H
  H50      1.0000 0.64370  0.67600  0.03780  Biso   1.000  H
  H51      1.0000 0.85630  0.17600  0.96220  Biso   1.000  H
  H52      1.0000 0.14370  0.17600  0.03780  Biso   1.000  H
  C69      1.0000 0.24880  0.70420  0.54930  Biso   1.000  C
  C70      1.0000 0.75120  0.70420  0.45070  Biso   1.000  C
  C71      1.0000 0.74880  0.20420  0.54930  Biso   1.000  C
  C72      1.0000 0.25120  0.20420  0.45070  Biso   1.000  C
  H53      1.0000 0.22550  0.68050  0.50340  Biso   1.000  H
  H54      1.0000 0.77450  0.68050  0.49660  Biso   1.000  H
  H55      1.0000 0.72550  0.18050  0.50340  Biso   1.000  H
  H56      1.0000 0.27450  0.18050  0.49660  Biso   1.000  H
  H57      1.0000 0.26350  0.75270  0.54040  Biso   1.000  H
  H58      1.0000 0.73650  0.75270  0.45960  Biso   1.000  H
  H59      1.0000 0.76350  0.25270  0.54040  Biso   1.000  H
  H60      1.0000 0.23650  0.25270  0.45960  Biso   1.000  H
  H61      1.0000 0.23300  0.72050  0.57700  Biso   1.000  H
  H62      1.0000 0.76700  0.72050  0.42300  Biso   1.000  H
  H63      1.0000 0.73300  0.22050  0.57700  Biso   1.000  H
  H64      1.0000 0.26700  0.22050  0.42300  Biso   1.000  H
  C73      1.0000 0.28570  0.64230  0.59000  Biso   1.000  C
  C74      1.0000 0.71430  0.64230  0.41000  Biso   1.000  C
  C75      1.0000 0.78570  0.14230  0.59000  Biso   1.000  C
  C76      1.0000 0.21430  0.14230  0.41000  Biso   1.000  C
  H65      1.0000 0.27130  0.59290  0.59900  Biso   1.000  H
  H66      1.0000 0.72870  0.59290  0.40100  Biso   1.000  H
  H67      1.0000 0.77130  0.09290  0.59900  Biso   1.000  H
  H68      1.0000 0.22870  0.09290  0.40100  Biso   1.000  H
  H69      1.0000 0.30180  0.62530  0.56220  Biso   1.000  H
  H70      1.0000 0.69820  0.62530  0.43780  Biso   1.000  H
  H71      1.0000 0.80180  0.12530  0.56220  Biso   1.000  H
  H72      1.0000 0.19820  0.12530  0.43780  Biso   1.000  H
  C77      1.0000 0.37410  0.81770  0.56500  Biso   1.000  C
  C78      1.0000 0.62590  0.81770  0.43500  Biso   1.000  C
  C79      1.0000 0.87410  0.31770  0.56500  Biso   1.000  C
  C80      1.0000 0.12590  0.31770  0.43500  Biso   1.000  C
  H73      1.0000 0.36040  0.85300  0.52230  Biso   1.000  H
  H74      1.0000 0.63960  0.85300  0.47770  Biso   1.000  H
  H75      1.0000 0.86040  0.35300  0.52230  Biso   1.000  H
  H76      1.0000 0.13960  0.35300  0.47770  Biso   1.000  H
  H77      1.0000 0.35650  0.76580  0.55450  Biso   1.000  H
  H78      1.0000 0.64350  0.76580  0.44550  Biso   1.000  H
  H79      1.0000 0.85650  0.26580  0.55450  Biso   1.000  H
  H80      1.0000 0.14350  0.26580  0.44550  Biso   1.000  H
  H81      1.0000 0.40730  0.80630  0.57880  Biso   1.000  H
  H82      1.0000 0.59270  0.80630  0.42120  Biso   1.000  H
  H83      1.0000 0.90730  0.30630  0.57880  Biso   1.000  H
  H84      1.0000 0.09270  0.30630  0.42120  Biso   1.000  H
  C81      1.0000 0.37150  0.86070  0.62520  Biso   1.000  C
  C82      1.0000 0.62850  0.86070  0.37480  Biso   1.000  C
  C83      1.0000 0.87150  0.36070  0.62520  Biso   1.000  C
  C84      1.0000 0.12850  0.36070  0.37480  Biso   1.000  C
  H85      1.0000 0.38880  0.91360  0.63590  Biso   1.000  H
  H86      1.0000 0.61120  0.91360  0.36410  Biso   1.000  H
  H87      1.0000 0.88880  0.41360  0.63590  Biso   1.000  H
  H88      1.0000 0.11120  0.41360  0.36410  Biso   1.000  H
  H89      1.0000 0.33800  0.87240  0.61180  Biso   1.000  H
  H90      1.0000 0.66200  0.87240  0.38820  Biso   1.000  H
  H91      1.0000 0.83800  0.37240  0.61180  Biso   1.000  H
  H92      1.0000 0.16200  0.37240  0.38820  Biso   1.000  H
  C85      1.0000 0.39090  0.67370  0.76330  Biso   1.000  C
  C86      1.0000 0.60910  0.67370  0.23670  Biso   1.000  C
  C87      1.0000 0.89090  0.17370  0.76330  Biso   1.000  C
  C88      1.0000 0.10910  0.17370  0.23670  Biso   1.000  C
  C89      1.0000 0.35850  0.63510  0.70130  Biso   1.000  C
  C90      1.0000 0.64150  0.63510  0.29870  Biso   1.000  C
  C91      1.0000 0.85850  0.13510  0.70130  Biso   1.000  C
  C92      1.0000 0.14150  0.13510  0.29870  Biso   1.000  C
  C93      1.0000 0.36620  0.55210  0.68530  Biso   1.000  C
  C94      1.0000 0.63380  0.55210  0.31470  Biso   1.000  C
  C95      1.0000 0.86620  0.05210  0.68530  Biso   1.000  C
  C96      1.0000 0.13380  0.05210  0.31470  Biso   1.000  C
  H93      1.0000 0.34370  0.52620  0.64220  Biso   1.000  H
  H94      1.0000 0.65630  0.52620  0.35780  Biso   1.000  H
  H95      1.0000 0.84370  0.02620  0.64220  Biso   1.000  H
  H96      1.0000 0.15630  0.02620  0.35780  Biso   1.000  H
  C97      1.0000 0.40500  0.51150  0.73150  Biso   1.000  C
  C98      1.0000 0.59500  0.51150  0.26850  Biso   1.000  C
  C99      1.0000 0.90500  0.01150  0.73150  Biso   1.000  C
  C100     1.0000 0.09500  0.01150  0.26850  Biso   1.000  C
  H97      1.0000 0.40940  0.45640  0.72060  Biso   1.000  H
  H98      1.0000 0.59060  0.45640  0.27940  Biso   1.000  H
  H99      1.0000 0.90940  0.95640  0.72060  Biso   1.000  H
  H100     1.0000 0.09060  0.95640  0.27940  Biso   1.000  H
  C101     1.0000 0.43950  0.54700  0.79580  Biso   1.000  C
  C102     1.0000 0.56050  0.54700  0.20420  Biso   1.000  C
  C103     1.0000 0.93950  0.04700  0.79580  Biso   1.000  C
  C104     1.0000 0.06050  0.04700  0.20420  Biso   1.000  C
  C105     1.0000 0.47990  0.50190  0.84600  Biso   1.000  C
  C106     1.0000 0.52010  0.50190  0.15400  Biso   1.000  C
  C107     1.0000 0.97990  0.00190  0.84600  Biso   1.000  C
  C108     1.0000 0.02010  0.00190  0.15400  Biso   1.000  C
  H101     1.0000 0.48460  0.44730  0.83450  Biso   1.000  H
  H102     1.0000 0.51540  0.44730  0.16550  Biso   1.000  H
  H103     1.0000 0.98460  0.94730  0.83450  Biso   1.000  H
  H104     1.0000 0.01540  0.94730  0.16550  Biso   1.000  H
  C109     1.0000 0.51230  0.53550  0.91080  Biso   1.000  C
  C110     1.0000 0.48770  0.53550  0.08920  Biso   1.000  C
  C111     1.0000 0.01230  0.03550  0.91080  Biso   1.000  C
  C112     1.0000 0.98770  0.03550  0.08920  Biso   1.000  C
  C113     1.0000 0.50680  0.62050  0.92430  Biso   1.000  C
  C114     1.0000 0.49320  0.62050  0.07570  Biso   1.000  C
  C115     1.0000 0.00680  0.12050  0.92430  Biso   1.000  C
  C116     1.0000 0.99320  0.12050  0.07570  Biso   1.000  C
  H105     1.0000 0.53030  0.64590  0.96690  Biso   1.000  H
  H106     1.0000 0.46970  0.64590  0.03310  Biso   1.000  H
  H107     1.0000 0.03030  0.14590  0.96690  Biso   1.000  H
  H108     1.0000 0.96970  0.14590  0.03310  Biso   1.000  H
  C117     1.0000 0.46780  0.66660  0.87620  Biso   1.000  C
  C118     1.0000 0.53220  0.66660  0.12380  Biso   1.000  C
  C119     1.0000 0.96780  0.16660  0.87620  Biso   1.000  C
  C120     1.0000 0.03220  0.16660  0.12380  Biso   1.000  C
  H109     1.0000 0.46470  0.72250  0.88680  Biso   1.000  H
  H110     1.0000 0.53530  0.72250  0.11320  Biso   1.000  H
  H111     1.0000 0.96470  0.22250  0.88680  Biso   1.000  H
  H112     1.0000 0.03530  0.22250  0.11320  Biso   1.000  H
  C121     1.0000 0.43300  0.63070  0.81200  Biso   1.000  C
  C122     1.0000 0.56700  0.63070  0.18800  Biso   1.000  C
  C123     1.0000 0.93300  0.13070  0.81200  Biso   1.000  C
  C124     1.0000 0.06700  0.13070  0.18800  Biso   1.000  C
  C125     1.0000 0.54910  0.48320  0.96300  Biso   1.000  C
  C126     1.0000 0.45090  0.48320  0.03700  Biso   1.000  C
  C127     1.0000 0.04910  0.98320  0.96300  Biso   1.000  C
  C128     1.0000 0.95090  0.98320  0.03700  Biso   1.000  C
  H113     1.0000 0.55610  0.43360  0.94610  Biso   1.000  H
  H114     1.0000 0.44390  0.43360  0.05390  Biso   1.000  H
  H115     1.0000 0.05610  0.93360  0.94610  Biso   1.000  H
  H116     1.0000 0.94390  0.93360  0.05390  Biso   1.000  H
  C129     1.0000 0.57360  0.49900  0.03160  Biso   1.000  C
  C130     1.0000 0.42640  0.49900  0.96840  Biso   1.000  C
  C131     1.0000 0.07360  0.99900  0.03160  Biso   1.000  C
  C132     1.0000 0.92640  0.99900  0.96840  Biso   1.000  C
  H117     1.0000 0.56660  0.54860  0.04840  Biso   1.000  H
  H118     1.0000 0.43340  0.54860  0.95160  Biso   1.000  H
  H119     1.0000 0.06660  0.04860  0.04840  Biso   1.000  H
  H120     1.0000 0.93340  0.04860  0.95160  Biso   1.000  H
  C133     1.0000 0.66100  0.32420  0.12240  Biso   1.000  C
  C134     1.0000 0.33900  0.32420  0.87760  Biso   1.000  C
  C135     1.0000 0.16100  0.82420  0.12240  Biso   1.000  C
  C136     1.0000 0.83900  0.82420  0.87760  Biso   1.000  C
  H121     1.0000 0.66840  0.27110  0.11150  Biso   1.000  H
  H122     1.0000 0.33160  0.27110  0.88850  Biso   1.000  H
  H123     1.0000 0.16840  0.77110  0.11150  Biso   1.000  H
  H124     1.0000 0.83160  0.77110  0.88850  Biso   1.000  H
  C137     1.0000 0.62180  0.36590  0.07110  Biso   1.000  C
  C138     1.0000 0.37820  0.36590  0.92890  Biso   1.000  C
  C139     1.0000 0.12180  0.86590  0.07110  Biso   1.000  C
  C140     1.0000 0.87820  0.86590  0.92890  Biso   1.000  C
  H125     1.0000 0.60190  0.34040  0.02630  Biso   1.000  H
  H126     1.0000 0.39810  0.34040  0.97370  Biso   1.000  H
  H127     1.0000 0.10190  0.84040  0.02630  Biso   1.000  H
  H128     1.0000 0.89810  0.84040  0.97370  Biso   1.000  H
  C141     1.0000 0.61140  0.44620  0.08520  Biso   1.000  C
  C142     1.0000 0.38860  0.44620  0.91480  Biso   1.000  C
  C143     1.0000 0.11140  0.94620  0.08520  Biso   1.000  C
  C144     1.0000 0.88860  0.94620  0.91480  Biso   1.000  C
  C145     1.0000 0.64070  0.47780  0.15380  Biso   1.000  C
  C146     1.0000 0.35930  0.47780  0.84620  Biso   1.000  C
  C147     1.0000 0.14070  0.97780  0.15380  Biso   1.000  C
  C148     1.0000 0.85930  0.97780  0.84620  Biso   1.000  C
  H129     1.0000 0.63480  0.53060  0.16730  Biso   1.000  H
  H130     1.0000 0.36520  0.53060  0.83270  Biso   1.000  H
  H131     1.0000 0.13480  0.03060  0.16730  Biso   1.000  H
  H132     1.0000 0.86520  0.03060  0.83270  Biso   1.000  H
  C149     1.0000 0.67800  0.43160  0.20090  Biso   1.000  C
  C150     1.0000 0.32200  0.43160  0.79910  Biso   1.000  C
  C151     1.0000 0.17800  0.93160  0.20090  Biso   1.000  C
  C152     1.0000 0.82200  0.93160  0.79910  Biso   1.000  C
  H133     1.0000 0.69770  0.45420  0.24710  Biso   1.000  H
  H134     1.0000 0.30230  0.45420  0.75290  Biso   1.000  H
  H135     1.0000 0.19770  0.95420  0.24710  Biso   1.000  H
  H136     1.0000 0.80230  0.95420  0.75290  Biso   1.000  H
  C153     1.0000 0.29910  0.67770  0.37610  Biso   1.000  C
  C154     1.0000 0.70090  0.67770  0.62390  Biso   1.000  C
  C155     1.0000 0.79910  0.17770  0.37610  Biso   1.000  C
  C156     1.0000 0.20090  0.17770  0.62390  Biso   1.000  C
  H137     1.0000 0.26840  0.66100  0.36690  Biso   1.000  H
  H138     1.0000 0.73160  0.66100  0.63310  Biso   1.000  H
  H139     1.0000 0.76840  0.16100  0.36690  Biso   1.000  H
  H140     1.0000 0.23160  0.16100  0.63310  Biso   1.000  H
  C157     1.0000 0.33950  0.63760  0.43040  Biso   1.000  C
  C158     1.0000 0.66050  0.63760  0.56960  Biso   1.000  C
  C159     1.0000 0.83950  0.13760  0.43040  Biso   1.000  C
  C160     1.0000 0.16050  0.13760  0.56960  Biso   1.000  C
  H141     1.0000 0.33560  0.59290  0.45600  Biso   1.000  H
  H142     1.0000 0.66440  0.59290  0.54400  Biso   1.000  H
  H143     1.0000 0.83560  0.09290  0.45600  Biso   1.000  H
  H144     1.0000 0.16440  0.09290  0.54400  Biso   1.000  H
  C161     1.0000 0.38380  0.66230  0.44630  Biso   1.000  C
  C162     1.0000 0.61620  0.66230  0.55370  Biso   1.000  C
  C163     1.0000 0.88380  0.16230  0.44630  Biso   1.000  C
  C164     1.0000 0.11620  0.16230  0.55370  Biso   1.000  C
  C165     1.0000 0.38730  0.72470  0.40350  Biso   1.000  C
  C166     1.0000 0.61270  0.72470  0.59650  Biso   1.000  C
  C167     1.0000 0.88730  0.22470  0.40350  Biso   1.000  C
  C168     1.0000 0.11270  0.22470  0.59650  Biso   1.000  C
  H145     1.0000 0.41750  0.74280  0.41130  Biso   1.000  H
  H146     1.0000 0.58250  0.74280  0.58870  Biso   1.000  H
  H147     1.0000 0.91750  0.24280  0.41130  Biso   1.000  H
  H148     1.0000 0.08250  0.24280  0.58870  Biso   1.000  H
  C169     1.0000 0.34700  0.75950  0.35040  Biso   1.000  C
  C170     1.0000 0.65300  0.75950  0.64960  Biso   1.000  C
  C171     1.0000 0.84700  0.25950  0.35040  Biso   1.000  C
  C172     1.0000 0.15300  0.25950  0.64960  Biso   1.000  C
  H149     1.0000 0.35010  0.80080  0.32120  Biso   1.000  H
  H150     1.0000 0.64990  0.80080  0.67880  Biso   1.000  H
  H151     1.0000 0.85010  0.30080  0.32120  Biso   1.000  H
  H152     1.0000 0.14990  0.30080  0.67880  Biso   1.000  H
  C173     1.0000 0.42780  0.62820  0.50450  Biso   1.000  C
  C174     1.0000 0.57220  0.62820  0.49550  Biso   1.000  C
  C175     1.0000 0.92780  0.12820  0.50450  Biso   1.000  C
  C176     1.0000 0.07220  0.12820  0.49550  Biso   1.000  C
  H153     1.0000 0.45650  0.65460  0.51340  Biso   1.000  H
  H154     1.0000 0.54350  0.65460  0.48660  Biso   1.000  H
  H155     1.0000 0.95650  0.15460  0.51340  Biso   1.000  H
  H156     1.0000 0.04350  0.15460  0.48660  Biso   1.000  H
  C177     1.0000 0.43140  0.56540  0.54480  Biso   1.000  C
  C178     1.0000 0.56860  0.56540  0.45520  Biso   1.000  C
  C179     1.0000 0.93140  0.06540  0.54480  Biso   1.000  C
  C180     1.0000 0.06860  0.06540  0.45520  Biso   1.000  C
  H157     1.0000 0.40280  0.53930  0.53680  Biso   1.000  H
  H158     1.0000 0.59720  0.53930  0.46320  Biso   1.000  H
  H159     1.0000 0.90280  0.03930  0.53680  Biso   1.000  H
  H160     1.0000 0.09720  0.03930  0.46320  Biso   1.000  H
  C181     1.0000 0.47600  0.53120  0.60200  Biso   1.000  C
  C182     1.0000 0.52400  0.53120  0.39800  Biso   1.000  C
  C183     1.0000 0.97600  0.03120  0.60200  Biso   1.000  C
  C184     1.0000 0.02400  0.03120  0.39800  Biso   1.000  C
  C185     1.0000 0.47350  0.46300  0.64110  Biso   1.000  C
  C186     1.0000 0.52650  0.46300  0.35890  Biso   1.000  C
  C187     1.0000 0.97350  0.96300  0.64110  Biso   1.000  C
  C188     1.0000 0.02650  0.96300  0.35890  Biso   1.000  C
  H161     1.0000 0.44360  0.44080  0.63050  Biso   1.000  H
  H162     1.0000 0.55640  0.44080  0.36950  Biso   1.000  H
  H163     1.0000 0.94360  0.94080  0.63050  Biso   1.000  H
  H164     1.0000 0.05640  0.94080  0.36950  Biso   1.000  H
  C189     1.0000 0.51490  0.42750  0.69560  Biso   1.000  C
  C190     1.0000 0.48510  0.42750  0.30440  Biso   1.000  C
  C191     1.0000 0.01490  0.92750  0.69560  Biso   1.000  C
  C192     1.0000 0.98510  0.92750  0.30440  Biso   1.000  C
  C193     1.0000 0.51240  0.35990  0.73650  Biso   1.000  C
  C194     1.0000 0.48760  0.35990  0.26350  Biso   1.000  C
  C195     1.0000 0.01240  0.85990  0.73650  Biso   1.000  C
  C196     1.0000 0.98760  0.85990  0.26350  Biso   1.000  C
  H165     1.0000 0.48240  0.33900  0.72740  Biso   1.000  H
  H166     1.0000 0.51760  0.33900  0.27260  Biso   1.000  H
  H167     1.0000 0.98240  0.83900  0.72740  Biso   1.000  H
  H168     1.0000 0.01760  0.83900  0.27260  Biso   1.000  H
  C197     1.0000 0.55310  0.32520  0.78880  Biso   1.000  C
  C198     1.0000 0.44690  0.32520  0.21120  Biso   1.000  C
  C199     1.0000 0.05310  0.82520  0.78880  Biso   1.000  C
  C200     1.0000 0.94690  0.82520  0.21120  Biso   1.000  C
  H169     1.0000 0.55110  0.28040  0.81620  Biso   1.000  H
  H170     1.0000 0.44890  0.28040  0.18380  Biso   1.000  H
  H171     1.0000 0.05110  0.78040  0.81620  Biso   1.000  H
  H172     1.0000 0.94890  0.78040  0.18380  Biso   1.000  H
  C201     1.0000 0.59810  0.35520  0.80270  Biso   1.000  C
  C202     1.0000 0.40190  0.35520  0.19730  Biso   1.000  C
  C203     1.0000 0.09810  0.85520  0.80270  Biso   1.000  C
  C204     1.0000 0.90190  0.85520  0.19730  Biso   1.000  C
  C205     1.0000 0.60250  0.42000  0.76310  Biso   1.000  C
  C206     1.0000 0.39750  0.42000  0.23690  Biso   1.000  C
  C207     1.0000 0.10250  0.92000  0.76310  Biso   1.000  C
  C208     1.0000 0.89750  0.92000  0.23690  Biso   1.000  C
  C209     1.0000 0.56070  0.45830  0.71080  Biso   1.000  C
  C210     1.0000 0.43930  0.45830  0.28920  Biso   1.000  C
  C211     1.0000 0.06070  0.95830  0.71080  Biso   1.000  C
  C212     1.0000 0.93930  0.95830  0.28920  Biso   1.000  C
  C213     1.0000 0.56170  0.52720  0.67010  Biso   1.000  C
  C214     1.0000 0.43830  0.52720  0.32990  Biso   1.000  C
  C215     1.0000 0.06170  0.02720  0.67010  Biso   1.000  C
  C216     1.0000 0.93830  0.02720  0.32990  Biso   1.000  C
  H173     1.0000 0.59120  0.55010  0.67910  Biso   1.000  H
  H174     1.0000 0.40880  0.55010  0.32090  Biso   1.000  H
  H175     1.0000 0.09120  0.05010  0.67910  Biso   1.000  H
  H176     1.0000 0.90880  0.05010  0.32090  Biso   1.000  H
  C217     1.0000 0.52010  0.56120  0.61770  Biso   1.000  C
  C218     1.0000 0.47990  0.56120  0.38230  Biso   1.000  C
  C219     1.0000 0.02010  0.06120  0.61770  Biso   1.000  C
  C220     1.0000 0.97990  0.06120  0.38230  Biso   1.000  C
  H177     1.0000 0.52190  0.60720  0.59130  Biso   1.000  H
  H178     1.0000 0.47810  0.60720  0.40870  Biso   1.000  H
  H179     1.0000 0.02190  0.10720  0.59130  Biso   1.000  H
  H180     1.0000 0.97810  0.10720  0.40870  Biso   1.000  H
  C221     1.0000 0.63740  0.26190  0.90300  Biso   1.000  C
  C222     1.0000 0.36260  0.26190  0.09700  Biso   1.000  C
  C223     1.0000 0.13740  0.76190  0.90300  Biso   1.000  C
  C224     1.0000 0.86260  0.76190  0.09700  Biso   1.000  C
  H181     1.0000 0.62210  0.21010  0.87810  Biso   1.000  H
  H182     1.0000 0.37790  0.21010  0.12190  Biso   1.000  H
  H183     1.0000 0.12210  0.71010  0.87810  Biso   1.000  H
  H184     1.0000 0.87790  0.71010  0.12190  Biso   1.000  H
  H185     1.0000 0.61870  0.28510  0.92480  Biso   1.000  H
  H186     1.0000 0.38130  0.28510  0.07520  Biso   1.000  H
  H187     1.0000 0.11870  0.78510  0.92480  Biso   1.000  H
  H188     1.0000 0.88130  0.78510  0.07520  Biso   1.000  H
  C225     1.0000 0.68710  0.24500  0.96020  Biso   1.000  C
  C226     1.0000 0.31290  0.24500  0.03980  Biso   1.000  C
  C227     1.0000 0.18710  0.74500  0.96020  Biso   1.000  C
  C228     1.0000 0.81290  0.74500  0.03980  Biso   1.000  C
  H189     1.0000 0.68660  0.20560  0.99490  Biso   1.000  H
  H190     1.0000 0.31340  0.20560  0.00510  Biso   1.000  H
  H191     1.0000 0.18660  0.70560  0.99490  Biso   1.000  H
  H192     1.0000 0.81340  0.70560  0.00510  Biso   1.000  H
  H193     1.0000 0.70190  0.29650  0.98490  Biso   1.000  H
  H194     1.0000 0.29810  0.29650  0.01510  Biso   1.000  H
  H195     1.0000 0.20190  0.79650  0.98490  Biso   1.000  H
  H196     1.0000 0.79810  0.79650  0.01510  Biso   1.000  H
  H197     1.0000 0.70530  0.22180  0.93830  Biso   1.000  H
  H198     1.0000 0.29470  0.22180  0.06170  Biso   1.000  H
  H199     1.0000 0.20530  0.72180  0.93830  Biso   1.000  H
  H200     1.0000 0.79470  0.72180  0.06170  Biso   1.000  H
  C229     1.0000 0.68380  0.49290  0.00890  Biso   1.000  C
  C230     1.0000 0.31620  0.49290  0.99110  Biso   1.000  C
  C231     1.0000 0.18380  0.99290  0.00890  Biso   1.000  C
  C232     1.0000 0.81620  0.99290  0.99110  Biso   1.000  C
  H201     1.0000 0.70830  0.49310  0.05940  Biso   1.000  H
  H202     1.0000 0.29170  0.49310  0.94060  Biso   1.000  H
  H203     1.0000 0.20830  0.99310  0.05940  Biso   1.000  H
  H204     1.0000 0.79170  0.99310  0.94060  Biso   1.000  H
  H205     1.0000 0.66390  0.44370  0.99930  Biso   1.000  H
  H206     1.0000 0.33610  0.44370  0.00070  Biso   1.000  H
  H207     1.0000 0.16390  0.94370  0.99930  Biso   1.000  H
  H208     1.0000 0.83610  0.94370  0.00070  Biso   1.000  H
  H209     1.0000 0.66420  0.54240  0.99880  Biso   1.000  H
  H210     1.0000 0.33580  0.54240  0.00120  Biso   1.000  H
  H211     1.0000 0.16420  0.04240  0.99880  Biso   1.000  H
  H212     1.0000 0.83580  0.04240  0.00120  Biso   1.000  H
  C233     1.0000 0.70630  0.49200  0.96320  Biso   1.000  C
  C234     1.0000 0.29370  0.49200  0.03680  Biso   1.000  C
  C235     1.0000 0.20630  0.99200  0.96320  Biso   1.000  C
  C236     1.0000 0.79370  0.99200  0.03680  Biso   1.000  C
  H213     1.0000 0.72650  0.54140  0.97270  Biso   1.000  H
  H214     1.0000 0.27350  0.54140  0.02730  Biso   1.000  H
  H215     1.0000 0.22650  0.04140  0.97270  Biso   1.000  H
  H216     1.0000 0.77350  0.04140  0.02730  Biso   1.000  H
  H217     1.0000 0.72660  0.44250  0.97370  Biso   1.000  H
  H218     1.0000 0.27340  0.44250  0.02630  Biso   1.000  H
  H219     1.0000 0.22660  0.94250  0.97370  Biso   1.000  H
  H220     1.0000 0.77340  0.94250  0.02630  Biso   1.000  H
  C237     1.0000 0.65020  0.44470  0.77410  Biso   1.000  C
  C238     1.0000 0.34980  0.44470  0.22590  Biso   1.000  C
  C239     1.0000 0.15020  0.94470  0.77410  Biso   1.000  C
  C240     1.0000 0.84980  0.94470  0.22590  Biso   1.000  C
  C241     1.0000 0.68360  0.47680  0.83780  Biso   1.000  C
  C242     1.0000 0.31640  0.47680  0.16220  Biso   1.000  C
  C243     1.0000 0.18360  0.97680  0.83780  Biso   1.000  C
  C244     1.0000 0.81640  0.97680  0.16220  Biso   1.000  C
  C245     1.0000 0.72960  0.49660  0.85000  Biso   1.000  C
  C246     1.0000 0.27040  0.49660  0.15000  Biso   1.000  C
  C247     1.0000 0.22960  0.99660  0.85000  Biso   1.000  C
  C248     1.0000 0.77040  0.99660  0.15000  Biso   1.000  C
  H221     1.0000 0.75290  0.51490  0.89610  Biso   1.000  H
  H222     1.0000 0.24710  0.51490  0.10390  Biso   1.000  H
  H223     1.0000 0.25290  0.01490  0.89610  Biso   1.000  H
  H224     1.0000 0.74710  0.01490  0.10390  Biso   1.000  H
  C249     1.0000 0.74050  0.48950  0.79610  Biso   1.000  C
  C250     1.0000 0.25950  0.48950  0.20390  Biso   1.000  C
  C251     1.0000 0.24050  0.98950  0.79610  Biso   1.000  C
  C252     1.0000 0.75950  0.98950  0.20390  Biso   1.000  C
  H225     1.0000 0.77120  0.50480  0.80440  Biso   1.000  H
  H226     1.0000 0.22880  0.50480  0.19560  Biso   1.000  H
  H227     1.0000 0.27120  0.00480  0.80440  Biso   1.000  H
  H228     1.0000 0.72880  0.00480  0.19560  Biso   1.000  H
  C253     1.0000 0.70740  0.46010  0.72770  Biso   1.000  C
  C254     1.0000 0.29260  0.46010  0.27230  Biso   1.000  C
  C255     1.0000 0.20740  0.96010  0.72770  Biso   1.000  C
  C256     1.0000 0.79260  0.96010  0.27230  Biso   1.000  C
  C257     1.0000 0.71830  0.45110  0.67110  Biso   1.000  C
  C258     1.0000 0.28170  0.45110  0.32890  Biso   1.000  C
  C259     1.0000 0.21830  0.95110  0.67110  Biso   1.000  C
  C260     1.0000 0.78170  0.95110  0.32890  Biso   1.000  C
  H229     1.0000 0.74890  0.46680  0.67870  Biso   1.000  H
  H230     1.0000 0.25110  0.46680  0.32130  Biso   1.000  H
  H231     1.0000 0.24890  0.96680  0.67870  Biso   1.000  H
  H232     1.0000 0.75110  0.96680  0.32130  Biso   1.000  H
  C261     1.0000 0.68620  0.42040  0.60510  Biso   1.000  C
  C262     1.0000 0.31380  0.42040  0.39490  Biso   1.000  C
  C263     1.0000 0.18620  0.92040  0.60510  Biso   1.000  C
  C264     1.0000 0.81380  0.92040  0.39490  Biso   1.000  C
  C265     1.0000 0.64260  0.39280  0.59720  Biso   1.000  C
  C266     1.0000 0.35740  0.39280  0.40280  Biso   1.000  C
  C267     1.0000 0.14260  0.89280  0.59720  Biso   1.000  C
  C268     1.0000 0.85740  0.89280  0.40280  Biso   1.000  C
  H233     1.0000 0.62080  0.36820  0.55290  Biso   1.000  H
  H234     1.0000 0.37920  0.36820  0.44710  Biso   1.000  H
  H235     1.0000 0.12080  0.86820  0.55290  Biso   1.000  H
  H236     1.0000 0.87920  0.86820  0.44710  Biso   1.000  H
  C269     1.0000 0.63000  0.39940  0.64960  Biso   1.000  C
  C270     1.0000 0.37000  0.39940  0.35040  Biso   1.000  C
  C271     1.0000 0.13000  0.89940  0.64960  Biso   1.000  C
  C272     1.0000 0.87000  0.89940  0.35040  Biso   1.000  C
  H237     1.0000 0.59980  0.38060  0.64110  Biso   1.000  H
  H238     1.0000 0.40020  0.38060  0.35890  Biso   1.000  H
  H239     1.0000 0.09980  0.88060  0.64110  Biso   1.000  H
  H240     1.0000 0.90020  0.88060  0.35890  Biso   1.000  H
  C273     1.0000 0.66170  0.43420  0.71710  Biso   1.000  C
  C274     1.0000 0.33830  0.43420  0.28290  Biso   1.000  C
  C275     1.0000 0.16170  0.93420  0.71710  Biso   1.000  C
  C276     1.0000 0.83830  0.93420  0.28290  Biso   1.000  C
  C277     1.0000 0.70020  0.41290  0.54900  Biso   1.000  C
  C278     1.0000 0.29980  0.41290  0.45100  Biso   1.000  C
  C279     1.0000 0.20020  0.91290  0.54900  Biso   1.000  C
  C280     1.0000 0.79980  0.91290  0.45100  Biso   1.000  C
  H241     1.0000 0.73030  0.43440  0.55950  Biso   1.000  H
  H242     1.0000 0.26970  0.43440  0.44050  Biso   1.000  H
  H243     1.0000 0.23030  0.93440  0.55950  Biso   1.000  H
  H244     1.0000 0.76970  0.93440  0.44050  Biso   1.000  H
  C281     1.0000 0.67460  0.37870  0.48460  Biso   1.000  C
  C282     1.0000 0.32540  0.37870  0.51540  Biso   1.000  C
  C283     1.0000 0.17460  0.87870  0.48460  Biso   1.000  C
  C284     1.0000 0.82540  0.87870  0.51540  Biso   1.000  C
  H245     1.0000 0.64290  0.36380  0.47110  Biso   1.000  H
  H246     1.0000 0.35710  0.36380  0.52890  Biso   1.000  H
  H247     1.0000 0.14290  0.86380  0.47110  Biso   1.000  H
  H248     1.0000 0.85710  0.86380  0.52890  Biso   1.000  H
  C285     1.0000 0.68120  0.29870  0.32440  Biso   1.000  C
  C286     1.0000 0.31880  0.29870  0.67560  Biso   1.000  C
  C287     1.0000 0.18120  0.79870  0.32440  Biso   1.000  C
  C288     1.0000 0.81880  0.79870  0.67560  Biso   1.000  C
  H249     1.0000 0.66140  0.26870  0.28200  Biso   1.000  H
  H250     1.0000 0.33860  0.26870  0.71800  Biso   1.000  H
  H251     1.0000 0.16140  0.76870  0.28200  Biso   1.000  H
  H252     1.0000 0.83860  0.76870  0.71800  Biso   1.000  H
  C289     1.0000 0.66430  0.31570  0.37110  Biso   1.000  C
  C290     1.0000 0.33570  0.31570  0.62890  Biso   1.000  C
  C291     1.0000 0.16430  0.81570  0.37110  Biso   1.000  C
  C292     1.0000 0.83570  0.81570  0.62890  Biso   1.000  C
  H253     1.0000 0.63410  0.29590  0.36180  Biso   1.000  H
  H254     1.0000 0.36590  0.29590  0.63820  Biso   1.000  H
  H255     1.0000 0.13410  0.79590  0.36180  Biso   1.000  H
  H256     1.0000 0.86590  0.79590  0.63820  Biso   1.000  H
  C293     1.0000 0.69190  0.36260  0.43320  Biso   1.000  C
  C294     1.0000 0.30810  0.36260  0.56680  Biso   1.000  C
  C295     1.0000 0.19190  0.86260  0.43320  Biso   1.000  C
  C296     1.0000 0.80810  0.86260  0.56680  Biso   1.000  C
  C297     1.0000 0.73560  0.38940  0.44250  Biso   1.000  C
  C298     1.0000 0.26440  0.38940  0.55750  Biso   1.000  C
  C299     1.0000 0.23560  0.88940  0.44250  Biso   1.000  C
  C300     1.0000 0.76440  0.88940  0.55750  Biso   1.000  C
  H257     1.0000 0.75520  0.42270  0.48270  Biso   1.000  H
  H258     1.0000 0.24480  0.42270  0.51730  Biso   1.000  H
  H259     1.0000 0.25520  0.92270  0.48270  Biso   1.000  H
  H260     1.0000 0.74480  0.92270  0.51730  Biso   1.000  H
  C301     1.0000 0.75060  0.36770  0.39330  Biso   1.000  C
  C302     1.0000 0.24940  0.36770  0.60670  Biso   1.000  C
  C303     1.0000 0.25060  0.86770  0.39330  Biso   1.000  C
  C304     1.0000 0.74940  0.86770  0.60670  Biso   1.000  C
  H261     1.0000 0.78080  0.38590  0.40120  Biso   1.000  H
  H262     1.0000 0.21920  0.38590  0.59880  Biso   1.000  H
  H263     1.0000 0.28080  0.88590  0.40120  Biso   1.000  H
  H264     1.0000 0.71920  0.88590  0.59880  Biso   1.000  H
  O21      1.0000 0.29385  0.93180  0.30060  Biso   1.000  O
  O22      1.0000 0.70615  0.93180  0.69940  Biso   1.000  O
  O23      1.0000 0.79385  0.43180  0.30060  Biso   1.000  O
  O24      1.0000 0.20615  0.43180  0.69940  Biso   1.000  O
  O25      1.0000 0.75100  0.56900  0.28810  Biso   1.000  O
  O26      1.0000 0.24900  0.56900  0.71190  Biso   1.000  O
  O27      1.0000 0.25100  0.06900  0.28810  Biso   1.000  O
  O28      1.0000 0.74900  0.06900  0.71190  Biso   1.000  O
  O29      1.0000 0.14590  0.61030  0.07500  Biso   1.000  O
  O30      1.0000 0.85410  0.61030  0.92500  Biso   1.000  O
  O31      1.0000 0.64590  0.11030  0.07500  Biso   1.000  O
  O32      1.0000 0.35410  0.11030  0.92500  Biso   1.000  O
  O33      1.0000 0.50000  0.35900  0.50000  Biso   1.000  O
  O34      1.0000 0.00000  0.85900  0.50000  Biso   1.000  O
  O35      1.0000 0.50000  0.80600  0.50000  Biso   1.000  O
  O36      1.0000 0.00000  0.30600  0.50000  Biso   1.000  O
  O37      1.0000 0.56360  0.18370  0.31580  Biso   1.000  O
  O38      1.0000 0.43640  0.18370  0.68420  Biso   1.000  O
  O39      1.0000 0.06360  0.68370  0.31580  Biso   1.000  O
  O40      1.0000 0.93640  0.68370  0.68420  Biso   1.000  O
  O41      1.0000 0.38630  0.94270  0.31080  Biso   1.000  O
  O42      1.0000 0.61370  0.94270  0.68920  Biso   1.000  O
  O43      1.0000 0.88630  0.44270  0.31080  Biso   1.000  O
  O44      1.0000 0.11370  0.44270  0.68920  Biso   1.000  O
  O45      1.0000 0.58300  0.24470  0.44410  Biso   1.000  O
  O46      1.0000 0.41700  0.24470  0.55590  Biso   1.000  O
  O47      1.0000 0.08300  0.74470  0.44410  Biso   1.000  O
  O48      1.0000 0.91700  0.74470  0.55590  Biso   1.000  O
  O49      1.0000 0.48210  0.10700  0.22640  Biso   1.000  O
  O50      1.0000 0.51790  0.10700  0.77360  Biso   1.000  O
  O51      1.0000 0.98210  0.60700  0.22640  Biso   1.000  O
  O52      1.0000 0.01790  0.60700  0.77360  Biso   1.000  O
  N17      1.0000 0.82330  0.57750  0.63740  Biso   1.000  N
  N18      1.0000 0.17670  0.57750  0.36260  Biso   1.000  N
  N19      1.0000 0.32330  0.07750  0.63740  Biso   1.000  N
  N20      1.0000 0.67670  0.07750  0.36260  Biso   1.000  N
  O53      1.0000 0.78230  0.56840  0.61090  Biso   1.000  O
  O54      1.0000 0.21770  0.56840  0.38910  Biso   1.000  O
  O55      1.0000 0.28230  0.06840  0.61090  Biso   1.000  O
  O56      1.0000 0.71770  0.06840  0.38910  Biso   1.000  O
  O57      1.0000 0.85020  0.57400  0.61370  Biso   1.000  O
  O58      1.0000 0.14980  0.57400  0.38630  Biso   1.000  O
  O59      1.0000 0.35020  0.07400  0.61370  Biso   1.000  O
  O60      1.0000 0.64980  0.07400  0.38630  Biso   1.000  O
  O61      1.0000 0.84330  0.60370  0.69940  Biso   1.000  O
  O62      1.0000 0.15670  0.60370  0.30060  Biso   1.000  O
  O63      1.0000 0.34330  0.10370  0.69940  Biso   1.000  O
  O64      1.0000 0.65670  0.10370  0.30060  Biso   1.000  O
  N21      1.0000 0.16680  0.53330  0.94040  Biso   1.000  N
  N22      1.0000 0.83320  0.53330  0.05960  Biso   1.000  N
  N23      1.0000 0.66680  0.03330  0.94040  Biso   1.000  N
  N24      1.0000 0.33320  0.03330  0.05960  Biso   1.000  N
  O65      1.0000 0.17530  0.53130  0.99640  Biso   1.000  O
  O66      1.0000 0.82470  0.53130  0.00360  Biso   1.000  O
  O67      1.0000 0.67530  0.03130  0.99640  Biso   1.000  O
  O68      1.0000 0.32470  0.03130  0.00360  Biso   1.000  O
  O69      1.0000 0.11680  0.54600  0.90310  Biso   1.000  O
  O70      1.0000 0.88320  0.54600  0.09690  Biso   1.000  O
  O71      1.0000 0.61680  0.04600  0.90310  Biso   1.000  O
  O72      1.0000 0.38320  0.04600  0.09690  Biso   1.000  O
  O73      1.0000 0.17500  0.54040  0.89350  Biso   1.000  O
  O74      1.0000 0.82500  0.54040  0.10650  Biso   1.000  O
  O75      1.0000 0.67500  0.04040  0.89350  Biso   1.000  O
  O76      1.0000 0.32500  0.04040  0.10650  Biso   1.000  O
  O77      1.0000 0.06250  0.30920  0.69640  Biso   1.000  O
  O78      1.0000 0.93750  0.30920  0.30360  Biso   1.000  O
  O79      1.0000 0.56250  0.80920  0.69640  Biso   1.000  O
  O80      1.0000 0.43750  0.80920  0.30360  Biso   1.000  O
  N25      1.0000 0.04280  0.21130  0.75080  Biso   1.000  N
  N26      1.0000 0.95720  0.21130  0.24920  Biso   1.000  N
  N27      1.0000 0.54280  0.71130  0.75080  Biso   1.000  N
  N28      1.0000 0.45720  0.71130  0.24920  Biso   1.000  N
  C305     1.0000 0.99190  0.21760  0.71340  Biso   1.000  C
  C306     1.0000 0.00810  0.21760  0.28660  Biso   1.000  C
  C307     1.0000 0.49190  0.71760  0.71340  Biso   1.000  C
  C308     1.0000 0.50810  0.71760  0.28660  Biso   1.000  C
  H265     1.0000 0.98230  0.26020  0.67630  Biso   1.000  H
  H266     1.0000 0.01770  0.26020  0.32370  Biso   1.000  H
  H267     1.0000 0.48230  0.76020  0.67630  Biso   1.000  H
  H268     1.0000 0.51770  0.76020  0.32370  Biso   1.000  H
  H269     1.0000 0.98070  0.23230  0.74750  Biso   1.000  H
  H270     1.0000 0.01930  0.23230  0.25250  Biso   1.000  H
  H271     1.0000 0.48070  0.73230  0.74750  Biso   1.000  H
  H272     1.0000 0.51930  0.73230  0.25250  Biso   1.000  H
  H273     1.0000 0.97830  0.16450  0.69100  Biso   1.000  H
  H274     1.0000 0.02170  0.16450  0.30900  Biso   1.000  H
  H275     1.0000 0.47830  0.66450  0.69100  Biso   1.000  H
  H276     1.0000 0.52170  0.66450  0.30900  Biso   1.000  H
  C309     1.0000 0.06290  0.15240  0.80620  Biso   1.000  C
  C310     1.0000 0.93710  0.15240  0.19380  Biso   1.000  C
  C311     1.0000 0.56290  0.65240  0.80620  Biso   1.000  C
  C312     1.0000 0.43710  0.65240  0.19380  Biso   1.000  C
  H277     1.0000 0.09750  0.15350  0.82700  Biso   1.000  H
  H278     1.0000 0.90250  0.15350  0.17300  Biso   1.000  H
  H279     1.0000 0.59750  0.65350  0.82700  Biso   1.000  H
  H280     1.0000 0.40250  0.65350  0.17300  Biso   1.000  H
  H281     1.0000 0.05110  0.09740  0.78660  Biso   1.000  H
  H282     1.0000 0.94890  0.09740  0.21340  Biso   1.000  H
  H283     1.0000 0.55110  0.59740  0.78660  Biso   1.000  H
  H284     1.0000 0.44890  0.59740  0.21340  Biso   1.000  H
  H285     1.0000 0.05420  0.16530  0.84340  Biso   1.000  H
  H286     1.0000 0.94580  0.16530  0.15660  Biso   1.000  H
  H287     1.0000 0.55420  0.66530  0.84340  Biso   1.000  H
  H288     1.0000 0.44580  0.66530  0.15660  Biso   1.000  H
  C313     1.0000 0.07540  0.25540  0.73940  Biso   1.000  C
  C314     1.0000 0.92460  0.25540  0.26060  Biso   1.000  C
  C315     1.0000 0.57540  0.75540  0.73940  Biso   1.000  C
  C316     1.0000 0.42460  0.75540  0.26060  Biso   1.000  C
  H289     1.0000 0.10820  0.24260  0.76610  Biso   1.000  H
  H290     1.0000 0.89180  0.24260  0.23390  Biso   1.000  H
  H291     1.0000 0.60820  0.74260  0.76610  Biso   1.000  H
  H292     1.0000 0.39180  0.74260  0.23390  Biso   1.000  H
  O81      1.0000 0.56240  0.20800  0.98100  Biso   1.000  O
  O82      1.0000 0.43760  0.20800  0.01900  Biso   1.000  O
  O83      1.0000 0.06240  0.70800  0.98100  Biso   1.000  O
  O84      1.0000 0.93760  0.70800  0.01900  Biso   1.000  O
  N29      1.0000 0.47920  0.18360  0.89210  Biso   1.000  N
  N30      1.0000 0.52080  0.18360  0.10790  Biso   1.000  N
  N31      1.0000 0.97920  0.68360  0.89210  Biso   1.000  N
  N32      1.0000 0.02080  0.68360  0.10790  Biso   1.000  N
  C317     1.0000 0.52810  0.16400  0.93790  Biso   1.000  C
  C318     1.0000 0.47190  0.16400  0.06210  Biso   1.000  C
  C319     1.0000 0.02810  0.66400  0.93790  Biso   1.000  C
  C320     1.0000 0.97190  0.66400  0.06210  Biso   1.000  C
  C321     1.0000 0.47940  0.26800  0.90100  Biso   1.000  C
  C322     1.0000 0.52060  0.26800  0.09900  Biso   1.000  C
  C323     1.0000 0.97940  0.76800  0.90100  Biso   1.000  C
  C324     1.0000 0.02060  0.76800  0.09900  Biso   1.000  C
  H293     1.0000 0.51160  0.28610  0.93430  Biso   1.000  H
  H294     1.0000 0.48840  0.28610  0.06570  Biso   1.000  H
  H295     1.0000 0.01160  0.78610  0.93430  Biso   1.000  H
  H296     1.0000 0.98840  0.78610  0.06570  Biso   1.000  H
  H297     1.0000 0.45810  0.28200  0.92040  Biso   1.000  H
  H298     1.0000 0.54190  0.28200  0.07960  Biso   1.000  H
  H299     1.0000 0.95810  0.78200  0.92040  Biso   1.000  H
  H300     1.0000 0.04190  0.78200  0.07960  Biso   1.000  H
  H301     1.0000 0.46860  0.29500  0.85450  Biso   1.000  H
  H302     1.0000 0.53140  0.29500  0.14550  Biso   1.000  H
  H303     1.0000 0.96860  0.79500  0.85450  Biso   1.000  H
  H304     1.0000 0.03140  0.79500  0.14550  Biso   1.000  H
  C325     1.0000 0.45800  0.09690  0.86430  Biso   1.000  C
  C326     1.0000 0.54200  0.09690  0.13570  Biso   1.000  C
  C327     1.0000 0.95800  0.59690  0.86430  Biso   1.000  C
  C328     1.0000 0.04200  0.59690  0.13570  Biso   1.000  C
  H305     1.0000 0.48260  0.05490  0.88770  Biso   1.000  H
  H306     1.0000 0.51740  0.05490  0.11230  Biso   1.000  H
  H307     1.0000 0.98260  0.55490  0.88770  Biso   1.000  H
  H308     1.0000 0.01740  0.55490  0.11230  Biso   1.000  H
  H309     1.0000 0.44580  0.09430  0.81230  Biso   1.000  H
  H310     1.0000 0.55420  0.09430  0.18770  Biso   1.000  H
  H311     1.0000 0.94580  0.59430  0.81230  Biso   1.000  H
  H312     1.0000 0.05420  0.59430  0.18770  Biso   1.000  H
  H313     1.0000 0.43210  0.08660  0.87530  Biso   1.000  H
  H314     1.0000 0.56790  0.08660  0.12470  Biso   1.000  H
  H315     1.0000 0.93210  0.58660  0.87530  Biso   1.000  H
  H316     1.0000 0.06790  0.58660  0.12470  Biso   1.000  H
  O85      1.0000 0.76520  0.69080  0.22170  Biso   1.000  O
  O86      1.0000 0.23480  0.69080  0.77830  Biso   1.000  O
  O87      1.0000 0.26520  0.19080  0.22170  Biso   1.000  O
  O88      1.0000 0.73480  0.19080  0.77830  Biso   1.000  O
  C329     1.0000 0.77090  0.75950  0.18790  Biso   1.000  C
  C330     1.0000 0.22910  0.75950  0.81210  Biso   1.000  C
  C331     1.0000 0.27090  0.25950  0.18790  Biso   1.000  C
  C332     1.0000 0.72910  0.25950  0.81210  Biso   1.000  C
  O89      1.0000 0.02040  0.38320  0.99370  Biso   1.000  O
  O90      1.0000 0.97960  0.38320  0.00630  Biso   1.000  O
  O91      1.0000 0.52040  0.88320  0.99370  Biso   1.000  O
  O92      1.0000 0.47960  0.88320  0.00630  Biso   1.000  O
  C333     1.0000 0.00200  0.38370  0.92350  Biso   1.000  C
  C334     1.0000 0.99800  0.38370  0.07650  Biso   1.000  C
  C335     1.0000 0.50200  0.88370  0.92350  Biso   1.000  C
  C336     1.0000 0.49800  0.88370  0.07650  Biso   1.000  C
