data_image0
_cell_length_a       18.7055
_cell_length_b       39.8841
_cell_length_c       27.8207
_cell_angle_alpha    90
_cell_angle_beta     90
_cell_angle_gamma    90

_symmetry_space_group_name_H-M    "P 1"
_symmetry_int_tables_number       1

loop_
  _symmetry_equiv_pos_as_xyz
  'x, y, z'

loop_
  _atom_site_label
  _atom_site_occupancy
  _atom_site_fract_x
  _atom_site_fract_y
  _atom_site_fract_z
  _atom_site_thermal_displace_type
  _atom_site_B_iso_or_equiv
  _atom_site_type_symbol
  C1       1.0000 0.09452  0.35802  0.06456  Biso   1.000  C
  C2       1.0000 0.90548  0.64198  0.06456  Biso   1.000  C
  C3       1.0000 0.09452  0.64198  0.93544  Biso   1.000  C
  C4       1.0000 0.90548  0.35802  0.93544  Biso   1.000  C
  C5       1.0000 0.59452  0.85802  0.56456  Biso   1.000  C
  C6       1.0000 0.40548  0.14198  0.56456  Biso   1.000  C
  C7       1.0000 0.59452  0.14198  0.43544  Biso   1.000  C
  C8       1.0000 0.40548  0.85802  0.43544  Biso   1.000  C
  C9       1.0000 0.90548  0.64198  0.93544  Biso   1.000  C
  C10      1.0000 0.09452  0.35802  0.93544  Biso   1.000  C
  C11      1.0000 0.90548  0.35802  0.06456  Biso   1.000  C
  C12      1.0000 0.09452  0.64198  0.06456  Biso   1.000  C
  C13      1.0000 0.40548  0.14198  0.43544  Biso   1.000  C
  C14      1.0000 0.59452  0.85802  0.43544  Biso   1.000  C
  C15      1.0000 0.40548  0.85802  0.56456  Biso   1.000  C
  C16      1.0000 0.59452  0.14198  0.56456  Biso   1.000  C
  C17      1.0000 0.15600  0.35790  0.10000  Biso   1.000  C
  C18      1.0000 0.84400  0.64210  0.10000  Biso   1.000  C
  C19      1.0000 0.15600  0.64210  0.90000  Biso   1.000  C
  C20      1.0000 0.84400  0.35790  0.90000  Biso   1.000  C
  C21      1.0000 0.65600  0.85790  0.60000  Biso   1.000  C
  C22      1.0000 0.34400  0.14210  0.60000  Biso   1.000  C
  C23      1.0000 0.65600  0.14210  0.40000  Biso   1.000  C
  C24      1.0000 0.34400  0.85790  0.40000  Biso   1.000  C
  C25      1.0000 0.84400  0.64210  0.90000  Biso   1.000  C
  C26      1.0000 0.15600  0.35790  0.90000  Biso   1.000  C
  C27      1.0000 0.84400  0.35790  0.10000  Biso   1.000  C
  C28      1.0000 0.15600  0.64210  0.10000  Biso   1.000  C
  C29      1.0000 0.34400  0.14210  0.40000  Biso   1.000  C
  C30      1.0000 0.65600  0.85790  0.40000  Biso   1.000  C
  C31      1.0000 0.34400  0.85790  0.60000  Biso   1.000  C
  C32      1.0000 0.65600  0.14210  0.60000  Biso   1.000  C
  C33      1.0000 0.17420  0.32800  0.12440  Biso   1.000  C
  C34      1.0000 0.82580  0.67200  0.12440  Biso   1.000  C
  C35      1.0000 0.17420  0.67200  0.87560  Biso   1.000  C
  C36      1.0000 0.82580  0.32800  0.87560  Biso   1.000  C
  C37      1.0000 0.67420  0.82800  0.62440  Biso   1.000  C
  C38      1.0000 0.32580  0.17200  0.62440  Biso   1.000  C
  C39      1.0000 0.67420  0.17200  0.37560  Biso   1.000  C
  C40      1.0000 0.32580  0.82800  0.37560  Biso   1.000  C
  C41      1.0000 0.82580  0.67200  0.87560  Biso   1.000  C
  C42      1.0000 0.17420  0.32800  0.87560  Biso   1.000  C
  C43      1.0000 0.82580  0.32800  0.12440  Biso   1.000  C
  C44      1.0000 0.17420  0.67200  0.12440  Biso   1.000  C
  C45      1.0000 0.32580  0.17200  0.37560  Biso   1.000  C
  C46      1.0000 0.67420  0.82800  0.37560  Biso   1.000  C
  C47      1.0000 0.32580  0.82800  0.62440  Biso   1.000  C
  C48      1.0000 0.67420  0.17200  0.62440  Biso   1.000  C
  H1       1.0000 0.15470  0.30760  0.11480  Biso   1.000  H
  H2       1.0000 0.84530  0.69240  0.11480  Biso   1.000  H
  H3       1.0000 0.15470  0.69240  0.88520  Biso   1.000  H
  H4       1.0000 0.84530  0.30760  0.88520  Biso   1.000  H
  H5       1.0000 0.65470  0.80760  0.61480  Biso   1.000  H
  H6       1.0000 0.34530  0.19240  0.61480  Biso   1.000  H
  H7       1.0000 0.65470  0.19240  0.38520  Biso   1.000  H
  H8       1.0000 0.34530  0.80760  0.38520  Biso   1.000  H
  H9       1.0000 0.84530  0.69240  0.88520  Biso   1.000  H
  H10      1.0000 0.15470  0.30760  0.88520  Biso   1.000  H
  H11      1.0000 0.84530  0.30760  0.11480  Biso   1.000  H
  H12      1.0000 0.15470  0.69240  0.11480  Biso   1.000  H
  H13      1.0000 0.34530  0.19240  0.38520  Biso   1.000  H
  H14      1.0000 0.65470  0.80760  0.38520  Biso   1.000  H
  H15      1.0000 0.34530  0.80760  0.61480  Biso   1.000  H
  H16      1.0000 0.65470  0.19240  0.61480  Biso   1.000  H
  C49      1.0000 0.22080  0.32930  0.16240  Biso   1.000  C
  C50      1.0000 0.77920  0.67070  0.16240  Biso   1.000  C
  C51      1.0000 0.22080  0.67070  0.83760  Biso   1.000  C
  C52      1.0000 0.77920  0.32930  0.83760  Biso   1.000  C
  C53      1.0000 0.72080  0.82930  0.66240  Biso   1.000  C
  C54      1.0000 0.27920  0.17070  0.66240  Biso   1.000  C
  C55      1.0000 0.72080  0.17070  0.33760  Biso   1.000  C
  C56      1.0000 0.27920  0.82930  0.33760  Biso   1.000  C
  C57      1.0000 0.77920  0.67070  0.83760  Biso   1.000  C
  C58      1.0000 0.22080  0.32930  0.83760  Biso   1.000  C
  C59      1.0000 0.77920  0.32930  0.16240  Biso   1.000  C
  C60      1.0000 0.22080  0.67070  0.16240  Biso   1.000  C
  C61      1.0000 0.27920  0.17070  0.33760  Biso   1.000  C
  C62      1.0000 0.72080  0.82930  0.33760  Biso   1.000  C
  C63      1.0000 0.27920  0.82930  0.66240  Biso   1.000  C
  C64      1.0000 0.72080  0.17070  0.66240  Biso   1.000  C
  C65      1.0000 0.25640  0.35960  0.17370  Biso   1.000  C
  C66      1.0000 0.74360  0.64040  0.17370  Biso   1.000  C
  C67      1.0000 0.25640  0.64040  0.82630  Biso   1.000  C
  C68      1.0000 0.74360  0.35960  0.82630  Biso   1.000  C
  C69      1.0000 0.75640  0.85960  0.67370  Biso   1.000  C
  C70      1.0000 0.24360  0.14040  0.67370  Biso   1.000  C
  C71      1.0000 0.75640  0.14040  0.32630  Biso   1.000  C
  C72      1.0000 0.24360  0.85960  0.32630  Biso   1.000  C
  C73      1.0000 0.74360  0.64040  0.82630  Biso   1.000  C
  C74      1.0000 0.25640  0.35960  0.82630  Biso   1.000  C
  C75      1.0000 0.74360  0.35960  0.17370  Biso   1.000  C
  C76      1.0000 0.25640  0.64040  0.17370  Biso   1.000  C
  C77      1.0000 0.24360  0.14040  0.32630  Biso   1.000  C
  C78      1.0000 0.75640  0.85960  0.32630  Biso   1.000  C
  C79      1.0000 0.24360  0.85960  0.67370  Biso   1.000  C
  C80      1.0000 0.75640  0.14040  0.67370  Biso   1.000  C
  H17      1.0000 0.29130  0.36010  0.19760  Biso   1.000  H
  H18      1.0000 0.70870  0.63990  0.19760  Biso   1.000  H
  H19      1.0000 0.29130  0.63990  0.80240  Biso   1.000  H
  H20      1.0000 0.70870  0.36010  0.80240  Biso   1.000  H
  H21      1.0000 0.79130  0.86010  0.69760  Biso   1.000  H
  H22      1.0000 0.20870  0.13990  0.69760  Biso   1.000  H
  H23      1.0000 0.79130  0.13990  0.30240  Biso   1.000  H
  H24      1.0000 0.20870  0.86010  0.30240  Biso   1.000  H
  H25      1.0000 0.70870  0.63990  0.80240  Biso   1.000  H
  H26      1.0000 0.29130  0.36010  0.80240  Biso   1.000  H
  H27      1.0000 0.70870  0.36010  0.19760  Biso   1.000  H
  H28      1.0000 0.29130  0.63990  0.19760  Biso   1.000  H
  H29      1.0000 0.20870  0.13990  0.30240  Biso   1.000  H
  H30      1.0000 0.79130  0.86010  0.30240  Biso   1.000  H
  H31      1.0000 0.20870  0.86010  0.69760  Biso   1.000  H
  H32      1.0000 0.79130  0.13990  0.69760  Biso   1.000  H
  C81      1.0000 0.23840  0.38870  0.14870  Biso   1.000  C
  C82      1.0000 0.76160  0.61130  0.14870  Biso   1.000  C
  C83      1.0000 0.23840  0.61130  0.85130  Biso   1.000  C
  C84      1.0000 0.76160  0.38870  0.85130  Biso   1.000  C
  C85      1.0000 0.73840  0.88870  0.64870  Biso   1.000  C
  C86      1.0000 0.26160  0.11130  0.64870  Biso   1.000  C
  C87      1.0000 0.73840  0.11130  0.35130  Biso   1.000  C
  C88      1.0000 0.26160  0.88870  0.35130  Biso   1.000  C
  C89      1.0000 0.76160  0.61130  0.85130  Biso   1.000  C
  C90      1.0000 0.23840  0.38870  0.85130  Biso   1.000  C
  C91      1.0000 0.76160  0.38870  0.14870  Biso   1.000  C
  C92      1.0000 0.23840  0.61130  0.14870  Biso   1.000  C
  C93      1.0000 0.26160  0.11130  0.35130  Biso   1.000  C
  C94      1.0000 0.73840  0.88870  0.35130  Biso   1.000  C
  C95      1.0000 0.26160  0.88870  0.64870  Biso   1.000  C
  C96      1.0000 0.73840  0.11130  0.64870  Biso   1.000  C
  C97      1.0000 0.19100  0.38760  0.11110  Biso   1.000  C
  C98      1.0000 0.80900  0.61240  0.11110  Biso   1.000  C
  C99      1.0000 0.19100  0.61240  0.88890  Biso   1.000  C
  C100     1.0000 0.80900  0.38760  0.88890  Biso   1.000  C
  C101     1.0000 0.69100  0.88760  0.61110  Biso   1.000  C
  C102     1.0000 0.30900  0.11240  0.61110  Biso   1.000  C
  C103     1.0000 0.69100  0.11240  0.38890  Biso   1.000  C
  C104     1.0000 0.30900  0.88760  0.38890  Biso   1.000  C
  C105     1.0000 0.80900  0.61240  0.88890  Biso   1.000  C
  C106     1.0000 0.19100  0.38760  0.88890  Biso   1.000  C
  C107     1.0000 0.80900  0.38760  0.11110  Biso   1.000  C
  C108     1.0000 0.19100  0.61240  0.11110  Biso   1.000  C
  C109     1.0000 0.30900  0.11240  0.38890  Biso   1.000  C
  C110     1.0000 0.69100  0.88760  0.38890  Biso   1.000  C
  C111     1.0000 0.30900  0.88760  0.61110  Biso   1.000  C
  C112     1.0000 0.69100  0.11240  0.61110  Biso   1.000  C
  H33      1.0000 0.18230  0.40680  0.09310  Biso   1.000  H
  H34      1.0000 0.81770  0.59320  0.09310  Biso   1.000  H
  H35      1.0000 0.18230  0.59320  0.90690  Biso   1.000  H
  H36      1.0000 0.81770  0.40680  0.90690  Biso   1.000  H
  H37      1.0000 0.68230  0.90680  0.59310  Biso   1.000  H
  H38      1.0000 0.31770  0.09320  0.59310  Biso   1.000  H
  H39      1.0000 0.68230  0.09320  0.40690  Biso   1.000  H
  H40      1.0000 0.31770  0.90680  0.40690  Biso   1.000  H
  H41      1.0000 0.81770  0.59320  0.90690  Biso   1.000  H
  H42      1.0000 0.18230  0.40680  0.90690  Biso   1.000  H
  H43      1.0000 0.81770  0.40680  0.09310  Biso   1.000  H
  H44      1.0000 0.18230  0.59320  0.09310  Biso   1.000  H
  H45      1.0000 0.31770  0.09320  0.40690  Biso   1.000  H
  H46      1.0000 0.68230  0.90680  0.40690  Biso   1.000  H
  H47      1.0000 0.31770  0.90680  0.59310  Biso   1.000  H
  H48      1.0000 0.68230  0.09320  0.59310  Biso   1.000  H
  C113     1.0000 0.26440  0.44579  0.15890  Biso   1.000  C
  C114     1.0000 0.73560  0.55421  0.15890  Biso   1.000  C
  C115     1.0000 0.26440  0.55421  0.84110  Biso   1.000  C
  C116     1.0000 0.73560  0.44579  0.84110  Biso   1.000  C
  C117     1.0000 0.76440  0.94579  0.65890  Biso   1.000  C
  C118     1.0000 0.23560  0.05421  0.65890  Biso   1.000  C
  C119     1.0000 0.76440  0.05421  0.34110  Biso   1.000  C
  C120     1.0000 0.23560  0.94579  0.34110  Biso   1.000  C
  C121     1.0000 0.73560  0.55421  0.84110  Biso   1.000  C
  C122     1.0000 0.26440  0.44579  0.84110  Biso   1.000  C
  C123     1.0000 0.73560  0.44579  0.15890  Biso   1.000  C
  C124     1.0000 0.26440  0.55421  0.15890  Biso   1.000  C
  C125     1.0000 0.23560  0.05421  0.34110  Biso   1.000  C
  C126     1.0000 0.76440  0.94579  0.34110  Biso   1.000  C
  C127     1.0000 0.23560  0.94579  0.65890  Biso   1.000  C
  C128     1.0000 0.76440  0.05421  0.65890  Biso   1.000  C
  C129     1.0000 0.31820  0.47066  0.17720  Biso   1.000  C
  C130     1.0000 0.68180  0.52934  0.17720  Biso   1.000  C
  C131     1.0000 0.31820  0.52934  0.82280  Biso   1.000  C
  C132     1.0000 0.68180  0.47066  0.82280  Biso   1.000  C
  C133     1.0000 0.81820  0.97066  0.67720  Biso   1.000  C
  C134     1.0000 0.18180  0.02934  0.67720  Biso   1.000  C
  C135     1.0000 0.81820  0.02934  0.32280  Biso   1.000  C
  C136     1.0000 0.18180  0.97066  0.32280  Biso   1.000  C
  C137     1.0000 0.68180  0.52934  0.82280  Biso   1.000  C
  C138     1.0000 0.31820  0.47066  0.82280  Biso   1.000  C
  C139     1.0000 0.68180  0.47066  0.17720  Biso   1.000  C
  C140     1.0000 0.31820  0.52934  0.17720  Biso   1.000  C
  C141     1.0000 0.18180  0.02934  0.32280  Biso   1.000  C
  C142     1.0000 0.81820  0.97066  0.32280  Biso   1.000  C
  C143     1.0000 0.18180  0.97066  0.67720  Biso   1.000  C
  C144     1.0000 0.81820  0.02934  0.67720  Biso   1.000  C
  C145     1.0000 0.38030  0.46956  0.19840  Biso   1.000  C
  C146     1.0000 0.61970  0.53044  0.19840  Biso   1.000  C
  C147     1.0000 0.38030  0.53044  0.80160  Biso   1.000  C
  C148     1.0000 0.61970  0.46956  0.80160  Biso   1.000  C
  C149     1.0000 0.88030  0.96956  0.69840  Biso   1.000  C
  C150     1.0000 0.11970  0.03044  0.69840  Biso   1.000  C
  C151     1.0000 0.88030  0.03044  0.30160  Biso   1.000  C
  C152     1.0000 0.11970  0.96956  0.30160  Biso   1.000  C
  C153     1.0000 0.61970  0.53044  0.80160  Biso   1.000  C
  C154     1.0000 0.38030  0.46956  0.80160  Biso   1.000  C
  C155     1.0000 0.61970  0.46956  0.19840  Biso   1.000  C
  C156     1.0000 0.38030  0.53044  0.19840  Biso   1.000  C
  C157     1.0000 0.11970  0.03044  0.30160  Biso   1.000  C
  C158     1.0000 0.88030  0.96956  0.30160  Biso   1.000  C
  C159     1.0000 0.11970  0.96956  0.69840  Biso   1.000  C
  C160     1.0000 0.88030  0.03044  0.69840  Biso   1.000  C
  H49      1.0000 0.40160  0.44910  0.20540  Biso   1.000  H
  H50      1.0000 0.59840  0.55090  0.20540  Biso   1.000  H
  H51      1.0000 0.40160  0.55090  0.79460  Biso   1.000  H
  H52      1.0000 0.59840  0.44910  0.79460  Biso   1.000  H
  H53      1.0000 0.90160  0.94910  0.70540  Biso   1.000  H
  H54      1.0000 0.09840  0.05090  0.70540  Biso   1.000  H
  H55      1.0000 0.90160  0.05090  0.29460  Biso   1.000  H
  H56      1.0000 0.09840  0.94910  0.29460  Biso   1.000  H
  H57      1.0000 0.59840  0.55090  0.79460  Biso   1.000  H
  H58      1.0000 0.40160  0.44910  0.79460  Biso   1.000  H
  H59      1.0000 0.59840  0.44910  0.20540  Biso   1.000  H
  H60      1.0000 0.40160  0.55090  0.20540  Biso   1.000  H
  H61      1.0000 0.09840  0.05090  0.29460  Biso   1.000  H
  H62      1.0000 0.90160  0.94910  0.29460  Biso   1.000  H
  H63      1.0000 0.09840  0.94910  0.70540  Biso   1.000  H
  H64      1.0000 0.90160  0.05090  0.70540  Biso   1.000  H
  C161     1.0000 0.41490  0.50000  0.21050  Biso   1.000  C
  C162     1.0000 0.58510  0.50000  0.21050  Biso   1.000  C
  C163     1.0000 0.41490  0.50000  0.78950  Biso   1.000  C
  C164     1.0000 0.58510  0.50000  0.78950  Biso   1.000  C
  C165     1.0000 0.91490  0.00000  0.71050  Biso   1.000  C
  C166     1.0000 0.08510  0.00000  0.71050  Biso   1.000  C
  C167     1.0000 0.91490  0.00000  0.28950  Biso   1.000  C
  C168     1.0000 0.08510  0.00000  0.28950  Biso   1.000  C
  H65      1.0000 0.45890  0.50000  0.22590  Biso   1.000  H
  H66      1.0000 0.54110  0.50000  0.22590  Biso   1.000  H
  H67      1.0000 0.45890  0.50000  0.77410  Biso   1.000  H
  H68      1.0000 0.54110  0.50000  0.77410  Biso   1.000  H
  H69      1.0000 0.95890  0.00000  0.72590  Biso   1.000  H
  H70      1.0000 0.04110  0.00000  0.72590  Biso   1.000  H
  H71      1.0000 0.95890  0.00000  0.27410  Biso   1.000  H
  H72      1.0000 0.04110  0.00000  0.27410  Biso   1.000  H
  C169     1.0000 0.28610  0.50000  0.16680  Biso   1.000  C
  C170     1.0000 0.71390  0.50000  0.16680  Biso   1.000  C
  C171     1.0000 0.28610  0.50000  0.83320  Biso   1.000  C
  C172     1.0000 0.71390  0.50000  0.83320  Biso   1.000  C
  C173     1.0000 0.78610  0.00000  0.66680  Biso   1.000  C
  C174     1.0000 0.21390  0.00000  0.66680  Biso   1.000  C
  C175     1.0000 0.78610  0.00000  0.33320  Biso   1.000  C
  C176     1.0000 0.21390  0.00000  0.33320  Biso   1.000  C
  H73      1.0000 0.24130  0.50000  0.15220  Biso   1.000  H
  H74      1.0000 0.75870  0.50000  0.15220  Biso   1.000  H
  H75      1.0000 0.24130  0.50000  0.84780  Biso   1.000  H
  H76      1.0000 0.75870  0.50000  0.84780  Biso   1.000  H
  H77      1.0000 0.74130  0.00000  0.65220  Biso   1.000  H
  H78      1.0000 0.25870  0.00000  0.65220  Biso   1.000  H
  H79      1.0000 0.74130  0.00000  0.34780  Biso   1.000  H
  H80      1.0000 0.25870  0.00000  0.34780  Biso   1.000  H
  N1       1.0000 0.27660  0.41920  0.15910  Biso   1.000  N
  N2       1.0000 0.72340  0.58080  0.15910  Biso   1.000  N
  N3       1.0000 0.27660  0.58080  0.84090  Biso   1.000  N
  N4       1.0000 0.72340  0.41920  0.84090  Biso   1.000  N
  N5       1.0000 0.77660  0.91920  0.65910  Biso   1.000  N
  N6       1.0000 0.22340  0.08080  0.65910  Biso   1.000  N
  N7       1.0000 0.77660  0.08080  0.34090  Biso   1.000  N
  N8       1.0000 0.22340  0.91920  0.34090  Biso   1.000  N
  N9       1.0000 0.72340  0.58080  0.84090  Biso   1.000  N
  N10      1.0000 0.27660  0.41920  0.84090  Biso   1.000  N
  N11      1.0000 0.72340  0.41920  0.15910  Biso   1.000  N
  N12      1.0000 0.27660  0.58080  0.15910  Biso   1.000  N
  N13      1.0000 0.22340  0.08080  0.34090  Biso   1.000  N
  N14      1.0000 0.77660  0.91920  0.34090  Biso   1.000  N
  N15      1.0000 0.22340  0.91920  0.65910  Biso   1.000  N
  N16      1.0000 0.77660  0.08080  0.65910  Biso   1.000  N
  H81      1.0000 0.32000  0.41540  0.16760  Biso   1.000  H
  H82      1.0000 0.68000  0.58460  0.16760  Biso   1.000  H
  H83      1.0000 0.32000  0.58460  0.83240  Biso   1.000  H
  H84      1.0000 0.68000  0.41540  0.83240  Biso   1.000  H
  H85      1.0000 0.82000  0.91540  0.66760  Biso   1.000  H
  H86      1.0000 0.18000  0.08460  0.66760  Biso   1.000  H
  H87      1.0000 0.82000  0.08460  0.33240  Biso   1.000  H
  H88      1.0000 0.18000  0.91540  0.33240  Biso   1.000  H
  H89      1.0000 0.68000  0.58460  0.83240  Biso   1.000  H
  H90      1.0000 0.32000  0.41540  0.83240  Biso   1.000  H
  H91      1.0000 0.68000  0.41540  0.16760  Biso   1.000  H
  H92      1.0000 0.32000  0.58460  0.16760  Biso   1.000  H
  H93      1.0000 0.18000  0.08460  0.33240  Biso   1.000  H
  H94      1.0000 0.82000  0.91540  0.33240  Biso   1.000  H
  H95      1.0000 0.18000  0.91540  0.66760  Biso   1.000  H
  H96      1.0000 0.82000  0.08460  0.66760  Biso   1.000  H
  O1       1.0000 0.21270  0.45690  0.13290  Biso   1.000  O
  O2       1.0000 0.78730  0.54310  0.13290  Biso   1.000  O
  O3       1.0000 0.21270  0.54310  0.86710  Biso   1.000  O
  O4       1.0000 0.78730  0.45690  0.86710  Biso   1.000  O
  O5       1.0000 0.71270  0.95690  0.63290  Biso   1.000  O
  O6       1.0000 0.28730  0.04310  0.63290  Biso   1.000  O
  O7       1.0000 0.71270  0.04310  0.36710  Biso   1.000  O
  O8       1.0000 0.28730  0.95690  0.36710  Biso   1.000  O
  O9       1.0000 0.78730  0.54310  0.86710  Biso   1.000  O
  O10      1.0000 0.21270  0.45690  0.86710  Biso   1.000  O
  O11      1.0000 0.78730  0.45690  0.13290  Biso   1.000  O
  O12      1.0000 0.21270  0.54310  0.13290  Biso   1.000  O
  O13      1.0000 0.28730  0.04310  0.36710  Biso   1.000  O
  O14      1.0000 0.71270  0.95690  0.36710  Biso   1.000  O
  O15      1.0000 0.28730  0.95690  0.63290  Biso   1.000  O
  O16      1.0000 0.71270  0.04310  0.63290  Biso   1.000  O
  C177     1.0000 0.23104  0.29953  0.19527  Biso   1.000  C
  C178     1.0000 0.76896  0.70047  0.19527  Biso   1.000  C
  C179     1.0000 0.23104  0.70047  0.80473  Biso   1.000  C
  C180     1.0000 0.76896  0.29953  0.80473  Biso   1.000  C
  C181     1.0000 0.73104  0.79953  0.69527  Biso   1.000  C
  C182     1.0000 0.26896  0.20047  0.69527  Biso   1.000  C
  C183     1.0000 0.73104  0.20047  0.30473  Biso   1.000  C
  C184     1.0000 0.26896  0.79953  0.30473  Biso   1.000  C
  C185     1.0000 0.76896  0.70047  0.80473  Biso   1.000  C
  C186     1.0000 0.23104  0.29953  0.80473  Biso   1.000  C
  C187     1.0000 0.76896  0.29953  0.19527  Biso   1.000  C
  C188     1.0000 0.23104  0.70047  0.19527  Biso   1.000  C
  C189     1.0000 0.26896  0.20047  0.30473  Biso   1.000  C
  C190     1.0000 0.73104  0.79953  0.30473  Biso   1.000  C
  C191     1.0000 0.26896  0.79953  0.69527  Biso   1.000  C
  C192     1.0000 0.73104  0.20047  0.69527  Biso   1.000  C
  C193     1.0000 0.36665  0.23439  0.21100  Biso   1.000  C
  C194     1.0000 0.63335  0.76561  0.21100  Biso   1.000  C
  C195     1.0000 0.36665  0.76561  0.78900  Biso   1.000  C
  C196     1.0000 0.63335  0.23439  0.78900  Biso   1.000  C
  C197     1.0000 0.86665  0.73439  0.71100  Biso   1.000  C
  C198     1.0000 0.13335  0.26561  0.71100  Biso   1.000  C
  C199     1.0000 0.86665  0.26561  0.28900  Biso   1.000  C
  C200     1.0000 0.13335  0.73439  0.28900  Biso   1.000  C
  C201     1.0000 0.63335  0.76561  0.78900  Biso   1.000  C
  C202     1.0000 0.36665  0.23439  0.78900  Biso   1.000  C
  C203     1.0000 0.63335  0.23439  0.21100  Biso   1.000  C
  C204     1.0000 0.36665  0.76561  0.21100  Biso   1.000  C
  C205     1.0000 0.13335  0.26561  0.28900  Biso   1.000  C
  C206     1.0000 0.86665  0.73439  0.28900  Biso   1.000  C
  C207     1.0000 0.13335  0.73439  0.71100  Biso   1.000  C
  C208     1.0000 0.86665  0.26561  0.71100  Biso   1.000  C
  C209     1.0000 0.43569  0.22310  0.18940  Biso   1.000  C
  C210     1.0000 0.56431  0.77690  0.18940  Biso   1.000  C
  C211     1.0000 0.43569  0.77690  0.81060  Biso   1.000  C
  C212     1.0000 0.56431  0.22310  0.81060  Biso   1.000  C
  C213     1.0000 0.93569  0.72310  0.68940  Biso   1.000  C
  C214     1.0000 0.06431  0.27690  0.68940  Biso   1.000  C
  C215     1.0000 0.93569  0.27690  0.31060  Biso   1.000  C
  C216     1.0000 0.06431  0.72310  0.31060  Biso   1.000  C
  C217     1.0000 0.56431  0.77690  0.81060  Biso   1.000  C
  C218     1.0000 0.43569  0.22310  0.81060  Biso   1.000  C
  C219     1.0000 0.56431  0.22310  0.18940  Biso   1.000  C
  C220     1.0000 0.43569  0.77690  0.18940  Biso   1.000  C
  C221     1.0000 0.06431  0.27690  0.31060  Biso   1.000  C
  C222     1.0000 0.93569  0.72310  0.31060  Biso   1.000  C
  C223     1.0000 0.06431  0.72310  0.68940  Biso   1.000  C
  C224     1.0000 0.93569  0.27690  0.68940  Biso   1.000  C
  C225     1.0000 0.43543  0.20061  0.15175  Biso   1.000  C
  C226     1.0000 0.56457  0.79939  0.15175  Biso   1.000  C
  C227     1.0000 0.43543  0.79939  0.84825  Biso   1.000  C
  C228     1.0000 0.56457  0.20061  0.84825  Biso   1.000  C
  C229     1.0000 0.93543  0.70061  0.65175  Biso   1.000  C
  C230     1.0000 0.06457  0.29939  0.65175  Biso   1.000  C
  C231     1.0000 0.93543  0.29939  0.34825  Biso   1.000  C
  C232     1.0000 0.06457  0.70061  0.34825  Biso   1.000  C
  C233     1.0000 0.56457  0.79939  0.84825  Biso   1.000  C
  C234     1.0000 0.43543  0.20061  0.84825  Biso   1.000  C
  C235     1.0000 0.56457  0.20061  0.15175  Biso   1.000  C
  C236     1.0000 0.43543  0.79939  0.15175  Biso   1.000  C
  C237     1.0000 0.06457  0.29939  0.34825  Biso   1.000  C
  C238     1.0000 0.93543  0.70061  0.34825  Biso   1.000  C
  C239     1.0000 0.06457  0.70061  0.65175  Biso   1.000  C
  C240     1.0000 0.93543  0.29939  0.65175  Biso   1.000  C
  H97      1.0000 0.39230  0.19320  0.13890  Biso   1.000  H
  H98      1.0000 0.60770  0.80680  0.13890  Biso   1.000  H
  H99      1.0000 0.39230  0.80680  0.86110  Biso   1.000  H
  H100     1.0000 0.60770  0.19320  0.86110  Biso   1.000  H
  H101     1.0000 0.89230  0.69320  0.63890  Biso   1.000  H
  H102     1.0000 0.10770  0.30680  0.63890  Biso   1.000  H
  H103     1.0000 0.89230  0.30680  0.36110  Biso   1.000  H
  H104     1.0000 0.10770  0.69320  0.36110  Biso   1.000  H
  H105     1.0000 0.60770  0.80680  0.86110  Biso   1.000  H
  H106     1.0000 0.39230  0.19320  0.86110  Biso   1.000  H
  H107     1.0000 0.60770  0.19320  0.13890  Biso   1.000  H
  H108     1.0000 0.39230  0.80680  0.13890  Biso   1.000  H
  H109     1.0000 0.10770  0.30680  0.36110  Biso   1.000  H
  H110     1.0000 0.89230  0.69320  0.36110  Biso   1.000  H
  H111     1.0000 0.10770  0.69320  0.63890  Biso   1.000  H
  H112     1.0000 0.89230  0.30680  0.63890  Biso   1.000  H
  C241     1.0000 0.50000  0.18893  0.13297  Biso   1.000  C
  C242     1.0000 0.50000  0.81107  0.13297  Biso   1.000  C
  C243     1.0000 0.50000  0.81107  0.86703  Biso   1.000  C
  C244     1.0000 0.50000  0.18893  0.86703  Biso   1.000  C
  C245     1.0000 0.00000  0.68893  0.63297  Biso   1.000  C
  C246     1.0000 0.00000  0.31107  0.63297  Biso   1.000  C
  C247     1.0000 0.00000  0.31107  0.36703  Biso   1.000  C
  C248     1.0000 0.00000  0.68893  0.36703  Biso   1.000  C
  C249     1.0000 0.50000  0.23448  0.20851  Biso   1.000  C
  C250     1.0000 0.50000  0.76552  0.20851  Biso   1.000  C
  C251     1.0000 0.50000  0.76552  0.79149  Biso   1.000  C
  C252     1.0000 0.50000  0.23448  0.79149  Biso   1.000  C
  C253     1.0000 0.00000  0.73448  0.70851  Biso   1.000  C
  C254     1.0000 0.00000  0.26552  0.70851  Biso   1.000  C
  C255     1.0000 0.00000  0.26552  0.29149  Biso   1.000  C
  C256     1.0000 0.00000  0.73448  0.29149  Biso   1.000  C
  H113     1.0000 0.50000  0.24960  0.23390  Biso   1.000  H
  H114     1.0000 0.50000  0.75040  0.23390  Biso   1.000  H
  H115     1.0000 0.50000  0.75040  0.76610  Biso   1.000  H
  H116     1.0000 0.50000  0.24960  0.76610  Biso   1.000  H
  H117     1.0000 0.00000  0.74960  0.73390  Biso   1.000  H
  H118     1.0000 0.00000  0.25040  0.73390  Biso   1.000  H
  H119     1.0000 0.00000  0.25040  0.26610  Biso   1.000  H
  H120     1.0000 0.00000  0.74960  0.26610  Biso   1.000  H
  Cu1      1.0000 0.00000  0.32504  0.00000  Biso   1.000  Cu
  Cu2      1.0000 0.00000  0.67496  0.00000  Biso   1.000  Cu
  Cu3      1.0000 0.50000  0.82504  0.50000  Biso   1.000  Cu
  Cu4      1.0000 0.50000  0.17496  0.50000  Biso   1.000  Cu
  Cu5      1.0000 0.00000  0.39100  0.00000  Biso   1.000  Cu
  Cu6      1.0000 0.00000  0.60900  0.00000  Biso   1.000  Cu
  Cu7      1.0000 0.50000  0.89100  0.50000  Biso   1.000  Cu
  Cu8      1.0000 0.50000  0.10900  0.50000  Biso   1.000  Cu
  Cu9      1.0000 0.21480  0.23124  0.21899  Biso   1.000  Cu
  Cu10     1.0000 0.78520  0.76876  0.21899  Biso   1.000  Cu
  Cu11     1.0000 0.21480  0.76876  0.78101  Biso   1.000  Cu
  Cu12     1.0000 0.78520  0.23124  0.78101  Biso   1.000  Cu
  Cu13     1.0000 0.71480  0.73124  0.71899  Biso   1.000  Cu
  Cu14     1.0000 0.28520  0.26876  0.71899  Biso   1.000  Cu
  Cu15     1.0000 0.71480  0.26876  0.28101  Biso   1.000  Cu
  Cu16     1.0000 0.28520  0.73124  0.28101  Biso   1.000  Cu
  Cu17     1.0000 0.78520  0.76876  0.78101  Biso   1.000  Cu
  Cu18     1.0000 0.21480  0.23124  0.78101  Biso   1.000  Cu
  Cu19     1.0000 0.78520  0.23124  0.21899  Biso   1.000  Cu
  Cu20     1.0000 0.21480  0.76876  0.21899  Biso   1.000  Cu
  Cu21     1.0000 0.28520  0.26876  0.28101  Biso   1.000  Cu
  Cu22     1.0000 0.71480  0.73124  0.28101  Biso   1.000  Cu
  Cu23     1.0000 0.28520  0.73124  0.71899  Biso   1.000  Cu
  Cu24     1.0000 0.71480  0.26876  0.71899  Biso   1.000  Cu
  N17      1.0000 0.50000  0.16679  0.09310  Biso   1.000  N
  N18      1.0000 0.50000  0.83321  0.09310  Biso   1.000  N
  N19      1.0000 0.50000  0.83321  0.90690  Biso   1.000  N
  N20      1.0000 0.50000  0.16679  0.90690  Biso   1.000  N
  N21      1.0000 0.00000  0.66679  0.59310  Biso   1.000  N
  N22      1.0000 0.00000  0.33321  0.59310  Biso   1.000  N
  N23      1.0000 0.00000  0.33321  0.40690  Biso   1.000  N
  N24      1.0000 0.00000  0.66679  0.40690  Biso   1.000  N
  H121     1.0000 0.52700  0.17210  0.06920  Biso   1.000  H
  H122     1.0000 0.47300  0.82790  0.06920  Biso   1.000  H
  H123     1.0000 0.52700  0.82790  0.93080  Biso   1.000  H
  H124     1.0000 0.47300  0.17210  0.93080  Biso   1.000  H
  H125     1.0000 0.02700  0.67210  0.56920  Biso   1.000  H
  H126     1.0000 0.97300  0.32790  0.56920  Biso   1.000  H
  H127     1.0000 0.02700  0.32790  0.43080  Biso   1.000  H
  H128     1.0000 0.97300  0.67210  0.43080  Biso   1.000  H
  H129     1.0000 0.47300  0.82790  0.93080  Biso   1.000  H
  H130     1.0000 0.52700  0.17210  0.93080  Biso   1.000  H
  H131     1.0000 0.47300  0.17210  0.06920  Biso   1.000  H
  H132     1.0000 0.52700  0.82790  0.06920  Biso   1.000  H
  H133     1.0000 0.97300  0.32790  0.43080  Biso   1.000  H
  H134     1.0000 0.02700  0.67210  0.43080  Biso   1.000  H
  H135     1.0000 0.97300  0.67210  0.56920  Biso   1.000  H
  H136     1.0000 0.02700  0.32790  0.56920  Biso   1.000  H
  O17      1.0000 0.07393  0.32993  0.05011  Biso   1.000  O
  O18      1.0000 0.92607  0.67007  0.05011  Biso   1.000  O
  O19      1.0000 0.07393  0.67007  0.94989  Biso   1.000  O
  O20      1.0000 0.92607  0.32993  0.94989  Biso   1.000  O
  O21      1.0000 0.57393  0.82993  0.55011  Biso   1.000  O
  O22      1.0000 0.42607  0.17007  0.55011  Biso   1.000  O
  O23      1.0000 0.57393  0.17007  0.44989  Biso   1.000  O
  O24      1.0000 0.42607  0.82993  0.44989  Biso   1.000  O
  O25      1.0000 0.92607  0.67007  0.94989  Biso   1.000  O
  O26      1.0000 0.07393  0.32993  0.94989  Biso   1.000  O
  O27      1.0000 0.92607  0.32993  0.05011  Biso   1.000  O
  O28      1.0000 0.07393  0.67007  0.05011  Biso   1.000  O
  O29      1.0000 0.42607  0.17007  0.44989  Biso   1.000  O
  O30      1.0000 0.57393  0.82993  0.44989  Biso   1.000  O
  O31      1.0000 0.42607  0.82993  0.55011  Biso   1.000  O
  O32      1.0000 0.57393  0.17007  0.55011  Biso   1.000  O
  O33      1.0000 0.07380  0.38601  0.04961  Biso   1.000  O
  O34      1.0000 0.92620  0.61399  0.04961  Biso   1.000  O
  O35      1.0000 0.07380  0.61399  0.95039  Biso   1.000  O
  O36      1.0000 0.92620  0.38601  0.95039  Biso   1.000  O
  O37      1.0000 0.57380  0.88601  0.54961  Biso   1.000  O
  O38      1.0000 0.42620  0.11399  0.54961  Biso   1.000  O
  O39      1.0000 0.57380  0.11399  0.45039  Biso   1.000  O
  O40      1.0000 0.42620  0.88601  0.45039  Biso   1.000  O
  O41      1.0000 0.92620  0.61399  0.95039  Biso   1.000  O
  O42      1.0000 0.07380  0.38601  0.95039  Biso   1.000  O
  O43      1.0000 0.92620  0.38601  0.04961  Biso   1.000  O
  O44      1.0000 0.07380  0.61399  0.04961  Biso   1.000  O
  O45      1.0000 0.42620  0.11399  0.45039  Biso   1.000  O
  O46      1.0000 0.57380  0.88601  0.45039  Biso   1.000  O
  O47      1.0000 0.42620  0.88601  0.54961  Biso   1.000  O
  O48      1.0000 0.57380  0.11399  0.54961  Biso   1.000  O
  O49      1.0000 0.20650  0.27216  0.18006  Biso   1.000  O
  O50      1.0000 0.79350  0.72784  0.18006  Biso   1.000  O
  O51      1.0000 0.20650  0.72784  0.81994  Biso   1.000  O
  O52      1.0000 0.79350  0.27216  0.81994  Biso   1.000  O
  O53      1.0000 0.70650  0.77216  0.68006  Biso   1.000  O
  O54      1.0000 0.29350  0.22784  0.68006  Biso   1.000  O
  O55      1.0000 0.70650  0.22784  0.31994  Biso   1.000  O
  O56      1.0000 0.29350  0.77216  0.31994  Biso   1.000  O
  O57      1.0000 0.79350  0.72784  0.81994  Biso   1.000  O
  O58      1.0000 0.20650  0.27216  0.81994  Biso   1.000  O
  O59      1.0000 0.79350  0.27216  0.18006  Biso   1.000  O
  O60      1.0000 0.20650  0.72784  0.18006  Biso   1.000  O
  O61      1.0000 0.29350  0.22784  0.31994  Biso   1.000  O
  O62      1.0000 0.70650  0.77216  0.31994  Biso   1.000  O
  O63      1.0000 0.29350  0.77216  0.68006  Biso   1.000  O
  O64      1.0000 0.70650  0.22784  0.68006  Biso   1.000  O
  O65      1.0000 0.26705  0.30355  0.23234  Biso   1.000  O
  O66      1.0000 0.73295  0.69645  0.23234  Biso   1.000  O
  O67      1.0000 0.26705  0.69645  0.76766  Biso   1.000  O
  O68      1.0000 0.73295  0.30355  0.76766  Biso   1.000  O
  O69      1.0000 0.76705  0.80355  0.73234  Biso   1.000  O
  O70      1.0000 0.23295  0.19645  0.73234  Biso   1.000  O
  O71      1.0000 0.76705  0.19645  0.26766  Biso   1.000  O
  O72      1.0000 0.23295  0.80355  0.26766  Biso   1.000  O
  O73      1.0000 0.73295  0.69645  0.76766  Biso   1.000  O
  O74      1.0000 0.26705  0.30355  0.76766  Biso   1.000  O
  O75      1.0000 0.73295  0.30355  0.23234  Biso   1.000  O
  O76      1.0000 0.26705  0.69645  0.23234  Biso   1.000  O
  O77      1.0000 0.23295  0.19645  0.26766  Biso   1.000  O
  O78      1.0000 0.76705  0.80355  0.26766  Biso   1.000  O
  O79      1.0000 0.23295  0.80355  0.73234  Biso   1.000  O
  O80      1.0000 0.76705  0.19645  0.73234  Biso   1.000  O
  O81      1.0000 0.31029  0.22266  0.19259  Biso   1.000  O
  O82      1.0000 0.68971  0.77734  0.19259  Biso   1.000  O
  O83      1.0000 0.31029  0.77734  0.80741  Biso   1.000  O
  O84      1.0000 0.68971  0.22266  0.80741  Biso   1.000  O
  O85      1.0000 0.81029  0.72266  0.69259  Biso   1.000  O
  O86      1.0000 0.18971  0.27734  0.69259  Biso   1.000  O
  O87      1.0000 0.81029  0.27734  0.30741  Biso   1.000  O
  O88      1.0000 0.18971  0.72266  0.30741  Biso   1.000  O
  O89      1.0000 0.68971  0.77734  0.80741  Biso   1.000  O
  O90      1.0000 0.31029  0.22266  0.80741  Biso   1.000  O
  O91      1.0000 0.68971  0.22266  0.19259  Biso   1.000  O
  O92      1.0000 0.31029  0.77734  0.19259  Biso   1.000  O
  O93      1.0000 0.18971  0.27734  0.30741  Biso   1.000  O
  O94      1.0000 0.81029  0.72266  0.30741  Biso   1.000  O
  O95      1.0000 0.18971  0.72266  0.69259  Biso   1.000  O
  O96      1.0000 0.81029  0.27734  0.69259  Biso   1.000  O
  O97      1.0000 0.37028  0.25442  0.24584  Biso   1.000  O
  O98      1.0000 0.62972  0.74558  0.24584  Biso   1.000  O
  O99      1.0000 0.37028  0.74558  0.75416  Biso   1.000  O
  O100     1.0000 0.62972  0.25442  0.75416  Biso   1.000  O
  O101     1.0000 0.87028  0.75442  0.74584  Biso   1.000  O
  O102     1.0000 0.12972  0.24558  0.74584  Biso   1.000  O
  O103     1.0000 0.87028  0.24558  0.25416  Biso   1.000  O
  O104     1.0000 0.12972  0.75442  0.25416  Biso   1.000  O
  O105     1.0000 0.62972  0.74558  0.75416  Biso   1.000  O
  O106     1.0000 0.37028  0.25442  0.75416  Biso   1.000  O
  O107     1.0000 0.62972  0.25442  0.24584  Biso   1.000  O
  O108     1.0000 0.37028  0.74558  0.24584  Biso   1.000  O
  O109     1.0000 0.12972  0.24558  0.25416  Biso   1.000  O
  O110     1.0000 0.87028  0.75442  0.25416  Biso   1.000  O
  O111     1.0000 0.12972  0.75442  0.74584  Biso   1.000  O
  O112     1.0000 0.87028  0.24558  0.74584  Biso   1.000  O
  O113     1.0000 0.00000  0.27094  0.00000  Biso   1.000  O
  O114     1.0000 0.00000  0.72906  0.00000  Biso   1.000  O
  O115     1.0000 0.50000  0.77094  0.50000  Biso   1.000  O
  O116     1.0000 0.50000  0.22906  0.50000  Biso   1.000  O
  O117     1.0000 0.00000  0.44475  0.00000  Biso   1.000  O
  O118     1.0000 0.00000  0.55525  0.00000  Biso   1.000  O
  O119     1.0000 0.50000  0.94475  0.50000  Biso   1.000  O
  O120     1.0000 0.50000  0.05525  0.50000  Biso   1.000  O
  O121     1.0000 0.16277  0.19769  0.16928  Biso   1.000  O
  O122     1.0000 0.83723  0.80231  0.16928  Biso   1.000  O
  O123     1.0000 0.16277  0.80231  0.83072  Biso   1.000  O
  O124     1.0000 0.83723  0.19769  0.83072  Biso   1.000  O
  O125     1.0000 0.66277  0.69769  0.66928  Biso   1.000  O
  O126     1.0000 0.33723  0.30231  0.66928  Biso   1.000  O
  O127     1.0000 0.66277  0.30231  0.33072  Biso   1.000  O
  O128     1.0000 0.33723  0.69769  0.33072  Biso   1.000  O
  O129     1.0000 0.83723  0.80231  0.83072  Biso   1.000  O
  O130     1.0000 0.16277  0.19769  0.83072  Biso   1.000  O
  O131     1.0000 0.83723  0.19769  0.16928  Biso   1.000  O
  O132     1.0000 0.16277  0.80231  0.16928  Biso   1.000  O
  O133     1.0000 0.33723  0.30231  0.33072  Biso   1.000  O
  O134     1.0000 0.66277  0.69769  0.33072  Biso   1.000  O
  O135     1.0000 0.33723  0.69769  0.66928  Biso   1.000  O
  O136     1.0000 0.66277  0.30231  0.66928  Biso   1.000  O
  H137     1.0000 0.17120  0.20370  0.14170  Biso   1.000  H
  H138     1.0000 0.82880  0.79630  0.14170  Biso   1.000  H
  H139     1.0000 0.17120  0.79630  0.85830  Biso   1.000  H
  H140     1.0000 0.82880  0.20370  0.85830  Biso   1.000  H
  H141     1.0000 0.67120  0.70370  0.64170  Biso   1.000  H
  H142     1.0000 0.32880  0.29630  0.64170  Biso   1.000  H
  H143     1.0000 0.67120  0.29630  0.35830  Biso   1.000  H
  H144     1.0000 0.32880  0.70370  0.35830  Biso   1.000  H
  H145     1.0000 0.82880  0.79630  0.85830  Biso   1.000  H
  H146     1.0000 0.17120  0.20370  0.85830  Biso   1.000  H
  H147     1.0000 0.82880  0.20370  0.14170  Biso   1.000  H
  H148     1.0000 0.17120  0.79630  0.14170  Biso   1.000  H
  H149     1.0000 0.32880  0.29630  0.35830  Biso   1.000  H
  H150     1.0000 0.67120  0.70370  0.35830  Biso   1.000  H
  H151     1.0000 0.32880  0.70370  0.64170  Biso   1.000  H
  H152     1.0000 0.67120  0.29630  0.64170  Biso   1.000  H
  H153     1.0000 0.18770  0.18100  0.16530  Biso   1.000  H
  H154     1.0000 0.81230  0.81900  0.16530  Biso   1.000  H
  H155     1.0000 0.18770  0.81900  0.83470  Biso   1.000  H
  H156     1.0000 0.81230  0.18100  0.83470  Biso   1.000  H
  H157     1.0000 0.68770  0.68100  0.66530  Biso   1.000  H
  H158     1.0000 0.31230  0.31900  0.66530  Biso   1.000  H
  H159     1.0000 0.68770  0.31900  0.33470  Biso   1.000  H
  H160     1.0000 0.31230  0.68100  0.33470  Biso   1.000  H
  H161     1.0000 0.81230  0.81900  0.83470  Biso   1.000  H
  H162     1.0000 0.18770  0.18100  0.83470  Biso   1.000  H
  H163     1.0000 0.81230  0.18100  0.16530  Biso   1.000  H
  H164     1.0000 0.18770  0.81900  0.16530  Biso   1.000  H
  H165     1.0000 0.31230  0.31900  0.33470  Biso   1.000  H
  H166     1.0000 0.68770  0.68100  0.33470  Biso   1.000  H
  H167     1.0000 0.31230  0.68100  0.66530  Biso   1.000  H
  H168     1.0000 0.68770  0.31900  0.66530  Biso   1.000  H
  C257     1.0000 0.50000  0.13835  0.00000  Biso   1.000  C
  C258     1.0000 0.50000  0.86165  0.00000  Biso   1.000  C
  C259     1.0000 0.00000  0.63835  0.50000  Biso   1.000  C
  C260     1.0000 0.00000  0.36165  0.50000  Biso   1.000  C
  H169     1.0000 0.50000  0.16170  0.00000  Biso   1.000  H
  H170     1.0000 0.50000  0.83830  0.00000  Biso   1.000  H
  H171     1.0000 0.00000  0.66170  0.50000  Biso   1.000  H
  H172     1.0000 0.00000  0.33830  0.50000  Biso   1.000  H
  C261     1.0000 0.50000  0.06870  0.00000  Biso   1.000  C
  C262     1.0000 0.50000  0.93130  0.00000  Biso   1.000  C
  C263     1.0000 0.00000  0.56870  0.50000  Biso   1.000  C
  C264     1.0000 0.00000  0.43130  0.50000  Biso   1.000  C
  H173     1.0000 0.50000  0.04530  0.00000  Biso   1.000  H
  H174     1.0000 0.50000  0.95470  0.00000  Biso   1.000  H
  H175     1.0000 0.00000  0.54530  0.50000  Biso   1.000  H
  H176     1.0000 0.00000  0.45470  0.50000  Biso   1.000  H
  C265     1.0000 0.46240  0.13872  0.08910  Biso   1.000  C
  C266     1.0000 0.53760  0.86128  0.08910  Biso   1.000  C
  C267     1.0000 0.46240  0.86128  0.91090  Biso   1.000  C
  C268     1.0000 0.53760  0.13872  0.91090  Biso   1.000  C
  C269     1.0000 0.96240  0.63872  0.58910  Biso   1.000  C
  C270     1.0000 0.03760  0.36128  0.58910  Biso   1.000  C
  C271     1.0000 0.96240  0.36128  0.41090  Biso   1.000  C
  C272     1.0000 0.03760  0.63872  0.41090  Biso   1.000  C
  C273     1.0000 0.53760  0.86128  0.91090  Biso   1.000  C
  C274     1.0000 0.46240  0.13872  0.91090  Biso   1.000  C
  C275     1.0000 0.53760  0.13872  0.08910  Biso   1.000  C
  C276     1.0000 0.46240  0.86128  0.08910  Biso   1.000  C
  C277     1.0000 0.03760  0.36128  0.41090  Biso   1.000  C
  C278     1.0000 0.96240  0.63872  0.41090  Biso   1.000  C
  C279     1.0000 0.03760  0.63872  0.58910  Biso   1.000  C
  C280     1.0000 0.96240  0.36128  0.58910  Biso   1.000  C
  C281     1.0000 0.47170  0.12126  0.04310  Biso   1.000  C
  C282     1.0000 0.52830  0.87874  0.04310  Biso   1.000  C
  C283     1.0000 0.47170  0.87874  0.95690  Biso   1.000  C
  C284     1.0000 0.52830  0.12126  0.95690  Biso   1.000  C
  C285     1.0000 0.97170  0.62126  0.54310  Biso   1.000  C
  C286     1.0000 0.02830  0.37874  0.54310  Biso   1.000  C
  C287     1.0000 0.97170  0.37874  0.45690  Biso   1.000  C
  C288     1.0000 0.02830  0.62126  0.45690  Biso   1.000  C
  C289     1.0000 0.52830  0.87874  0.95690  Biso   1.000  C
  C290     1.0000 0.47170  0.12126  0.95690  Biso   1.000  C
  C291     1.0000 0.52830  0.12126  0.04310  Biso   1.000  C
  C292     1.0000 0.47170  0.87874  0.04310  Biso   1.000  C
  C293     1.0000 0.02830  0.37874  0.45690  Biso   1.000  C
  C294     1.0000 0.97170  0.62126  0.45690  Biso   1.000  C
  C295     1.0000 0.02830  0.62126  0.54310  Biso   1.000  C
  C296     1.0000 0.97170  0.37874  0.54310  Biso   1.000  C
  C297     1.0000 0.46590  0.08649  0.04300  Biso   1.000  C
  C298     1.0000 0.53410  0.91351  0.04300  Biso   1.000  C
  C299     1.0000 0.46590  0.91351  0.95700  Biso   1.000  C
  C300     1.0000 0.53410  0.08649  0.95700  Biso   1.000  C
  C301     1.0000 0.96590  0.58649  0.54300  Biso   1.000  C
  C302     1.0000 0.03410  0.41351  0.54300  Biso   1.000  C
  C303     1.0000 0.96590  0.41351  0.45700  Biso   1.000  C
  C304     1.0000 0.03410  0.58649  0.45700  Biso   1.000  C
  C305     1.0000 0.53410  0.91351  0.95700  Biso   1.000  C
  C306     1.0000 0.46590  0.08649  0.95700  Biso   1.000  C
  C307     1.0000 0.53410  0.08649  0.04300  Biso   1.000  C
  C308     1.0000 0.46590  0.91351  0.04300  Biso   1.000  C
  C309     1.0000 0.03410  0.41351  0.45700  Biso   1.000  C
  C310     1.0000 0.96590  0.58649  0.45700  Biso   1.000  C
  C311     1.0000 0.03410  0.58649  0.54300  Biso   1.000  C
  C312     1.0000 0.96590  0.41351  0.54300  Biso   1.000  C
  H177     1.0000 0.44290  0.07480  0.06750  Biso   1.000  H
  H178     1.0000 0.55710  0.92520  0.06750  Biso   1.000  H
  H179     1.0000 0.44290  0.92520  0.93250  Biso   1.000  H
  H180     1.0000 0.55710  0.07480  0.93250  Biso   1.000  H
  H181     1.0000 0.94290  0.57480  0.56750  Biso   1.000  H
  H182     1.0000 0.05710  0.42520  0.56750  Biso   1.000  H
  H183     1.0000 0.94290  0.42520  0.43250  Biso   1.000  H
  H184     1.0000 0.05710  0.57480  0.43250  Biso   1.000  H
  H185     1.0000 0.55710  0.92520  0.93250  Biso   1.000  H
  H186     1.0000 0.44290  0.07480  0.93250  Biso   1.000  H
  H187     1.0000 0.55710  0.07480  0.06750  Biso   1.000  H
  H188     1.0000 0.44290  0.92520  0.06750  Biso   1.000  H
  H189     1.0000 0.05710  0.42520  0.43250  Biso   1.000  H
  H190     1.0000 0.94290  0.57480  0.43250  Biso   1.000  H
  H191     1.0000 0.05710  0.57480  0.56750  Biso   1.000  H
  H192     1.0000 0.94290  0.42520  0.56750  Biso   1.000  H
  O137     1.0000 0.42060  0.12984  0.11920  Biso   1.000  O
  O138     1.0000 0.57940  0.87016  0.11920  Biso   1.000  O
  O139     1.0000 0.42060  0.87016  0.88080  Biso   1.000  O
  O140     1.0000 0.57940  0.12984  0.88080  Biso   1.000  O
  O141     1.0000 0.92060  0.62984  0.61920  Biso   1.000  O
  O142     1.0000 0.07940  0.37016  0.61920  Biso   1.000  O
  O143     1.0000 0.92060  0.37016  0.38080  Biso   1.000  O
  O144     1.0000 0.07940  0.62984  0.38080  Biso   1.000  O
  O145     1.0000 0.57940  0.87016  0.88080  Biso   1.000  O
  O146     1.0000 0.42060  0.12984  0.88080  Biso   1.000  O
  O147     1.0000 0.57940  0.12984  0.11920  Biso   1.000  O
  O148     1.0000 0.42060  0.87016  0.11920  Biso   1.000  O
  O149     1.0000 0.07940  0.37016  0.38080  Biso   1.000  O
  O150     1.0000 0.92060  0.62984  0.38080  Biso   1.000  O
  O151     1.0000 0.07940  0.62984  0.61920  Biso   1.000  O
  O152     1.0000 0.92060  0.37016  0.61920  Biso   1.000  O
  C313     1.0000 0.14450  0.35900  0.10670  Biso   1.000  C
  C314     1.0000 0.85550  0.64100  0.10670  Biso   1.000  C
  C315     1.0000 0.14450  0.64100  0.89330  Biso   1.000  C
  C316     1.0000 0.85550  0.35900  0.89330  Biso   1.000  C
  C317     1.0000 0.64450  0.85900  0.60670  Biso   1.000  C
  C318     1.0000 0.35550  0.14100  0.60670  Biso   1.000  C
  C319     1.0000 0.64450  0.14100  0.39330  Biso   1.000  C
  C320     1.0000 0.35550  0.85900  0.39330  Biso   1.000  C
  C321     1.0000 0.85550  0.64100  0.89330  Biso   1.000  C
  C322     1.0000 0.14450  0.35900  0.89330  Biso   1.000  C
  C323     1.0000 0.85550  0.35900  0.10670  Biso   1.000  C
  C324     1.0000 0.14450  0.64100  0.10670  Biso   1.000  C
  C325     1.0000 0.35550  0.14100  0.39330  Biso   1.000  C
  C326     1.0000 0.64450  0.85900  0.39330  Biso   1.000  C
  C327     1.0000 0.35550  0.85900  0.60670  Biso   1.000  C
  C328     1.0000 0.64450  0.14100  0.60670  Biso   1.000  C
  C329     1.0000 0.16270  0.32958  0.13070  Biso   1.000  C
  C330     1.0000 0.83730  0.67042  0.13070  Biso   1.000  C
  C331     1.0000 0.16270  0.67042  0.86930  Biso   1.000  C
  C332     1.0000 0.83730  0.32958  0.86930  Biso   1.000  C
  C333     1.0000 0.66270  0.82958  0.63070  Biso   1.000  C
  C334     1.0000 0.33730  0.17042  0.63070  Biso   1.000  C
  C335     1.0000 0.66270  0.17042  0.36930  Biso   1.000  C
  C336     1.0000 0.33730  0.82958  0.36930  Biso   1.000  C
  C337     1.0000 0.83730  0.67042  0.86930  Biso   1.000  C
  C338     1.0000 0.16270  0.32958  0.86930  Biso   1.000  C
  C339     1.0000 0.83730  0.32958  0.13070  Biso   1.000  C
  C340     1.0000 0.16270  0.67042  0.13070  Biso   1.000  C
  C341     1.0000 0.33730  0.17042  0.36930  Biso   1.000  C
  C342     1.0000 0.66270  0.82958  0.36930  Biso   1.000  C
  C343     1.0000 0.33730  0.82958  0.63070  Biso   1.000  C
  C344     1.0000 0.66270  0.17042  0.63070  Biso   1.000  C
  H193     1.0000 0.14310  0.30920  0.12100  Biso   1.000  H
  H194     1.0000 0.85690  0.69080  0.12100  Biso   1.000  H
  H195     1.0000 0.14310  0.69080  0.87900  Biso   1.000  H
  H196     1.0000 0.85690  0.30920  0.87900  Biso   1.000  H
  H197     1.0000 0.64310  0.80920  0.62100  Biso   1.000  H
  H198     1.0000 0.35690  0.19080  0.62100  Biso   1.000  H
  H199     1.0000 0.64310  0.19080  0.37900  Biso   1.000  H
  H200     1.0000 0.35690  0.80920  0.37900  Biso   1.000  H
  H201     1.0000 0.85690  0.69080  0.87900  Biso   1.000  H
  H202     1.0000 0.14310  0.30920  0.87900  Biso   1.000  H
  H203     1.0000 0.85690  0.30920  0.12100  Biso   1.000  H
  H204     1.0000 0.14310  0.69080  0.12100  Biso   1.000  H
  H205     1.0000 0.35690  0.19080  0.37900  Biso   1.000  H
  H206     1.0000 0.64310  0.80920  0.37900  Biso   1.000  H
  H207     1.0000 0.35690  0.80920  0.62100  Biso   1.000  H
  H208     1.0000 0.64310  0.19080  0.62100  Biso   1.000  H
  C345     1.0000 0.21040  0.33061  0.16900  Biso   1.000  C
  C346     1.0000 0.78960  0.66939  0.16900  Biso   1.000  C
  C347     1.0000 0.21040  0.66939  0.83100  Biso   1.000  C
  C348     1.0000 0.78960  0.33061  0.83100  Biso   1.000  C
  C349     1.0000 0.71040  0.83061  0.66900  Biso   1.000  C
  C350     1.0000 0.28960  0.16939  0.66900  Biso   1.000  C
  C351     1.0000 0.71040  0.16939  0.33100  Biso   1.000  C
  C352     1.0000 0.28960  0.83061  0.33100  Biso   1.000  C
  C353     1.0000 0.78960  0.66939  0.83100  Biso   1.000  C
  C354     1.0000 0.21040  0.33061  0.83100  Biso   1.000  C
  C355     1.0000 0.78960  0.33061  0.16900  Biso   1.000  C
  C356     1.0000 0.21040  0.66939  0.16900  Biso   1.000  C
  C357     1.0000 0.28960  0.16939  0.33100  Biso   1.000  C
  C358     1.0000 0.71040  0.83061  0.33100  Biso   1.000  C
  C359     1.0000 0.28960  0.83061  0.66900  Biso   1.000  C
  C360     1.0000 0.71040  0.16939  0.66900  Biso   1.000  C
  C361     1.0000 0.23970  0.36100  0.18340  Biso   1.000  C
  C362     1.0000 0.76030  0.63900  0.18340  Biso   1.000  C
  C363     1.0000 0.23970  0.63900  0.81660  Biso   1.000  C
  C364     1.0000 0.76030  0.36100  0.81660  Biso   1.000  C
  C365     1.0000 0.73970  0.86100  0.68340  Biso   1.000  C
  C366     1.0000 0.26030  0.13900  0.68340  Biso   1.000  C
  C367     1.0000 0.73970  0.13900  0.31660  Biso   1.000  C
  C368     1.0000 0.26030  0.86100  0.31660  Biso   1.000  C
  C369     1.0000 0.76030  0.63900  0.81660  Biso   1.000  C
  C370     1.0000 0.23970  0.36100  0.81660  Biso   1.000  C
  C371     1.0000 0.76030  0.36100  0.18340  Biso   1.000  C
  C372     1.0000 0.23970  0.63900  0.18340  Biso   1.000  C
  C373     1.0000 0.26030  0.13900  0.31660  Biso   1.000  C
  C374     1.0000 0.73970  0.86100  0.31660  Biso   1.000  C
  C375     1.0000 0.26030  0.86100  0.68340  Biso   1.000  C
  C376     1.0000 0.73970  0.13900  0.68340  Biso   1.000  C
  H209     1.0000 0.27160  0.36170  0.20900  Biso   1.000  H
  H210     1.0000 0.72840  0.63830  0.20900  Biso   1.000  H
  H211     1.0000 0.27160  0.63830  0.79100  Biso   1.000  H
  H212     1.0000 0.72840  0.36170  0.79100  Biso   1.000  H
  H213     1.0000 0.77160  0.86170  0.70900  Biso   1.000  H
  H214     1.0000 0.22840  0.13830  0.70900  Biso   1.000  H
  H215     1.0000 0.77160  0.13830  0.29100  Biso   1.000  H
  H216     1.0000 0.22840  0.86170  0.29100  Biso   1.000  H
  H217     1.0000 0.72840  0.63830  0.79100  Biso   1.000  H
  H218     1.0000 0.27160  0.36170  0.79100  Biso   1.000  H
  H219     1.0000 0.72840  0.36170  0.20900  Biso   1.000  H
  H220     1.0000 0.27160  0.63830  0.20900  Biso   1.000  H
  H221     1.0000 0.22840  0.13830  0.29100  Biso   1.000  H
  H222     1.0000 0.77160  0.86170  0.29100  Biso   1.000  H
  H223     1.0000 0.22840  0.86170  0.70900  Biso   1.000  H
  H224     1.0000 0.77160  0.13830  0.70900  Biso   1.000  H
  C377     1.0000 0.22150  0.39038  0.15940  Biso   1.000  C
  C378     1.0000 0.77850  0.60962  0.15940  Biso   1.000  C
  C379     1.0000 0.22150  0.60962  0.84060  Biso   1.000  C
  C380     1.0000 0.77850  0.39038  0.84060  Biso   1.000  C
  C381     1.0000 0.72150  0.89038  0.65940  Biso   1.000  C
  C382     1.0000 0.27850  0.10962  0.65940  Biso   1.000  C
  C383     1.0000 0.72150  0.10962  0.34060  Biso   1.000  C
  C384     1.0000 0.27850  0.89038  0.34060  Biso   1.000  C
  C385     1.0000 0.77850  0.60962  0.84060  Biso   1.000  C
  C386     1.0000 0.22150  0.39038  0.84060  Biso   1.000  C
  C387     1.0000 0.77850  0.39038  0.15940  Biso   1.000  C
  C388     1.0000 0.22150  0.60962  0.15940  Biso   1.000  C
  C389     1.0000 0.27850  0.10962  0.34060  Biso   1.000  C
  C390     1.0000 0.72150  0.89038  0.34060  Biso   1.000  C
  C391     1.0000 0.27850  0.89038  0.65940  Biso   1.000  C
  C392     1.0000 0.72150  0.10962  0.65940  Biso   1.000  C
  C393     1.0000 0.17380  0.38935  0.12110  Biso   1.000  C
  C394     1.0000 0.82620  0.61065  0.12110  Biso   1.000  C
  C395     1.0000 0.17380  0.61065  0.87890  Biso   1.000  C
  C396     1.0000 0.82620  0.38935  0.87890  Biso   1.000  C
  C397     1.0000 0.67380  0.88935  0.62110  Biso   1.000  C
  C398     1.0000 0.32620  0.11065  0.62110  Biso   1.000  C
  C399     1.0000 0.67380  0.11065  0.37890  Biso   1.000  C
  C400     1.0000 0.32620  0.88935  0.37890  Biso   1.000  C
  C401     1.0000 0.82620  0.61065  0.87890  Biso   1.000  C
  C402     1.0000 0.17380  0.38935  0.87890  Biso   1.000  C
  C403     1.0000 0.82620  0.38935  0.12110  Biso   1.000  C
  C404     1.0000 0.17380  0.61065  0.12110  Biso   1.000  C
  C405     1.0000 0.32620  0.11065  0.37890  Biso   1.000  C
  C406     1.0000 0.67380  0.88935  0.37890  Biso   1.000  C
  C407     1.0000 0.32620  0.88935  0.62110  Biso   1.000  C
  C408     1.0000 0.67380  0.11065  0.62110  Biso   1.000  C
  H225     1.0000 0.16160  0.40900  0.10510  Biso   1.000  H
  H226     1.0000 0.83840  0.59100  0.10510  Biso   1.000  H
  H227     1.0000 0.16160  0.59100  0.89490  Biso   1.000  H
  H228     1.0000 0.83840  0.40900  0.89490  Biso   1.000  H
  H229     1.0000 0.66160  0.90900  0.60510  Biso   1.000  H
  H230     1.0000 0.33840  0.09100  0.60510  Biso   1.000  H
  H231     1.0000 0.66160  0.09100  0.39490  Biso   1.000  H
  H232     1.0000 0.33840  0.90900  0.39490  Biso   1.000  H
  H233     1.0000 0.83840  0.59100  0.89490  Biso   1.000  H
  H234     1.0000 0.16160  0.40900  0.89490  Biso   1.000  H
  H235     1.0000 0.83840  0.40900  0.10510  Biso   1.000  H
  H236     1.0000 0.16160  0.59100  0.10510  Biso   1.000  H
  H237     1.0000 0.33840  0.09100  0.39490  Biso   1.000  H
  H238     1.0000 0.66160  0.90900  0.39490  Biso   1.000  H
  H239     1.0000 0.33840  0.90900  0.60510  Biso   1.000  H
  H240     1.0000 0.66160  0.09100  0.60510  Biso   1.000  H
  C409     1.0000 0.29890  0.43277  0.19460  Biso   1.000  C
  C410     1.0000 0.70110  0.56723  0.19460  Biso   1.000  C
  C411     1.0000 0.29890  0.56723  0.80540  Biso   1.000  C
  C412     1.0000 0.70110  0.43277  0.80540  Biso   1.000  C
  C413     1.0000 0.79890  0.93277  0.69460  Biso   1.000  C
  C414     1.0000 0.20110  0.06723  0.69460  Biso   1.000  C
  C415     1.0000 0.79890  0.06723  0.30540  Biso   1.000  C
  C416     1.0000 0.20110  0.93277  0.30540  Biso   1.000  C
  C417     1.0000 0.70110  0.56723  0.80540  Biso   1.000  C
  C418     1.0000 0.29890  0.43277  0.80540  Biso   1.000  C
  C419     1.0000 0.70110  0.43277  0.19460  Biso   1.000  C
  C420     1.0000 0.29890  0.56723  0.19460  Biso   1.000  C
  C421     1.0000 0.20110  0.06723  0.30540  Biso   1.000  C
  C422     1.0000 0.79890  0.93277  0.30540  Biso   1.000  C
  C423     1.0000 0.20110  0.93277  0.69460  Biso   1.000  C
  C424     1.0000 0.79890  0.06723  0.69460  Biso   1.000  C
  C425     1.0000 0.30930  0.47078  0.20130  Biso   1.000  C
  C426     1.0000 0.69070  0.52922  0.20130  Biso   1.000  C
  C427     1.0000 0.30930  0.52922  0.79870  Biso   1.000  C
  C428     1.0000 0.69070  0.47078  0.79870  Biso   1.000  C
  C429     1.0000 0.80930  0.97078  0.70130  Biso   1.000  C
  C430     1.0000 0.19070  0.02922  0.70130  Biso   1.000  C
  C431     1.0000 0.80930  0.02922  0.29870  Biso   1.000  C
  C432     1.0000 0.19070  0.97078  0.29870  Biso   1.000  C
  C433     1.0000 0.69070  0.52922  0.79870  Biso   1.000  C
  C434     1.0000 0.30930  0.47078  0.79870  Biso   1.000  C
  C435     1.0000 0.69070  0.47078  0.20130  Biso   1.000  C
  C436     1.0000 0.30930  0.52922  0.20130  Biso   1.000  C
  C437     1.0000 0.19070  0.02922  0.29870  Biso   1.000  C
  C438     1.0000 0.80930  0.97078  0.29870  Biso   1.000  C
  C439     1.0000 0.19070  0.97078  0.70130  Biso   1.000  C
  C440     1.0000 0.80930  0.02922  0.70130  Biso   1.000  C
  C441     1.0000 0.36490  0.47121  0.23710  Biso   1.000  C
  C442     1.0000 0.63510  0.52879  0.23710  Biso   1.000  C
  C443     1.0000 0.36490  0.52879  0.76290  Biso   1.000  C
  C444     1.0000 0.63510  0.47121  0.76290  Biso   1.000  C
  C445     1.0000 0.86490  0.97121  0.73710  Biso   1.000  C
  C446     1.0000 0.13510  0.02879  0.73710  Biso   1.000  C
  C447     1.0000 0.86490  0.02879  0.26290  Biso   1.000  C
  C448     1.0000 0.13510  0.97121  0.26290  Biso   1.000  C
  C449     1.0000 0.63510  0.52879  0.76290  Biso   1.000  C
  C450     1.0000 0.36490  0.47121  0.76290  Biso   1.000  C
  C451     1.0000 0.63510  0.47121  0.23710  Biso   1.000  C
  C452     1.0000 0.36490  0.52879  0.23710  Biso   1.000  C
  C453     1.0000 0.13510  0.02879  0.26290  Biso   1.000  C
  C454     1.0000 0.86490  0.97121  0.26290  Biso   1.000  C
  C455     1.0000 0.13510  0.97121  0.73710  Biso   1.000  C
  C456     1.0000 0.86490  0.02879  0.73710  Biso   1.000  C
  H241     1.0000 0.38410  0.45150  0.24950  Biso   1.000  H
  H242     1.0000 0.61590  0.54850  0.24950  Biso   1.000  H
  H243     1.0000 0.38410  0.54850  0.75050  Biso   1.000  H
  H244     1.0000 0.61590  0.45150  0.75050  Biso   1.000  H
  H245     1.0000 0.88410  0.95150  0.74950  Biso   1.000  H
  H246     1.0000 0.11590  0.04850  0.74950  Biso   1.000  H
  H247     1.0000 0.88410  0.04850  0.25050  Biso   1.000  H
  H248     1.0000 0.11590  0.95150  0.25050  Biso   1.000  H
  H249     1.0000 0.61590  0.54850  0.75050  Biso   1.000  H
  H250     1.0000 0.38410  0.45150  0.75050  Biso   1.000  H
  H251     1.0000 0.61590  0.45150  0.24950  Biso   1.000  H
  H252     1.0000 0.38410  0.54850  0.24950  Biso   1.000  H
  H253     1.0000 0.11590  0.04850  0.25050  Biso   1.000  H
  H254     1.0000 0.88410  0.95150  0.25050  Biso   1.000  H
  H255     1.0000 0.11590  0.95150  0.74950  Biso   1.000  H
  H256     1.0000 0.88410  0.04850  0.74950  Biso   1.000  H
  C457     1.0000 0.38630  0.50000  0.25090  Biso   1.000  C
  C458     1.0000 0.61370  0.50000  0.25090  Biso   1.000  C
  C459     1.0000 0.38630  0.50000  0.74910  Biso   1.000  C
  C460     1.0000 0.61370  0.50000  0.74910  Biso   1.000  C
  C461     1.0000 0.88630  0.00000  0.75090  Biso   1.000  C
  C462     1.0000 0.11370  0.00000  0.75090  Biso   1.000  C
  C463     1.0000 0.88630  0.00000  0.24910  Biso   1.000  C
  C464     1.0000 0.11370  0.00000  0.24910  Biso   1.000  C
  H257     1.0000 0.42230  0.50000  0.27390  Biso   1.000  H
  H258     1.0000 0.57770  0.50000  0.27390  Biso   1.000  H
  H259     1.0000 0.42230  0.50000  0.72610  Biso   1.000  H
  H260     1.0000 0.57770  0.50000  0.72610  Biso   1.000  H
  H261     1.0000 0.92230  0.00000  0.77390  Biso   1.000  H
  H262     1.0000 0.07770  0.00000  0.77390  Biso   1.000  H
  H263     1.0000 0.92230  0.00000  0.22610  Biso   1.000  H
  H264     1.0000 0.07770  0.00000  0.22610  Biso   1.000  H
  C465     1.0000 0.28630  0.50000  0.18650  Biso   1.000  C
  C466     1.0000 0.71370  0.50000  0.18650  Biso   1.000  C
  C467     1.0000 0.28630  0.50000  0.81350  Biso   1.000  C
  C468     1.0000 0.71370  0.50000  0.81350  Biso   1.000  C
  C469     1.0000 0.78630  0.00000  0.68650  Biso   1.000  C
  C470     1.0000 0.21370  0.00000  0.68650  Biso   1.000  C
  C471     1.0000 0.78630  0.00000  0.31350  Biso   1.000  C
  C472     1.0000 0.21370  0.00000  0.31350  Biso   1.000  C
  H265     1.0000 0.25040  0.50000  0.16330  Biso   1.000  H
  H266     1.0000 0.74960  0.50000  0.16330  Biso   1.000  H
  H267     1.0000 0.25040  0.50000  0.83670  Biso   1.000  H
  H268     1.0000 0.74960  0.50000  0.83670  Biso   1.000  H
  H269     1.0000 0.75040  0.00000  0.66330  Biso   1.000  H
  H270     1.0000 0.24960  0.00000  0.66330  Biso   1.000  H
  H271     1.0000 0.75040  0.00000  0.33670  Biso   1.000  H
  H272     1.0000 0.24960  0.00000  0.33670  Biso   1.000  H
  N25      1.0000 0.25160  0.42068  0.17420  Biso   1.000  N
  N26      1.0000 0.74840  0.57932  0.17420  Biso   1.000  N
  N27      1.0000 0.25160  0.57932  0.82580  Biso   1.000  N
  N28      1.0000 0.74840  0.42068  0.82580  Biso   1.000  N
  N29      1.0000 0.75160  0.92068  0.67420  Biso   1.000  N
  N30      1.0000 0.24840  0.07932  0.67420  Biso   1.000  N
  N31      1.0000 0.75160  0.07932  0.32580  Biso   1.000  N
  N32      1.0000 0.24840  0.92068  0.32580  Biso   1.000  N
  N33      1.0000 0.74840  0.57932  0.82580  Biso   1.000  N
  N34      1.0000 0.25160  0.42068  0.82580  Biso   1.000  N
  N35      1.0000 0.74840  0.42068  0.17420  Biso   1.000  N
  N36      1.0000 0.25160  0.57932  0.17420  Biso   1.000  N
  N37      1.0000 0.24840  0.07932  0.32580  Biso   1.000  N
  N38      1.0000 0.75160  0.92068  0.32580  Biso   1.000  N
  N39      1.0000 0.24840  0.92068  0.67420  Biso   1.000  N
  N40      1.0000 0.75160  0.07932  0.67420  Biso   1.000  N
  H273     1.0000 0.22440  0.43660  0.16420  Biso   1.000  H
  H274     1.0000 0.77560  0.56340  0.16420  Biso   1.000  H
  H275     1.0000 0.22440  0.56340  0.83580  Biso   1.000  H
  H276     1.0000 0.77560  0.43660  0.83580  Biso   1.000  H
  H277     1.0000 0.72440  0.93660  0.66420  Biso   1.000  H
  H278     1.0000 0.27560  0.06340  0.66420  Biso   1.000  H
  H279     1.0000 0.72440  0.06340  0.33580  Biso   1.000  H
  H280     1.0000 0.27560  0.93660  0.33580  Biso   1.000  H
  H281     1.0000 0.77560  0.56340  0.83580  Biso   1.000  H
  H282     1.0000 0.22440  0.43660  0.83580  Biso   1.000  H
  H283     1.0000 0.77560  0.43660  0.16420  Biso   1.000  H
  H284     1.0000 0.22440  0.56340  0.16420  Biso   1.000  H
  H285     1.0000 0.27560  0.06340  0.33580  Biso   1.000  H
  H286     1.0000 0.72440  0.93660  0.33580  Biso   1.000  H
  H287     1.0000 0.27560  0.93660  0.66420  Biso   1.000  H
  H288     1.0000 0.72440  0.06340  0.66420  Biso   1.000  H
  O153     1.0000 0.33760  0.40951  0.21970  Biso   1.000  O
  O154     1.0000 0.66240  0.59049  0.21970  Biso   1.000  O
  O155     1.0000 0.33760  0.59049  0.78030  Biso   1.000  O
  O156     1.0000 0.66240  0.40951  0.78030  Biso   1.000  O
  O157     1.0000 0.83760  0.90951  0.71970  Biso   1.000  O
  O158     1.0000 0.16240  0.09049  0.71970  Biso   1.000  O
  O159     1.0000 0.83760  0.09049  0.28030  Biso   1.000  O
  O160     1.0000 0.16240  0.90951  0.28030  Biso   1.000  O
  O161     1.0000 0.66240  0.59049  0.78030  Biso   1.000  O
  O162     1.0000 0.33760  0.40951  0.78030  Biso   1.000  O
  O163     1.0000 0.66240  0.40951  0.21970  Biso   1.000  O
  O164     1.0000 0.33760  0.59049  0.21970  Biso   1.000  O
  O165     1.0000 0.16240  0.09049  0.28030  Biso   1.000  O
  O166     1.0000 0.83760  0.90951  0.28030  Biso   1.000  O
  O167     1.0000 0.16240  0.90951  0.71970  Biso   1.000  O
  O168     1.0000 0.83760  0.09049  0.71970  Biso   1.000  O
  H289     1.0000 0.03740  0.26410  0.98820  Biso   1.000  H
  H290     1.0000 0.96260  0.73590  0.98820  Biso   1.000  H
  H291     1.0000 0.03740  0.73590  0.01180  Biso   1.000  H
  H292     1.0000 0.96260  0.26410  0.01180  Biso   1.000  H
  H293     1.0000 0.53740  0.76410  0.48820  Biso   1.000  H
  H294     1.0000 0.46260  0.23590  0.48820  Biso   1.000  H
  H295     1.0000 0.53740  0.23590  0.51180  Biso   1.000  H
  H296     1.0000 0.46260  0.76410  0.51180  Biso   1.000  H
  H297     1.0000 0.96260  0.73590  0.01180  Biso   1.000  H
  H298     1.0000 0.03740  0.26410  0.01180  Biso   1.000  H
  H299     1.0000 0.96260  0.26410  0.98820  Biso   1.000  H
  H300     1.0000 0.03740  0.73590  0.98820  Biso   1.000  H
  H301     1.0000 0.46260  0.23590  0.51180  Biso   1.000  H
  H302     1.0000 0.53740  0.76410  0.51180  Biso   1.000  H
  H303     1.0000 0.46260  0.76410  0.48820  Biso   1.000  H
  H304     1.0000 0.53740  0.23590  0.48820  Biso   1.000  H
  H305     1.0000 0.96050  0.45160  0.00820  Biso   1.000  H
  H306     1.0000 0.03950  0.54840  0.00820  Biso   1.000  H
  H307     1.0000 0.96050  0.54840  0.99180  Biso   1.000  H
  H308     1.0000 0.03950  0.45160  0.99180  Biso   1.000  H
  H309     1.0000 0.46050  0.95160  0.50820  Biso   1.000  H
  H310     1.0000 0.53950  0.04840  0.50820  Biso   1.000  H
  H311     1.0000 0.46050  0.04840  0.49180  Biso   1.000  H
  H312     1.0000 0.53950  0.95160  0.49180  Biso   1.000  H
  H313     1.0000 0.03950  0.54840  0.99180  Biso   1.000  H
  H314     1.0000 0.96050  0.45160  0.99180  Biso   1.000  H
  H315     1.0000 0.03950  0.45160  0.00820  Biso   1.000  H
  H316     1.0000 0.96050  0.54840  0.00820  Biso   1.000  H
  H317     1.0000 0.53950  0.04840  0.49180  Biso   1.000  H
  H318     1.0000 0.46050  0.95160  0.49180  Biso   1.000  H
  H319     1.0000 0.53950  0.95160  0.50820  Biso   1.000  H
  H320     1.0000 0.46050  0.04840  0.50820  Biso   1.000  H
