data_image0
_cell_length_a       15.1216
_cell_length_b       29.187
_cell_length_c       31.765
_cell_angle_alpha    90
_cell_angle_beta     96.121
_cell_angle_gamma    90

_symmetry_space_group_name_H-M    "P 1"
_symmetry_int_tables_number       1

loop_
  _symmetry_equiv_pos_as_xyz
  'x, y, z'

loop_
  _atom_site_label
  _atom_site_occupancy
  _atom_site_fract_x
  _atom_site_fract_y
  _atom_site_fract_z
  _atom_site_thermal_displace_type
  _atom_site_B_iso_or_equiv
  _atom_site_type_symbol
  Cu1      1.0000 0.00000  0.73492  0.75000  Biso   1.000  Cu
  Cu2      1.0000 0.50000  0.23492  0.75000  Biso   1.000  Cu
  Cu3      1.0000 0.00000  0.26508  0.25000  Biso   1.000  Cu
  Cu4      1.0000 0.50000  0.76508  0.25000  Biso   1.000  Cu
  Cl1      1.0000 0.98078  0.68572  0.80200  Biso   1.000  Cl
  Cl2      1.0000 0.01922  0.68572  0.69800  Biso   1.000  Cl
  Cl3      1.0000 0.48078  0.18572  0.80200  Biso   1.000  Cl
  Cl4      1.0000 0.51922  0.18572  0.69800  Biso   1.000  Cl
  Cl5      1.0000 0.01922  0.31428  0.19800  Biso   1.000  Cl
  Cl6      1.0000 0.98078  0.31428  0.30200  Biso   1.000  Cl
  Cl7      1.0000 0.51922  0.81428  0.19800  Biso   1.000  Cl
  Cl8      1.0000 0.48078  0.81428  0.30200  Biso   1.000  Cl
  Cl9      1.0000 0.89520  0.78450  0.76200  Biso   1.000  Cl
  Cl10     1.0000 0.10480  0.78450  0.73800  Biso   1.000  Cl
  Cl11     1.0000 0.39520  0.28450  0.76200  Biso   1.000  Cl
  Cl12     1.0000 0.60480  0.28450  0.73800  Biso   1.000  Cl
  Cl13     1.0000 0.10480  0.21550  0.23800  Biso   1.000  Cl
  Cl14     1.0000 0.89520  0.21550  0.26200  Biso   1.000  Cl
  Cl15     1.0000 0.60480  0.71550  0.23800  Biso   1.000  Cl
  Cl16     1.0000 0.39520  0.71550  0.26200  Biso   1.000  Cl
  Cl17     1.0000 0.87200  0.78150  0.74650  Biso   1.000  Cl
  Cl18     1.0000 0.12800  0.78150  0.75350  Biso   1.000  Cl
  Cl19     1.0000 0.37200  0.28150  0.74650  Biso   1.000  Cl
  Cl20     1.0000 0.62800  0.28150  0.75350  Biso   1.000  Cl
  Cl21     1.0000 0.12800  0.21850  0.25350  Biso   1.000  Cl
  Cl22     1.0000 0.87200  0.21850  0.24650  Biso   1.000  Cl
  Cl23     1.0000 0.62800  0.71850  0.25350  Biso   1.000  Cl
  Cl24     1.0000 0.37200  0.71850  0.24650  Biso   1.000  Cl
  Gd1      1.0000 0.54080  0.66681  0.60463  Biso   1.000  Gd
  Gd2      1.0000 0.45920  0.66681  0.89537  Biso   1.000  Gd
  Gd3      1.0000 0.04080  0.16681  0.60463  Biso   1.000  Gd
  Gd4      1.0000 0.95920  0.16681  0.89537  Biso   1.000  Gd
  Gd5      1.0000 0.45920  0.33319  0.39537  Biso   1.000  Gd
  Gd6      1.0000 0.54080  0.33319  0.10463  Biso   1.000  Gd
  Gd7      1.0000 0.95920  0.83319  0.39537  Biso   1.000  Gd
  Gd8      1.0000 0.04080  0.83319  0.10463  Biso   1.000  Gd
  N1       1.0000 0.79210  0.58720  0.47310  Biso   1.000  N
  N2       1.0000 0.20790  0.58720  0.02690  Biso   1.000  N
  N3       1.0000 0.29210  0.08720  0.47310  Biso   1.000  N
  N4       1.0000 0.70790  0.08720  0.02690  Biso   1.000  N
  N5       1.0000 0.20790  0.41280  0.52690  Biso   1.000  N
  N6       1.0000 0.79210  0.41280  0.97310  Biso   1.000  N
  N7       1.0000 0.70790  0.91280  0.52690  Biso   1.000  N
  N8       1.0000 0.29210  0.91280  0.97310  Biso   1.000  N
  N9       1.0000 0.83780  0.88940  0.57200  Biso   1.000  N
  N10      1.0000 0.16220  0.88940  0.92800  Biso   1.000  N
  N11      1.0000 0.33780  0.38940  0.57200  Biso   1.000  N
  N12      1.0000 0.66220  0.38940  0.92800  Biso   1.000  N
  N13      1.0000 0.16220  0.11060  0.42800  Biso   1.000  N
  N14      1.0000 0.83780  0.11060  0.07200  Biso   1.000  N
  N15      1.0000 0.66220  0.61060  0.42800  Biso   1.000  N
  N16      1.0000 0.33780  0.61060  0.07200  Biso   1.000  N
  N17      1.0000 0.92060  0.83510  0.60562  Biso   1.000  N
  N18      1.0000 0.07940  0.83510  0.89438  Biso   1.000  N
  N19      1.0000 0.42060  0.33510  0.60562  Biso   1.000  N
  N20      1.0000 0.57940  0.33510  0.89438  Biso   1.000  N
  N21      1.0000 0.07940  0.16490  0.39438  Biso   1.000  N
  N22      1.0000 0.92060  0.16490  0.10562  Biso   1.000  N
  N23      1.0000 0.57940  0.66490  0.39438  Biso   1.000  N
  N24      1.0000 0.42060  0.66490  0.10562  Biso   1.000  N
  N25      1.0000 0.93050  0.89050  0.51377  Biso   1.000  N
  N26      1.0000 0.06950  0.89050  0.98623  Biso   1.000  N
  N27      1.0000 0.43050  0.39050  0.51377  Biso   1.000  N
  N28      1.0000 0.56950  0.39050  0.98623  Biso   1.000  N
  N29      1.0000 0.06950  0.10950  0.48623  Biso   1.000  N
  N30      1.0000 0.93050  0.10950  0.01377  Biso   1.000  N
  N31      1.0000 0.56950  0.60950  0.48623  Biso   1.000  N
  N32      1.0000 0.43050  0.60950  0.01377  Biso   1.000  N
  N33      1.0000 0.99670  0.82827  0.54182  Biso   1.000  N
  N34      1.0000 0.00330  0.82827  0.95818  Biso   1.000  N
  N35      1.0000 0.49670  0.32827  0.54182  Biso   1.000  N
  N36      1.0000 0.50330  0.32827  0.95818  Biso   1.000  N
  N37      1.0000 0.00330  0.17173  0.45818  Biso   1.000  N
  N38      1.0000 0.99670  0.17173  0.04182  Biso   1.000  N
  N39      1.0000 0.50330  0.67173  0.45818  Biso   1.000  N
  N40      1.0000 0.49670  0.67173  0.04182  Biso   1.000  N
  N41      1.0000 0.02740  0.74860  0.55226  Biso   1.000  N
  N42      1.0000 0.97260  0.74860  0.94774  Biso   1.000  N
  N43      1.0000 0.52740  0.24860  0.55226  Biso   1.000  N
  N44      1.0000 0.47260  0.24860  0.94774  Biso   1.000  N
  N45      1.0000 0.97260  0.25140  0.44774  Biso   1.000  N
  N46      1.0000 0.02740  0.25140  0.05226  Biso   1.000  N
  N47      1.0000 0.47260  0.75140  0.44774  Biso   1.000  N
  N48      1.0000 0.52740  0.75140  0.05226  Biso   1.000  N
  N49      1.0000 0.94090  0.75290  0.61182  Biso   1.000  N
  N50      1.0000 0.05910  0.75290  0.88818  Biso   1.000  N
  N51      1.0000 0.44090  0.25290  0.61182  Biso   1.000  N
  N52      1.0000 0.55910  0.25290  0.88818  Biso   1.000  N
  N53      1.0000 0.05910  0.24710  0.38818  Biso   1.000  N
  N54      1.0000 0.94090  0.24710  0.11182  Biso   1.000  N
  N55      1.0000 0.55910  0.74710  0.38818  Biso   1.000  N
  N56      1.0000 0.44090  0.74710  0.11182  Biso   1.000  N
  N57      1.0000 0.90350  0.68007  0.60081  Biso   1.000  N
  N58      1.0000 0.09650  0.68007  0.89919  Biso   1.000  N
  N59      1.0000 0.40350  0.18007  0.60081  Biso   1.000  N
  N60      1.0000 0.59650  0.18007  0.89919  Biso   1.000  N
  N61      1.0000 0.09650  0.31993  0.39919  Biso   1.000  N
  N62      1.0000 0.90350  0.31993  0.10081  Biso   1.000  N
  N63      1.0000 0.59650  0.81993  0.39919  Biso   1.000  N
  N64      1.0000 0.40350  0.81993  0.10081  Biso   1.000  N
  N65      1.0000 0.90780  0.61250  0.51440  Biso   1.000  N
  N66      1.0000 0.09220  0.61250  0.98560  Biso   1.000  N
  N67      1.0000 0.40780  0.11250  0.51440  Biso   1.000  N
  N68      1.0000 0.59220  0.11250  0.98560  Biso   1.000  N
  N69      1.0000 0.09220  0.38750  0.48560  Biso   1.000  N
  N70      1.0000 0.90780  0.38750  0.01440  Biso   1.000  N
  N71      1.0000 0.59220  0.88750  0.48560  Biso   1.000  N
  N72      1.0000 0.40780  0.88750  0.01440  Biso   1.000  N
  N73      1.0000 0.81550  0.61684  0.57277  Biso   1.000  N
  N74      1.0000 0.18450  0.61684  0.92723  Biso   1.000  N
  N75      1.0000 0.31550  0.11684  0.57277  Biso   1.000  N
  N76      1.0000 0.68450  0.11684  0.92723  Biso   1.000  N
  N77      1.0000 0.18450  0.38316  0.42723  Biso   1.000  N
  N78      1.0000 0.81550  0.38316  0.07277  Biso   1.000  N
  N79      1.0000 0.68450  0.88316  0.42723  Biso   1.000  N
  N80      1.0000 0.31550  0.88316  0.07277  Biso   1.000  N
  N81      1.0000 0.70000  0.58900  0.53213  Biso   1.000  N
  N82      1.0000 0.30000  0.58900  0.96787  Biso   1.000  N
  N83      1.0000 0.20000  0.08900  0.53213  Biso   1.000  N
  N84      1.0000 0.80000  0.08900  0.96787  Biso   1.000  N
  N85      1.0000 0.30000  0.41100  0.46787  Biso   1.000  N
  N86      1.0000 0.70000  0.41100  0.03213  Biso   1.000  N
  N87      1.0000 0.80000  0.91100  0.46787  Biso   1.000  N
  N88      1.0000 0.20000  0.91100  0.03213  Biso   1.000  N
  N89      1.0000 0.43200  0.73169  0.70473  Biso   1.000  N
  N90      1.0000 0.56800  0.73169  0.79527  Biso   1.000  N
  N91      1.0000 0.93200  0.23169  0.70473  Biso   1.000  N
  N92      1.0000 0.06800  0.23169  0.79527  Biso   1.000  N
  N93      1.0000 0.56800  0.26831  0.29527  Biso   1.000  N
  N94      1.0000 0.43200  0.26831  0.20473  Biso   1.000  N
  N95      1.0000 0.06800  0.76831  0.29527  Biso   1.000  N
  N96      1.0000 0.93200  0.76831  0.20473  Biso   1.000  N
  N97      1.0000 0.59040  0.73140  0.72167  Biso   1.000  N
  N98      1.0000 0.40960  0.73140  0.77833  Biso   1.000  N
  N99      1.0000 0.09040  0.23140  0.72167  Biso   1.000  N
  N100     1.0000 0.90960  0.23140  0.77833  Biso   1.000  N
  N101     1.0000 0.40960  0.26860  0.27833  Biso   1.000  N
  N102     1.0000 0.59040  0.26860  0.22167  Biso   1.000  N
  N103     1.0000 0.90960  0.76860  0.27833  Biso   1.000  N
  N104     1.0000 0.09040  0.76860  0.22167  Biso   1.000  N
  N105     1.0000 0.70810  0.68770  0.73412  Biso   1.000  N
  N106     1.0000 0.29190  0.68770  0.76588  Biso   1.000  N
  N107     1.0000 0.20810  0.18770  0.73412  Biso   1.000  N
  N108     1.0000 0.79190  0.18770  0.76588  Biso   1.000  N
  N109     1.0000 0.29190  0.31230  0.26588  Biso   1.000  N
  N110     1.0000 0.70810  0.31230  0.23412  Biso   1.000  N
  N111     1.0000 0.79190  0.81230  0.26588  Biso   1.000  N
  N112     1.0000 0.20810  0.81230  0.23412  Biso   1.000  N
  N113     1.0000 0.68170  0.68324  0.80741  Biso   1.000  N
  N114     1.0000 0.31830  0.68324  0.69259  Biso   1.000  N
  N115     1.0000 0.18170  0.18324  0.80741  Biso   1.000  N
  N116     1.0000 0.81830  0.18324  0.69259  Biso   1.000  N
  N117     1.0000 0.31830  0.31676  0.19259  Biso   1.000  N
  N118     1.0000 0.68170  0.31676  0.30741  Biso   1.000  N
  N119     1.0000 0.81830  0.81676  0.19259  Biso   1.000  N
  N120     1.0000 0.18170  0.81676  0.30741  Biso   1.000  N
  N121     1.0000 0.77280  0.61200  0.74143  Biso   1.000  N
  N122     1.0000 0.22720  0.61200  0.75857  Biso   1.000  N
  N123     1.0000 0.27280  0.11200  0.74143  Biso   1.000  N
  N124     1.0000 0.72720  0.11200  0.75857  Biso   1.000  N
  N125     1.0000 0.22720  0.38800  0.25857  Biso   1.000  N
  N126     1.0000 0.77280  0.38800  0.24143  Biso   1.000  N
  N127     1.0000 0.72720  0.88800  0.25857  Biso   1.000  N
  N128     1.0000 0.27280  0.88800  0.24143  Biso   1.000  N
  N129     1.0000 0.74940  0.60950  0.81581  Biso   1.000  N
  N130     1.0000 0.25060  0.60950  0.68419  Biso   1.000  N
  N131     1.0000 0.24940  0.10950  0.81581  Biso   1.000  N
  N132     1.0000 0.75060  0.10950  0.68419  Biso   1.000  N
  N133     1.0000 0.25060  0.39050  0.18419  Biso   1.000  N
  N134     1.0000 0.74940  0.39050  0.31581  Biso   1.000  N
  N135     1.0000 0.75060  0.89050  0.18419  Biso   1.000  N
  N136     1.0000 0.24940  0.89050  0.31581  Biso   1.000  N
  N137     1.0000 0.75130  0.53360  0.81409  Biso   1.000  N
  N138     1.0000 0.24870  0.53360  0.68591  Biso   1.000  N
  N139     1.0000 0.25130  0.03360  0.81409  Biso   1.000  N
  N140     1.0000 0.74870  0.03360  0.68591  Biso   1.000  N
  N141     1.0000 0.24870  0.46640  0.18591  Biso   1.000  N
  N142     1.0000 0.75130  0.46640  0.31409  Biso   1.000  N
  N143     1.0000 0.74870  0.96640  0.18591  Biso   1.000  N
  N144     1.0000 0.25130  0.96640  0.31409  Biso   1.000  N
  N145     1.0000 0.99830  0.67490  0.54360  Biso   1.000  N
  N146     1.0000 0.00170  0.67490  0.95640  Biso   1.000  N
  N147     1.0000 0.49830  0.17490  0.54360  Biso   1.000  N
  N148     1.0000 0.50170  0.17490  0.95640  Biso   1.000  N
  N149     1.0000 0.00170  0.32510  0.45640  Biso   1.000  N
  N150     1.0000 0.99830  0.32510  0.04360  Biso   1.000  N
  N151     1.0000 0.50170  0.82510  0.45640  Biso   1.000  N
  N152     1.0000 0.49830  0.82510  0.04360  Biso   1.000  N
  N153     1.0000 0.69210  0.45760  0.81050  Biso   1.000  N
  N154     1.0000 0.30790  0.45760  0.68950  Biso   1.000  N
  N155     1.0000 0.19210  0.95760  0.81050  Biso   1.000  N
  N156     1.0000 0.80790  0.95760  0.68950  Biso   1.000  N
  N157     1.0000 0.30790  0.54240  0.18950  Biso   1.000  N
  N158     1.0000 0.69210  0.54240  0.31050  Biso   1.000  N
  N159     1.0000 0.80790  0.04240  0.18950  Biso   1.000  N
  N160     1.0000 0.19210  0.04240  0.31050  Biso   1.000  N
  N161     1.0000 0.70200  0.46290  0.73530  Biso   1.000  N
  N162     1.0000 0.29800  0.46290  0.76470  Biso   1.000  N
  N163     1.0000 0.20200  0.96290  0.73530  Biso   1.000  N
  N164     1.0000 0.79800  0.96290  0.76470  Biso   1.000  N
  N165     1.0000 0.29800  0.53710  0.26470  Biso   1.000  N
  N166     1.0000 0.70200  0.53710  0.23530  Biso   1.000  N
  N167     1.0000 0.79800  0.03710  0.26470  Biso   1.000  N
  N168     1.0000 0.20200  0.03710  0.23530  Biso   1.000  N
  N169     1.0000 0.57430  0.41320  0.79750  Biso   1.000  N
  N170     1.0000 0.42570  0.41320  0.70250  Biso   1.000  N
  N171     1.0000 0.07430  0.91320  0.79750  Biso   1.000  N
  N172     1.0000 0.92570  0.91320  0.70250  Biso   1.000  N
  N173     1.0000 0.42570  0.58680  0.20250  Biso   1.000  N
  N174     1.0000 0.57430  0.58680  0.29750  Biso   1.000  N
  N175     1.0000 0.92570  0.08680  0.20250  Biso   1.000  N
  N176     1.0000 0.07430  0.08680  0.29750  Biso   1.000  N
  N177     1.0000 0.58550  0.41890  0.72220  Biso   1.000  N
  N178     1.0000 0.41450  0.41890  0.77780  Biso   1.000  N
  N179     1.0000 0.08550  0.91890  0.72220  Biso   1.000  N
  N180     1.0000 0.91450  0.91890  0.77780  Biso   1.000  N
  N181     1.0000 0.41450  0.58110  0.27780  Biso   1.000  N
  N182     1.0000 0.58550  0.58110  0.22220  Biso   1.000  N
  N183     1.0000 0.91450  0.08110  0.27780  Biso   1.000  N
  N184     1.0000 0.08550  0.08110  0.22220  Biso   1.000  N
  N185     1.0000 0.77480  0.53610  0.74000  Biso   1.000  N
  N186     1.0000 0.22520  0.53610  0.76000  Biso   1.000  N
  N187     1.0000 0.27480  0.03610  0.74000  Biso   1.000  N
  N188     1.0000 0.72520  0.03610  0.76000  Biso   1.000  N
  N189     1.0000 0.22520  0.46390  0.26000  Biso   1.000  N
  N190     1.0000 0.77480  0.46390  0.24000  Biso   1.000  N
  N191     1.0000 0.72520  0.96390  0.26000  Biso   1.000  N
  N192     1.0000 0.27480  0.96390  0.24000  Biso   1.000  N
  O1       1.0000 0.90020  0.62480  0.44371  Biso   1.000  O
  O2       1.0000 0.09980  0.62480  0.05629  Biso   1.000  O
  O3       1.0000 0.40020  0.12480  0.44371  Biso   1.000  O
  O4       1.0000 0.59980  0.12480  0.05629  Biso   1.000  O
  O5       1.0000 0.09980  0.37520  0.55629  Biso   1.000  O
  O6       1.0000 0.90020  0.37520  0.94371  Biso   1.000  O
  O7       1.0000 0.59980  0.87520  0.55629  Biso   1.000  O
  O8       1.0000 0.40020  0.87520  0.94371  Biso   1.000  O
  O9       1.0000 0.77790  0.84480  0.62150  Biso   1.000  O
  O10      1.0000 0.22210  0.84480  0.87850  Biso   1.000  O
  O11      1.0000 0.27790  0.34480  0.62150  Biso   1.000  O
  O12      1.0000 0.72210  0.34480  0.87850  Biso   1.000  O
  O13      1.0000 0.22210  0.15520  0.37850  Biso   1.000  O
  O14      1.0000 0.77790  0.15520  0.12150  Biso   1.000  O
  O15      1.0000 0.72210  0.65520  0.37850  Biso   1.000  O
  O16      1.0000 0.27790  0.65520  0.12150  Biso   1.000  O
  O17      1.0000 0.80980  0.72724  0.63271  Biso   1.000  O
  O18      1.0000 0.19020  0.72724  0.86729  Biso   1.000  O
  O19      1.0000 0.30980  0.22724  0.63271  Biso   1.000  O
  O20      1.0000 0.69020  0.22724  0.86729  Biso   1.000  O
  O21      1.0000 0.19020  0.27276  0.36729  Biso   1.000  O
  O22      1.0000 0.80980  0.27276  0.13271  Biso   1.000  O
  O23      1.0000 0.69020  0.77276  0.36729  Biso   1.000  O
  O24      1.0000 0.30980  0.77276  0.13271  Biso   1.000  O
  O25      1.0000 0.03020  0.71563  0.48584  Biso   1.000  O
  O26      1.0000 0.96980  0.71563  0.01416  Biso   1.000  O
  O27      1.0000 0.53020  0.21563  0.48584  Biso   1.000  O
  O28      1.0000 0.46980  0.21563  0.01416  Biso   1.000  O
  O29      1.0000 0.96980  0.28437  0.51416  Biso   1.000  O
  O30      1.0000 0.03020  0.28437  0.98584  Biso   1.000  O
  O31      1.0000 0.46980  0.78437  0.51416  Biso   1.000  O
  O32      1.0000 0.53020  0.78437  0.98584  Biso   1.000  O
  O33      1.0000 0.67610  0.63600  0.58758  Biso   1.000  O
  O34      1.0000 0.32390  0.63600  0.91242  Biso   1.000  O
  O35      1.0000 0.17610  0.13600  0.58758  Biso   1.000  O
  O36      1.0000 0.82390  0.13600  0.91242  Biso   1.000  O
  O37      1.0000 0.32390  0.36400  0.41242  Biso   1.000  O
  O38      1.0000 0.67610  0.36400  0.08758  Biso   1.000  O
  O39      1.0000 0.82390  0.86400  0.41242  Biso   1.000  O
  O40      1.0000 0.17610  0.86400  0.08758  Biso   1.000  O
  O41      1.0000 0.63490  0.73138  0.59259  Biso   1.000  O
  O42      1.0000 0.36510  0.73138  0.90741  Biso   1.000  O
  O43      1.0000 0.13490  0.23138  0.59259  Biso   1.000  O
  O44      1.0000 0.86510  0.23138  0.90741  Biso   1.000  O
  O45      1.0000 0.36510  0.26862  0.40741  Biso   1.000  O
  O46      1.0000 0.63490  0.26862  0.09259  Biso   1.000  O
  O47      1.0000 0.86510  0.76862  0.40741  Biso   1.000  O
  O48      1.0000 0.13490  0.76862  0.09259  Biso   1.000  O
  H1       1.0000 0.68330  0.72100  0.58500  Biso   1.000  H
  H2       1.0000 0.31670  0.72100  0.91500  Biso   1.000  H
  H3       1.0000 0.18330  0.22100  0.58500  Biso   1.000  H
  H4       1.0000 0.81670  0.22100  0.91500  Biso   1.000  H
  H5       1.0000 0.31670  0.27900  0.41500  Biso   1.000  H
  H6       1.0000 0.68330  0.27900  0.08500  Biso   1.000  H
  H7       1.0000 0.81670  0.77900  0.41500  Biso   1.000  H
  H8       1.0000 0.18330  0.77900  0.08500  Biso   1.000  H
  H9       1.0000 0.65850  0.74030  0.61670  Biso   1.000  H
  H10      1.0000 0.34150  0.74030  0.88330  Biso   1.000  H
  H11      1.0000 0.15850  0.24030  0.61670  Biso   1.000  H
  H12      1.0000 0.84150  0.24030  0.88330  Biso   1.000  H
  H13      1.0000 0.34150  0.25970  0.38330  Biso   1.000  H
  H14      1.0000 0.65850  0.25970  0.11670  Biso   1.000  H
  H15      1.0000 0.84150  0.75970  0.38330  Biso   1.000  H
  H16      1.0000 0.15850  0.75970  0.11670  Biso   1.000  H
  O49      1.0000 0.97790  0.83630  0.47035  Biso   1.000  O
  O50      1.0000 0.02210  0.83630  0.02965  Biso   1.000  O
  O51      1.0000 0.47790  0.33630  0.47035  Biso   1.000  O
  O52      1.0000 0.52210  0.33630  0.02965  Biso   1.000  O
  O53      1.0000 0.02210  0.16370  0.52965  Biso   1.000  O
  O54      1.0000 0.97790  0.16370  0.97035  Biso   1.000  O
  O55      1.0000 0.52210  0.66370  0.52965  Biso   1.000  O
  O56      1.0000 0.47790  0.66370  0.97035  Biso   1.000  O
  O57      1.0000 0.44930  0.72990  0.58273  Biso   1.000  O
  O58      1.0000 0.55070  0.72990  0.91727  Biso   1.000  O
  O59      1.0000 0.94930  0.22990  0.58273  Biso   1.000  O
  O60      1.0000 0.05070  0.22990  0.91727  Biso   1.000  O
  O61      1.0000 0.55070  0.27010  0.41727  Biso   1.000  O
  O62      1.0000 0.44930  0.27010  0.08273  Biso   1.000  O
  O63      1.0000 0.05070  0.77010  0.41727  Biso   1.000  O
  O64      1.0000 0.94930  0.77010  0.08273  Biso   1.000  O
  H17      1.0000 0.45710  0.74640  0.56140  Biso   1.000  H
  H18      1.0000 0.54290  0.74640  0.93860  Biso   1.000  H
  H19      1.0000 0.95710  0.24640  0.56140  Biso   1.000  H
  H20      1.0000 0.04290  0.24640  0.93860  Biso   1.000  H
  H21      1.0000 0.54290  0.25360  0.43860  Biso   1.000  H
  H22      1.0000 0.45710  0.25360  0.06140  Biso   1.000  H
  H23      1.0000 0.04290  0.75360  0.43860  Biso   1.000  H
  H24      1.0000 0.95710  0.75360  0.06140  Biso   1.000  H
  H25      1.0000 0.39850  0.73610  0.59040  Biso   1.000  H
  H26      1.0000 0.60150  0.73610  0.90960  Biso   1.000  H
  H27      1.0000 0.89850  0.23610  0.59040  Biso   1.000  H
  H28      1.0000 0.10150  0.23610  0.90960  Biso   1.000  H
  H29      1.0000 0.60150  0.26390  0.40960  Biso   1.000  H
  H30      1.0000 0.39850  0.26390  0.09040  Biso   1.000  H
  H31      1.0000 0.10150  0.76390  0.40960  Biso   1.000  H
  H32      1.0000 0.89850  0.76390  0.09040  Biso   1.000  H
  O65      1.0000 0.41630  0.61939  0.58214  Biso   1.000  O
  O66      1.0000 0.58370  0.61939  0.91786  Biso   1.000  O
  O67      1.0000 0.91630  0.11939  0.58214  Biso   1.000  O
  O68      1.0000 0.08370  0.11939  0.91786  Biso   1.000  O
  O69      1.0000 0.58370  0.38061  0.41786  Biso   1.000  O
  O70      1.0000 0.41630  0.38061  0.08214  Biso   1.000  O
  O71      1.0000 0.08370  0.88061  0.41786  Biso   1.000  O
  O72      1.0000 0.91630  0.88061  0.08214  Biso   1.000  O
  H33      1.0000 0.38890  0.60890  0.60210  Biso   1.000  H
  H34      1.0000 0.61110  0.60890  0.89790  Biso   1.000  H
  H35      1.0000 0.88890  0.10890  0.60210  Biso   1.000  H
  H36      1.0000 0.11110  0.10890  0.89790  Biso   1.000  H
  H37      1.0000 0.61110  0.39110  0.39790  Biso   1.000  H
  H38      1.0000 0.38890  0.39110  0.10210  Biso   1.000  H
  H39      1.0000 0.11110  0.89110  0.39790  Biso   1.000  H
  H40      1.0000 0.88890  0.89110  0.10210  Biso   1.000  H
  H41      1.0000 0.41150  0.59990  0.56210  Biso   1.000  H
  H42      1.0000 0.58850  0.59990  0.93790  Biso   1.000  H
  H43      1.0000 0.91150  0.09990  0.56210  Biso   1.000  H
  H44      1.0000 0.08850  0.09990  0.93790  Biso   1.000  H
  H45      1.0000 0.58850  0.40010  0.43790  Biso   1.000  H
  H46      1.0000 0.41150  0.40010  0.06210  Biso   1.000  H
  H47      1.0000 0.08850  0.90010  0.43790  Biso   1.000  H
  H48      1.0000 0.91150  0.90010  0.06210  Biso   1.000  H
  O73      1.0000 0.43400  0.67706  0.65169  Biso   1.000  O
  O74      1.0000 0.56600  0.67706  0.84831  Biso   1.000  O
  O75      1.0000 0.93400  0.17706  0.65169  Biso   1.000  O
  O76      1.0000 0.06600  0.17706  0.84831  Biso   1.000  O
  O77      1.0000 0.56600  0.32294  0.34831  Biso   1.000  O
  O78      1.0000 0.43400  0.32294  0.15169  Biso   1.000  O
  O79      1.0000 0.06600  0.82294  0.34831  Biso   1.000  O
  O80      1.0000 0.93400  0.82294  0.15169  Biso   1.000  O
  O81      1.0000 0.62640  0.68312  0.66918  Biso   1.000  O
  O82      1.0000 0.37360  0.68312  0.83082  Biso   1.000  O
  O83      1.0000 0.12640  0.18312  0.66918  Biso   1.000  O
  O84      1.0000 0.87360  0.18312  0.83082  Biso   1.000  O
  O85      1.0000 0.37360  0.31688  0.33082  Biso   1.000  O
  O86      1.0000 0.62640  0.31688  0.16918  Biso   1.000  O
  O87      1.0000 0.87360  0.81688  0.33082  Biso   1.000  O
  O88      1.0000 0.12640  0.81688  0.16918  Biso   1.000  O
  O89      1.0000 0.56010  0.59507  0.64126  Biso   1.000  O
  O90      1.0000 0.43990  0.59507  0.85874  Biso   1.000  O
  O91      1.0000 0.06010  0.09507  0.64126  Biso   1.000  O
  O92      1.0000 0.93990  0.09507  0.85874  Biso   1.000  O
  O93      1.0000 0.43990  0.40493  0.35874  Biso   1.000  O
  O94      1.0000 0.56010  0.40493  0.14126  Biso   1.000  O
  O95      1.0000 0.93990  0.90493  0.35874  Biso   1.000  O
  O96      1.0000 0.06010  0.90493  0.14126  Biso   1.000  O
  H49      1.0000 0.58700  0.60020  0.66570  Biso   1.000  H
  H50      1.0000 0.41300  0.60020  0.83430  Biso   1.000  H
  H51      1.0000 0.08700  0.10020  0.66570  Biso   1.000  H
  H52      1.0000 0.91300  0.10020  0.83430  Biso   1.000  H
  H53      1.0000 0.41300  0.39980  0.33430  Biso   1.000  H
  H54      1.0000 0.58700  0.39980  0.16570  Biso   1.000  H
  H55      1.0000 0.91300  0.89980  0.33430  Biso   1.000  H
  H56      1.0000 0.08700  0.89980  0.16570  Biso   1.000  H
  H57      1.0000 0.60470  0.58200  0.63230  Biso   1.000  H
  H58      1.0000 0.39530  0.58200  0.86770  Biso   1.000  H
  H59      1.0000 0.10470  0.08200  0.63230  Biso   1.000  H
  H60      1.0000 0.89530  0.08200  0.86770  Biso   1.000  H
  H61      1.0000 0.39530  0.41800  0.36770  Biso   1.000  H
  H62      1.0000 0.60470  0.41800  0.13230  Biso   1.000  H
  H63      1.0000 0.89530  0.91800  0.36770  Biso   1.000  H
  H64      1.0000 0.10470  0.91800  0.13230  Biso   1.000  H
  O97      1.0000 0.73200  0.57509  0.67820  Biso   1.000  O
  O98      1.0000 0.26800  0.57509  0.82180  Biso   1.000  O
  O99      1.0000 0.23200  0.07509  0.67820  Biso   1.000  O
  O100     1.0000 0.76800  0.07509  0.82180  Biso   1.000  O
  O101     1.0000 0.26800  0.42491  0.32180  Biso   1.000  O
  O102     1.0000 0.73200  0.42491  0.17820  Biso   1.000  O
  O103     1.0000 0.76800  0.92491  0.32180  Biso   1.000  O
  O104     1.0000 0.23200  0.92491  0.17820  Biso   1.000  O
  O105     1.0000 0.67920  0.57029  0.86504  Biso   1.000  O
  O106     1.0000 0.32080  0.57029  0.63496  Biso   1.000  O
  O107     1.0000 0.17920  0.07029  0.86504  Biso   1.000  O
  O108     1.0000 0.82080  0.07029  0.63496  Biso   1.000  O
  O109     1.0000 0.32080  0.42971  0.13496  Biso   1.000  O
  O110     1.0000 0.67920  0.42971  0.36504  Biso   1.000  O
  O111     1.0000 0.82080  0.92971  0.13496  Biso   1.000  O
  O112     1.0000 0.17920  0.92971  0.36504  Biso   1.000  O
  O113     1.0000 0.58910  0.45730  0.85851  Biso   1.000  O
  O114     1.0000 0.41090  0.45730  0.64149  Biso   1.000  O
  O115     1.0000 0.08910  0.95730  0.85851  Biso   1.000  O
  O116     1.0000 0.91090  0.95730  0.64149  Biso   1.000  O
  O117     1.0000 0.41090  0.54270  0.14149  Biso   1.000  O
  O118     1.0000 0.58910  0.54270  0.35851  Biso   1.000  O
  O119     1.0000 0.91090  0.04270  0.14149  Biso   1.000  O
  O120     1.0000 0.08910  0.04270  0.35851  Biso   1.000  O
  O121     1.0000 0.62010  0.46790  0.67030  Biso   1.000  O
  O122     1.0000 0.37990  0.46790  0.82970  Biso   1.000  O
  O123     1.0000 0.12010  0.96790  0.67030  Biso   1.000  O
  O124     1.0000 0.87990  0.96790  0.82970  Biso   1.000  O
  O125     1.0000 0.37990  0.53210  0.32970  Biso   1.000  O
  O126     1.0000 0.62010  0.53210  0.17030  Biso   1.000  O
  O127     1.0000 0.87990  0.03210  0.32970  Biso   1.000  O
  O128     1.0000 0.12010  0.03210  0.17030  Biso   1.000  O
  C1       1.0000 0.86960  0.60960  0.47370  Biso   1.000  C
  C2       1.0000 0.13040  0.60960  0.02630  Biso   1.000  C
  C3       1.0000 0.36960  0.10960  0.47370  Biso   1.000  C
  C4       1.0000 0.63040  0.10960  0.02630  Biso   1.000  C
  C5       1.0000 0.13040  0.39040  0.52630  Biso   1.000  C
  C6       1.0000 0.86960  0.39040  0.97370  Biso   1.000  C
  C7       1.0000 0.63040  0.89040  0.52630  Biso   1.000  C
  C8       1.0000 0.36960  0.89040  0.97370  Biso   1.000  C
  C9       1.0000 0.76650  0.92170  0.56620  Biso   1.000  C
  C10      1.0000 0.23350  0.92170  0.93380  Biso   1.000  C
  C11      1.0000 0.26650  0.42170  0.56620  Biso   1.000  C
  C12      1.0000 0.73350  0.42170  0.93380  Biso   1.000  C
  C13      1.0000 0.23350  0.07830  0.43380  Biso   1.000  C
  C14      1.0000 0.76650  0.07830  0.06620  Biso   1.000  C
  C15      1.0000 0.73350  0.57830  0.43380  Biso   1.000  C
  C16      1.0000 0.26650  0.57830  0.06620  Biso   1.000  C
  H65      1.0000 0.79080  0.95230  0.56520  Biso   1.000  H
  H66      1.0000 0.20920  0.95230  0.93480  Biso   1.000  H
  H67      1.0000 0.29080  0.45230  0.56520  Biso   1.000  H
  H68      1.0000 0.70920  0.45230  0.93480  Biso   1.000  H
  H69      1.0000 0.20920  0.04770  0.43480  Biso   1.000  H
  H70      1.0000 0.79080  0.04770  0.06520  Biso   1.000  H
  H71      1.0000 0.70920  0.54770  0.43480  Biso   1.000  H
  H72      1.0000 0.29080  0.54770  0.06520  Biso   1.000  H
  H73      1.0000 0.73180  0.92010  0.59010  Biso   1.000  H
  H74      1.0000 0.26820  0.92010  0.90990  Biso   1.000  H
  H75      1.0000 0.23180  0.42010  0.59010  Biso   1.000  H
  H76      1.0000 0.76820  0.42010  0.90990  Biso   1.000  H
  H77      1.0000 0.26820  0.07990  0.40990  Biso   1.000  H
  H78      1.0000 0.73180  0.07990  0.09010  Biso   1.000  H
  H79      1.0000 0.76820  0.57990  0.40990  Biso   1.000  H
  H80      1.0000 0.23180  0.57990  0.09010  Biso   1.000  H
  C17      1.0000 0.83960  0.85460  0.60170  Biso   1.000  C
  C18      1.0000 0.16040  0.85460  0.89830  Biso   1.000  C
  C19      1.0000 0.33960  0.35460  0.60170  Biso   1.000  C
  C20      1.0000 0.66040  0.35460  0.89830  Biso   1.000  C
  C21      1.0000 0.16040  0.14540  0.39830  Biso   1.000  C
  C22      1.0000 0.83960  0.14540  0.10170  Biso   1.000  C
  C23      1.0000 0.66040  0.64540  0.39830  Biso   1.000  C
  C24      1.0000 0.33960  0.64540  0.10170  Biso   1.000  C
  C25      1.0000 0.92520  0.89680  0.55800  Biso   1.000  C
  C26      1.0000 0.07480  0.89680  0.94200  Biso   1.000  C
  C27      1.0000 0.42520  0.39680  0.55800  Biso   1.000  C
  C28      1.0000 0.57480  0.39680  0.94200  Biso   1.000  C
  C29      1.0000 0.07480  0.10320  0.44200  Biso   1.000  C
  C30      1.0000 0.92520  0.10320  0.05800  Biso   1.000  C
  C31      1.0000 0.57480  0.60320  0.44200  Biso   1.000  C
  C32      1.0000 0.42520  0.60320  0.05800  Biso   1.000  C
  H81      1.0000 0.95090  0.92620  0.56810  Biso   1.000  H
  H82      1.0000 0.04910  0.92620  0.93190  Biso   1.000  H
  H83      1.0000 0.45090  0.42620  0.56810  Biso   1.000  H
  H84      1.0000 0.54910  0.42620  0.93190  Biso   1.000  H
  H85      1.0000 0.04910  0.07380  0.43190  Biso   1.000  H
  H86      1.0000 0.95090  0.07380  0.06810  Biso   1.000  H
  H87      1.0000 0.54910  0.57380  0.43190  Biso   1.000  H
  H88      1.0000 0.45090  0.57380  0.06810  Biso   1.000  H
  C33      1.0000 0.97990  0.85530  0.57780  Biso   1.000  C
  C34      1.0000 0.02010  0.85530  0.92220  Biso   1.000  C
  C35      1.0000 0.47990  0.35530  0.57780  Biso   1.000  C
  C36      1.0000 0.52010  0.35530  0.92220  Biso   1.000  C
  C37      1.0000 0.02010  0.14470  0.42220  Biso   1.000  C
  C38      1.0000 0.97990  0.14470  0.07780  Biso   1.000  C
  C39      1.0000 0.52010  0.64470  0.42220  Biso   1.000  C
  C40      1.0000 0.47990  0.64470  0.07780  Biso   1.000  C
  H89      1.0000 0.03560  0.86540  0.59370  Biso   1.000  H
  H90      1.0000 0.96440  0.86540  0.90630  Biso   1.000  H
  H91      1.0000 0.53560  0.36540  0.59370  Biso   1.000  H
  H92      1.0000 0.46440  0.36540  0.90630  Biso   1.000  H
  H93      1.0000 0.96440  0.13460  0.40630  Biso   1.000  H
  H94      1.0000 0.03560  0.13460  0.09370  Biso   1.000  H
  H95      1.0000 0.46440  0.63460  0.40630  Biso   1.000  H
  H96      1.0000 0.53560  0.63460  0.09370  Biso   1.000  H
  C41      1.0000 0.96750  0.85050  0.50510  Biso   1.000  C
  C42      1.0000 0.03250  0.85050  0.99490  Biso   1.000  C
  C43      1.0000 0.46750  0.35050  0.50510  Biso   1.000  C
  C44      1.0000 0.53250  0.35050  0.99490  Biso   1.000  C
  C45      1.0000 0.03250  0.14950  0.49490  Biso   1.000  C
  C46      1.0000 0.96750  0.14950  0.00510  Biso   1.000  C
  C47      1.0000 0.53250  0.64950  0.49490  Biso   1.000  C
  C48      1.0000 0.46750  0.64950  0.00510  Biso   1.000  C
  C49      1.0000 0.94310  0.79650  0.63230  Biso   1.000  C
  C50      1.0000 0.05690  0.79650  0.86770  Biso   1.000  C
  C51      1.0000 0.44310  0.29650  0.63230  Biso   1.000  C
  C52      1.0000 0.55690  0.29650  0.86770  Biso   1.000  C
  C53      1.0000 0.05690  0.20350  0.36770  Biso   1.000  C
  C54      1.0000 0.94310  0.20350  0.13230  Biso   1.000  C
  C55      1.0000 0.55690  0.70350  0.36770  Biso   1.000  C
  C56      1.0000 0.44310  0.70350  0.13230  Biso   1.000  C
  H97      1.0000 0.90260  0.79570  0.65400  Biso   1.000  H
  H98      1.0000 0.09740  0.79570  0.84600  Biso   1.000  H
  H99      1.0000 0.40260  0.29570  0.65400  Biso   1.000  H
  H100     1.0000 0.59740  0.29570  0.84600  Biso   1.000  H
  H101     1.0000 0.09740  0.20430  0.34600  Biso   1.000  H
  H102     1.0000 0.90260  0.20430  0.15400  Biso   1.000  H
  H103     1.0000 0.59740  0.70430  0.34600  Biso   1.000  H
  H104     1.0000 0.40260  0.70430  0.15400  Biso   1.000  H
  H105     1.0000 0.00250  0.80120  0.64650  Biso   1.000  H
  H106     1.0000 0.99750  0.80120  0.85350  Biso   1.000  H
  H107     1.0000 0.50250  0.30120  0.64650  Biso   1.000  H
  H108     1.0000 0.49750  0.30120  0.85350  Biso   1.000  H
  H109     1.0000 0.99750  0.19880  0.35350  Biso   1.000  H
  H110     1.0000 0.00250  0.19880  0.14650  Biso   1.000  H
  H111     1.0000 0.49750  0.69880  0.35350  Biso   1.000  H
  H112     1.0000 0.50250  0.69880  0.14650  Biso   1.000  H
  C57      1.0000 0.06210  0.79310  0.54310  Biso   1.000  C
  C58      1.0000 0.93790  0.79310  0.95690  Biso   1.000  C
  C59      1.0000 0.56210  0.29310  0.54310  Biso   1.000  C
  C60      1.0000 0.43790  0.29310  0.95690  Biso   1.000  C
  C61      1.0000 0.93790  0.20690  0.45690  Biso   1.000  C
  C62      1.0000 0.06210  0.20690  0.04310  Biso   1.000  C
  C63      1.0000 0.43790  0.70690  0.45690  Biso   1.000  C
  C64      1.0000 0.56210  0.70690  0.04310  Biso   1.000  C
  H113     1.0000 0.11040  0.80060  0.56460  Biso   1.000  H
  H114     1.0000 0.88960  0.80060  0.93540  Biso   1.000  H
  H115     1.0000 0.61040  0.30060  0.56460  Biso   1.000  H
  H116     1.0000 0.38960  0.30060  0.93540  Biso   1.000  H
  H117     1.0000 0.88960  0.19940  0.43540  Biso   1.000  H
  H118     1.0000 0.11040  0.19940  0.06460  Biso   1.000  H
  H119     1.0000 0.38960  0.69940  0.43540  Biso   1.000  H
  H120     1.0000 0.61040  0.69940  0.06460  Biso   1.000  H
  H121     1.0000 0.08630  0.79190  0.51610  Biso   1.000  H
  H122     1.0000 0.91370  0.79190  0.98390  Biso   1.000  H
  H123     1.0000 0.58630  0.29190  0.51610  Biso   1.000  H
  H124     1.0000 0.41370  0.29190  0.98390  Biso   1.000  H
  H125     1.0000 0.91370  0.20810  0.48390  Biso   1.000  H
  H126     1.0000 0.08630  0.20810  0.01610  Biso   1.000  H
  H127     1.0000 0.41370  0.70810  0.48390  Biso   1.000  H
  H128     1.0000 0.58630  0.70810  0.01610  Biso   1.000  H
  C65      1.0000 0.01680  0.73390  0.59450  Biso   1.000  C
  C66      1.0000 0.98320  0.73390  0.90550  Biso   1.000  C
  C67      1.0000 0.51680  0.23390  0.59450  Biso   1.000  C
  C68      1.0000 0.48320  0.23390  0.90550  Biso   1.000  C
  C69      1.0000 0.98320  0.26610  0.40550  Biso   1.000  C
  C70      1.0000 0.01680  0.26610  0.09450  Biso   1.000  C
  C71      1.0000 0.48320  0.76610  0.40550  Biso   1.000  C
  C72      1.0000 0.51680  0.76610  0.09450  Biso   1.000  C
  H129     1.0000 0.07150  0.73810  0.61370  Biso   1.000  H
  H130     1.0000 0.92850  0.73810  0.88630  Biso   1.000  H
  H131     1.0000 0.57150  0.23810  0.61370  Biso   1.000  H
  H132     1.0000 0.42850  0.23810  0.88630  Biso   1.000  H
  H133     1.0000 0.92850  0.26190  0.38630  Biso   1.000  H
  H134     1.0000 0.07150  0.26190  0.11370  Biso   1.000  H
  H135     1.0000 0.42850  0.76190  0.38630  Biso   1.000  H
  H136     1.0000 0.57150  0.76190  0.11370  Biso   1.000  H
  C73      1.0000 0.87890  0.72030  0.61630  Biso   1.000  C
  C74      1.0000 0.12110  0.72030  0.88370  Biso   1.000  C
  C75      1.0000 0.37890  0.22030  0.61630  Biso   1.000  C
  C76      1.0000 0.62110  0.22030  0.88370  Biso   1.000  C
  C77      1.0000 0.12110  0.27970  0.38370  Biso   1.000  C
  C78      1.0000 0.87890  0.27970  0.11630  Biso   1.000  C
  C79      1.0000 0.62110  0.77970  0.38370  Biso   1.000  C
  C80      1.0000 0.37890  0.77970  0.11630  Biso   1.000  C
  C81      1.0000 0.99200  0.68250  0.58870  Biso   1.000  C
  C82      1.0000 0.00800  0.68250  0.91130  Biso   1.000  C
  C83      1.0000 0.49200  0.18250  0.58870  Biso   1.000  C
  C84      1.0000 0.50800  0.18250  0.91130  Biso   1.000  C
  C85      1.0000 0.00800  0.31750  0.41130  Biso   1.000  C
  C86      1.0000 0.99200  0.31750  0.08870  Biso   1.000  C
  C87      1.0000 0.50800  0.81750  0.41130  Biso   1.000  C
  C88      1.0000 0.49200  0.81750  0.08870  Biso   1.000  C
  H137     1.0000 0.03310  0.66280  0.60640  Biso   1.000  H
  H138     1.0000 0.96690  0.66280  0.89360  Biso   1.000  H
  H139     1.0000 0.53310  0.16280  0.60640  Biso   1.000  H
  H140     1.0000 0.46690  0.16280  0.89360  Biso   1.000  H
  H141     1.0000 0.96690  0.33720  0.39360  Biso   1.000  H
  H142     1.0000 0.03310  0.33720  0.10640  Biso   1.000  H
  H143     1.0000 0.46690  0.83720  0.39360  Biso   1.000  H
  H144     1.0000 0.53310  0.83720  0.10640  Biso   1.000  H
  C89      1.0000 0.01890  0.71350  0.52320  Biso   1.000  C
  C90      1.0000 0.98110  0.71350  0.97680  Biso   1.000  C
  C91      1.0000 0.51890  0.21350  0.52320  Biso   1.000  C
  C92      1.0000 0.48110  0.21350  0.97680  Biso   1.000  C
  C93      1.0000 0.98110  0.28650  0.47680  Biso   1.000  C
  C94      1.0000 0.01890  0.28650  0.02320  Biso   1.000  C
  C95      1.0000 0.48110  0.78650  0.47680  Biso   1.000  C
  C96      1.0000 0.51890  0.78650  0.02320  Biso   1.000  C
  C97      1.0000 0.86390  0.63840  0.60900  Biso   1.000  C
  C98      1.0000 0.13610  0.63840  0.89100  Biso   1.000  C
  C99      1.0000 0.36390  0.13840  0.60900  Biso   1.000  C
  C100     1.0000 0.63610  0.13840  0.89100  Biso   1.000  C
  C101     1.0000 0.13610  0.36160  0.39100  Biso   1.000  C
  C102     1.0000 0.86390  0.36160  0.10900  Biso   1.000  C
  C103     1.0000 0.63610  0.86160  0.39100  Biso   1.000  C
  C104     1.0000 0.36390  0.86160  0.10900  Biso   1.000  C
  H145     1.0000 0.82350  0.64330  0.63030  Biso   1.000  H
  H146     1.0000 0.17650  0.64330  0.86970  Biso   1.000  H
  H147     1.0000 0.32350  0.14330  0.63030  Biso   1.000  H
  H148     1.0000 0.67650  0.14330  0.86970  Biso   1.000  H
  H149     1.0000 0.17650  0.35670  0.36970  Biso   1.000  H
  H150     1.0000 0.82350  0.35670  0.13030  Biso   1.000  H
  H151     1.0000 0.67650  0.85670  0.36970  Biso   1.000  H
  H152     1.0000 0.32350  0.85670  0.13030  Biso   1.000  H
  H153     1.0000 0.90990  0.61750  0.62090  Biso   1.000  H
  H154     1.0000 0.09010  0.61750  0.87910  Biso   1.000  H
  H155     1.0000 0.40990  0.11750  0.62090  Biso   1.000  H
  H156     1.0000 0.59010  0.11750  0.87910  Biso   1.000  H
  H157     1.0000 0.09010  0.38250  0.37910  Biso   1.000  H
  H158     1.0000 0.90990  0.38250  0.12090  Biso   1.000  H
  H159     1.0000 0.59010  0.88250  0.37910  Biso   1.000  H
  H160     1.0000 0.40990  0.88250  0.12090  Biso   1.000  H
  C105     1.0000 0.99570  0.63010  0.52550  Biso   1.000  C
  C106     1.0000 0.00430  0.63010  0.97450  Biso   1.000  C
  C107     1.0000 0.49570  0.13010  0.52550  Biso   1.000  C
  C108     1.0000 0.50430  0.13010  0.97450  Biso   1.000  C
  C109     1.0000 0.00430  0.36990  0.47450  Biso   1.000  C
  C110     1.0000 0.99570  0.36990  0.02550  Biso   1.000  C
  C111     1.0000 0.50430  0.86990  0.47450  Biso   1.000  C
  C112     1.0000 0.49570  0.86990  0.02550  Biso   1.000  C
  H161     1.0000 0.02760  0.60930  0.54560  Biso   1.000  H
  H162     1.0000 0.97240  0.60930  0.95440  Biso   1.000  H
  H163     1.0000 0.52760  0.10930  0.54560  Biso   1.000  H
  H164     1.0000 0.47240  0.10930  0.95440  Biso   1.000  H
  H165     1.0000 0.97240  0.39070  0.45440  Biso   1.000  H
  H166     1.0000 0.02760  0.39070  0.04560  Biso   1.000  H
  H167     1.0000 0.47240  0.89070  0.45440  Biso   1.000  H
  H168     1.0000 0.52760  0.89070  0.04560  Biso   1.000  H
  H169     1.0000 0.02670  0.63070  0.50030  Biso   1.000  H
  H170     1.0000 0.97330  0.63070  0.99970  Biso   1.000  H
  H171     1.0000 0.52670  0.13070  0.50030  Biso   1.000  H
  H172     1.0000 0.47330  0.13070  0.99970  Biso   1.000  H
  H173     1.0000 0.97330  0.36930  0.49970  Biso   1.000  H
  H174     1.0000 0.02670  0.36930  0.00030  Biso   1.000  H
  H175     1.0000 0.47330  0.86930  0.49970  Biso   1.000  H
  H176     1.0000 0.52670  0.86930  0.00030  Biso   1.000  H
  C113     1.0000 0.72700  0.61600  0.56620  Biso   1.000  C
  C114     1.0000 0.27300  0.61600  0.93380  Biso   1.000  C
  C115     1.0000 0.22700  0.11600  0.56620  Biso   1.000  C
  C116     1.0000 0.77300  0.11600  0.93380  Biso   1.000  C
  C117     1.0000 0.27300  0.38400  0.43380  Biso   1.000  C
  C118     1.0000 0.72700  0.38400  0.06620  Biso   1.000  C
  C119     1.0000 0.77300  0.88400  0.43380  Biso   1.000  C
  C120     1.0000 0.22700  0.88400  0.06620  Biso   1.000  C
  C121     1.0000 0.85680  0.58770  0.54330  Biso   1.000  C
  C122     1.0000 0.14320  0.58770  0.95670  Biso   1.000  C
  C123     1.0000 0.35680  0.08770  0.54330  Biso   1.000  C
  C124     1.0000 0.64320  0.08770  0.95670  Biso   1.000  C
  C125     1.0000 0.14320  0.41230  0.45670  Biso   1.000  C
  C126     1.0000 0.85680  0.41230  0.04330  Biso   1.000  C
  C127     1.0000 0.64320  0.91230  0.45670  Biso   1.000  C
  C128     1.0000 0.35680  0.91230  0.04330  Biso   1.000  C
  H177     1.0000 0.89190  0.56310  0.55800  Biso   1.000  H
  H178     1.0000 0.10810  0.56310  0.94200  Biso   1.000  H
  H179     1.0000 0.39190  0.06310  0.55800  Biso   1.000  H
  H180     1.0000 0.60810  0.06310  0.94200  Biso   1.000  H
  H181     1.0000 0.10810  0.43690  0.44200  Biso   1.000  H
  H182     1.0000 0.89190  0.43690  0.05800  Biso   1.000  H
  H183     1.0000 0.60810  0.93690  0.44200  Biso   1.000  H
  H184     1.0000 0.39190  0.93690  0.05800  Biso   1.000  H
  C129     1.0000 0.77830  0.56870  0.51450  Biso   1.000  C
  C130     1.0000 0.22170  0.56870  0.98550  Biso   1.000  C
  C131     1.0000 0.27830  0.06870  0.51450  Biso   1.000  C
  C132     1.0000 0.72170  0.06870  0.98550  Biso   1.000  C
  C133     1.0000 0.22170  0.43130  0.48550  Biso   1.000  C
  C134     1.0000 0.77830  0.43130  0.01450  Biso   1.000  C
  C135     1.0000 0.72170  0.93130  0.48550  Biso   1.000  C
  C136     1.0000 0.27830  0.93130  0.01450  Biso   1.000  C
  H185     1.0000 0.77690  0.53520  0.51450  Biso   1.000  H
  H186     1.0000 0.22310  0.53520  0.98550  Biso   1.000  H
  H187     1.0000 0.27690  0.03520  0.51450  Biso   1.000  H
  H188     1.0000 0.72310  0.03520  0.98550  Biso   1.000  H
  H189     1.0000 0.22310  0.46480  0.48550  Biso   1.000  H
  H190     1.0000 0.77690  0.46480  0.01450  Biso   1.000  H
  H191     1.0000 0.72310  0.96480  0.48550  Biso   1.000  H
  H192     1.0000 0.27690  0.96480  0.01450  Biso   1.000  H
  C137     1.0000 0.60960  0.57870  0.51800  Biso   1.000  C
  C138     1.0000 0.39040  0.57870  0.98200  Biso   1.000  C
  C139     1.0000 0.10960  0.07870  0.51800  Biso   1.000  C
  C140     1.0000 0.89040  0.07870  0.98200  Biso   1.000  C
  C141     1.0000 0.39040  0.42130  0.48200  Biso   1.000  C
  C142     1.0000 0.60960  0.42130  0.01800  Biso   1.000  C
  C143     1.0000 0.89040  0.92130  0.48200  Biso   1.000  C
  C144     1.0000 0.10960  0.92130  0.01800  Biso   1.000  C
  H193     1.0000 0.57540  0.57960  0.54220  Biso   1.000  H
  H194     1.0000 0.42460  0.57960  0.95780  Biso   1.000  H
  H195     1.0000 0.07540  0.07960  0.54220  Biso   1.000  H
  H196     1.0000 0.92460  0.07960  0.95780  Biso   1.000  H
  H197     1.0000 0.42460  0.42040  0.45780  Biso   1.000  H
  H198     1.0000 0.57540  0.42040  0.04220  Biso   1.000  H
  H199     1.0000 0.92460  0.92040  0.45780  Biso   1.000  H
  H200     1.0000 0.07540  0.92040  0.04220  Biso   1.000  H
  H201     1.0000 0.60630  0.54780  0.50680  Biso   1.000  H
  H202     1.0000 0.39370  0.54780  0.99320  Biso   1.000  H
  H203     1.0000 0.10630  0.04780  0.50680  Biso   1.000  H
  H204     1.0000 0.89370  0.04780  0.99320  Biso   1.000  H
  H205     1.0000 0.39370  0.45220  0.49320  Biso   1.000  H
  H206     1.0000 0.60630  0.45220  0.00680  Biso   1.000  H
  H207     1.0000 0.89370  0.95220  0.49320  Biso   1.000  H
  H208     1.0000 0.10630  0.95220  0.00680  Biso   1.000  H
  C145     1.0000 0.39760  0.69550  0.68020  Biso   1.000  C
  C146     1.0000 0.60240  0.69550  0.81980  Biso   1.000  C
  C147     1.0000 0.89760  0.19550  0.68020  Biso   1.000  C
  C148     1.0000 0.10240  0.19550  0.81980  Biso   1.000  C
  C149     1.0000 0.60240  0.30450  0.31980  Biso   1.000  C
  C150     1.0000 0.39760  0.30450  0.18020  Biso   1.000  C
  C151     1.0000 0.10240  0.80450  0.31980  Biso   1.000  C
  C152     1.0000 0.89760  0.80450  0.18020  Biso   1.000  C
  C153     1.0000 0.51450  0.75270  0.69820  Biso   1.000  C
  C154     1.0000 0.48550  0.75270  0.80180  Biso   1.000  C
  C155     1.0000 0.01450  0.25270  0.69820  Biso   1.000  C
  C156     1.0000 0.98550  0.25270  0.80180  Biso   1.000  C
  C157     1.0000 0.48550  0.24730  0.30180  Biso   1.000  C
  C158     1.0000 0.51450  0.24730  0.19820  Biso   1.000  C
  C159     1.0000 0.98550  0.74730  0.30180  Biso   1.000  C
  C160     1.0000 0.01450  0.74730  0.19820  Biso   1.000  C
  H209     1.0000 0.51250  0.78470  0.70630  Biso   1.000  H
  H210     1.0000 0.48750  0.78470  0.79370  Biso   1.000  H
  H211     1.0000 0.01250  0.28470  0.70630  Biso   1.000  H
  H212     1.0000 0.98750  0.28470  0.79370  Biso   1.000  H
  H213     1.0000 0.48750  0.21530  0.29370  Biso   1.000  H
  H214     1.0000 0.51250  0.21530  0.20630  Biso   1.000  H
  H215     1.0000 0.98750  0.71530  0.29370  Biso   1.000  H
  H216     1.0000 0.01250  0.71530  0.20630  Biso   1.000  H
  H217     1.0000 0.52190  0.75160  0.66830  Biso   1.000  H
  H218     1.0000 0.47810  0.75160  0.83170  Biso   1.000  H
  H219     1.0000 0.02190  0.25160  0.66830  Biso   1.000  H
  H220     1.0000 0.97810  0.25160  0.83170  Biso   1.000  H
  H221     1.0000 0.47810  0.24840  0.33170  Biso   1.000  H
  H222     1.0000 0.52190  0.24840  0.16830  Biso   1.000  H
  H223     1.0000 0.97810  0.74840  0.33170  Biso   1.000  H
  H224     1.0000 0.02190  0.74840  0.16830  Biso   1.000  H
  C161     1.0000 0.64010  0.69910  0.70550  Biso   1.000  C
  C162     1.0000 0.35990  0.69910  0.79450  Biso   1.000  C
  C163     1.0000 0.14010  0.19910  0.70550  Biso   1.000  C
  C164     1.0000 0.85990  0.19910  0.79450  Biso   1.000  C
  C165     1.0000 0.35990  0.30090  0.29450  Biso   1.000  C
  C166     1.0000 0.64010  0.30090  0.20550  Biso   1.000  C
  C167     1.0000 0.85990  0.80090  0.29450  Biso   1.000  C
  C168     1.0000 0.14010  0.80090  0.20550  Biso   1.000  C
  C169     1.0000 0.62430  0.74380  0.76380  Biso   1.000  C
  C170     1.0000 0.37570  0.74380  0.73620  Biso   1.000  C
  C171     1.0000 0.12430  0.24380  0.76380  Biso   1.000  C
  C172     1.0000 0.87570  0.24380  0.73620  Biso   1.000  C
  C173     1.0000 0.37570  0.25620  0.23620  Biso   1.000  C
  C174     1.0000 0.62430  0.25620  0.26380  Biso   1.000  C
  C175     1.0000 0.87570  0.75620  0.23620  Biso   1.000  C
  C176     1.0000 0.12430  0.75620  0.26380  Biso   1.000  C
  H225     1.0000 0.64150  0.77620  0.76570  Biso   1.000  H
  H226     1.0000 0.35850  0.77620  0.73430  Biso   1.000  H
  H227     1.0000 0.14150  0.27620  0.76570  Biso   1.000  H
  H228     1.0000 0.85850  0.27620  0.73430  Biso   1.000  H
  H229     1.0000 0.35850  0.22380  0.23430  Biso   1.000  H
  H230     1.0000 0.64150  0.22380  0.26570  Biso   1.000  H
  H231     1.0000 0.85850  0.72380  0.23430  Biso   1.000  H
  H232     1.0000 0.14150  0.72380  0.26570  Biso   1.000  H
  C177     1.0000 0.70590  0.71150  0.77360  Biso   1.000  C
  C178     1.0000 0.29410  0.71150  0.72640  Biso   1.000  C
  C179     1.0000 0.20590  0.21150  0.77360  Biso   1.000  C
  C180     1.0000 0.79410  0.21150  0.72640  Biso   1.000  C
  C181     1.0000 0.29410  0.28850  0.22640  Biso   1.000  C
  C182     1.0000 0.70590  0.28850  0.27360  Biso   1.000  C
  C183     1.0000 0.79410  0.78850  0.22640  Biso   1.000  C
  C184     1.0000 0.20590  0.78850  0.27360  Biso   1.000  C
  H233     1.0000 0.76090  0.72860  0.78160  Biso   1.000  H
  H234     1.0000 0.23910  0.72860  0.71840  Biso   1.000  H
  H235     1.0000 0.26090  0.22860  0.78160  Biso   1.000  H
  H236     1.0000 0.73910  0.22860  0.71840  Biso   1.000  H
  H237     1.0000 0.23910  0.27140  0.21840  Biso   1.000  H
  H238     1.0000 0.76090  0.27140  0.28160  Biso   1.000  H
  H239     1.0000 0.73910  0.77140  0.21840  Biso   1.000  H
  H240     1.0000 0.26090  0.77140  0.28160  Biso   1.000  H
  C185     1.0000 0.78010  0.65750  0.72500  Biso   1.000  C
  C186     1.0000 0.21990  0.65750  0.77500  Biso   1.000  C
  C187     1.0000 0.28010  0.15750  0.72500  Biso   1.000  C
  C188     1.0000 0.71990  0.15750  0.77500  Biso   1.000  C
  C189     1.0000 0.21990  0.34250  0.27500  Biso   1.000  C
  C190     1.0000 0.78010  0.34250  0.22500  Biso   1.000  C
  C191     1.0000 0.71990  0.84250  0.27500  Biso   1.000  C
  C192     1.0000 0.28010  0.84250  0.22500  Biso   1.000  C
  H241     1.0000 0.78110  0.65570  0.69460  Biso   1.000  H
  H242     1.0000 0.21890  0.65570  0.80540  Biso   1.000  H
  H243     1.0000 0.28110  0.15570  0.69460  Biso   1.000  H
  H244     1.0000 0.71890  0.15570  0.80540  Biso   1.000  H
  H245     1.0000 0.21890  0.34430  0.30540  Biso   1.000  H
  H246     1.0000 0.78110  0.34430  0.19460  Biso   1.000  H
  H247     1.0000 0.71890  0.84430  0.30540  Biso   1.000  H
  H248     1.0000 0.28110  0.84430  0.19460  Biso   1.000  H
  H249     1.0000 0.83610  0.67060  0.73690  Biso   1.000  H
  H250     1.0000 0.16390  0.67060  0.76310  Biso   1.000  H
  H251     1.0000 0.33610  0.17060  0.73690  Biso   1.000  H
  H252     1.0000 0.66390  0.17060  0.76310  Biso   1.000  H
  H253     1.0000 0.16390  0.32940  0.26310  Biso   1.000  H
  H254     1.0000 0.83610  0.32940  0.23690  Biso   1.000  H
  H255     1.0000 0.66390  0.82940  0.26310  Biso   1.000  H
  H256     1.0000 0.33610  0.82940  0.23690  Biso   1.000  H
  C193     1.0000 0.74170  0.65420  0.83320  Biso   1.000  C
  C194     1.0000 0.25830  0.65420  0.66680  Biso   1.000  C
  C195     1.0000 0.24170  0.15420  0.83320  Biso   1.000  C
  C196     1.0000 0.75830  0.15420  0.66680  Biso   1.000  C
  C197     1.0000 0.25830  0.34580  0.16680  Biso   1.000  C
  C198     1.0000 0.74170  0.34580  0.33320  Biso   1.000  C
  C199     1.0000 0.75830  0.84580  0.16680  Biso   1.000  C
  C200     1.0000 0.24170  0.84580  0.33320  Biso   1.000  C
  H257     1.0000 0.80000  0.66850  0.83670  Biso   1.000  H
  H258     1.0000 0.20000  0.66850  0.66330  Biso   1.000  H
  H259     1.0000 0.30000  0.16850  0.83670  Biso   1.000  H
  H260     1.0000 0.70000  0.16850  0.66330  Biso   1.000  H
  H261     1.0000 0.20000  0.33150  0.16330  Biso   1.000  H
  H262     1.0000 0.80000  0.33150  0.33670  Biso   1.000  H
  H263     1.0000 0.70000  0.83150  0.16330  Biso   1.000  H
  H264     1.0000 0.30000  0.83150  0.33670  Biso   1.000  H
  H265     1.0000 0.72130  0.65150  0.86100  Biso   1.000  H
  H266     1.0000 0.27870  0.65150  0.63900  Biso   1.000  H
  H267     1.0000 0.22130  0.15150  0.86100  Biso   1.000  H
  H268     1.0000 0.77870  0.15150  0.63900  Biso   1.000  H
  H269     1.0000 0.27870  0.34850  0.13900  Biso   1.000  H
  H270     1.0000 0.72130  0.34850  0.36100  Biso   1.000  H
  H271     1.0000 0.77870  0.84850  0.13900  Biso   1.000  H
  H272     1.0000 0.22130  0.84850  0.36100  Biso   1.000  H
  C201     1.0000 0.80930  0.59900  0.78350  Biso   1.000  C
  C202     1.0000 0.19070  0.59900  0.71650  Biso   1.000  C
  C203     1.0000 0.30930  0.09900  0.78350  Biso   1.000  C
  C204     1.0000 0.69070  0.09900  0.71650  Biso   1.000  C
  C205     1.0000 0.19070  0.40100  0.21650  Biso   1.000  C
  C206     1.0000 0.80930  0.40100  0.28350  Biso   1.000  C
  C207     1.0000 0.69070  0.90100  0.21650  Biso   1.000  C
  C208     1.0000 0.30930  0.90100  0.28350  Biso   1.000  C
  H273     1.0000 0.86880  0.61190  0.79090  Biso   1.000  H
  H274     1.0000 0.13120  0.61190  0.70910  Biso   1.000  H
  H275     1.0000 0.36880  0.11190  0.79090  Biso   1.000  H
  H276     1.0000 0.63120  0.11190  0.70910  Biso   1.000  H
  H277     1.0000 0.13120  0.38810  0.20910  Biso   1.000  H
  H278     1.0000 0.86880  0.38810  0.29090  Biso   1.000  H
  H279     1.0000 0.63120  0.88810  0.20910  Biso   1.000  H
  H280     1.0000 0.36880  0.88810  0.29090  Biso   1.000  H
  C209     1.0000 0.75750  0.57410  0.71640  Biso   1.000  C
  C210     1.0000 0.24250  0.57410  0.78360  Biso   1.000  C
  C211     1.0000 0.25750  0.07410  0.71640  Biso   1.000  C
  C212     1.0000 0.74250  0.07410  0.78360  Biso   1.000  C
  C213     1.0000 0.24250  0.42590  0.28360  Biso   1.000  C
  C214     1.0000 0.75750  0.42590  0.21640  Biso   1.000  C
  C215     1.0000 0.74250  0.92590  0.28360  Biso   1.000  C
  C216     1.0000 0.25750  0.92590  0.21640  Biso   1.000  C
  C217     1.0000 0.81070  0.54630  0.78290  Biso   1.000  C
  C218     1.0000 0.18930  0.54630  0.71710  Biso   1.000  C
  C219     1.0000 0.31070  0.04630  0.78290  Biso   1.000  C
  C220     1.0000 0.68930  0.04630  0.71710  Biso   1.000  C
  C221     1.0000 0.18930  0.45370  0.21710  Biso   1.000  C
  C222     1.0000 0.81070  0.45370  0.28290  Biso   1.000  C
  C223     1.0000 0.68930  0.95370  0.21710  Biso   1.000  C
  C224     1.0000 0.31070  0.95370  0.28290  Biso   1.000  C
  H281     1.0000 0.87070  0.53390  0.78980  Biso   1.000  H
  H282     1.0000 0.12930  0.53390  0.71020  Biso   1.000  H
  H283     1.0000 0.37070  0.03390  0.78980  Biso   1.000  H
  H284     1.0000 0.62930  0.03390  0.71020  Biso   1.000  H
  H285     1.0000 0.12930  0.46610  0.21020  Biso   1.000  H
  H286     1.0000 0.87070  0.46610  0.28980  Biso   1.000  H
  H287     1.0000 0.62930  0.96610  0.21020  Biso   1.000  H
  H288     1.0000 0.37070  0.96610  0.28980  Biso   1.000  H
  C225     1.0000 0.72160  0.57060  0.83490  Biso   1.000  C
  C226     1.0000 0.27840  0.57060  0.66510  Biso   1.000  C
  C227     1.0000 0.22160  0.07060  0.83490  Biso   1.000  C
  C228     1.0000 0.77840  0.07060  0.66510  Biso   1.000  C
  C229     1.0000 0.27840  0.42940  0.16510  Biso   1.000  C
  C230     1.0000 0.72160  0.42940  0.33490  Biso   1.000  C
  C231     1.0000 0.77840  0.92940  0.16510  Biso   1.000  C
  C232     1.0000 0.22160  0.92940  0.33490  Biso   1.000  C
  C233     1.0000 0.77600  0.49060  0.72320  Biso   1.000  C
  C234     1.0000 0.22400  0.49060  0.77680  Biso   1.000  C
  C235     1.0000 0.27600  0.99060  0.72320  Biso   1.000  C
  C236     1.0000 0.72400  0.99060  0.77680  Biso   1.000  C
  C237     1.0000 0.22400  0.50940  0.27680  Biso   1.000  C
  C238     1.0000 0.77600  0.50940  0.22320  Biso   1.000  C
  C239     1.0000 0.72400  0.00940  0.27680  Biso   1.000  C
  C240     1.0000 0.27600  0.00940  0.22320  Biso   1.000  C
  H289     1.0000 0.83170  0.47590  0.73340  Biso   1.000  H
  H290     1.0000 0.16830  0.47590  0.76660  Biso   1.000  H
  H291     1.0000 0.33170  0.97590  0.73340  Biso   1.000  H
  H292     1.0000 0.66830  0.97590  0.76660  Biso   1.000  H
  H293     1.0000 0.16830  0.52410  0.26660  Biso   1.000  H
  H294     1.0000 0.83170  0.52410  0.23340  Biso   1.000  H
  H295     1.0000 0.66830  0.02410  0.26660  Biso   1.000  H
  H296     1.0000 0.33170  0.02410  0.23340  Biso   1.000  H
  H297     1.0000 0.77260  0.49220  0.69260  Biso   1.000  H
  H298     1.0000 0.22740  0.49220  0.80740  Biso   1.000  H
  H299     1.0000 0.27260  0.99220  0.69260  Biso   1.000  H
  H300     1.0000 0.72740  0.99220  0.80740  Biso   1.000  H
  H301     1.0000 0.22740  0.50780  0.30740  Biso   1.000  H
  H302     1.0000 0.77260  0.50780  0.19260  Biso   1.000  H
  H303     1.0000 0.72740  0.00780  0.30740  Biso   1.000  H
  H304     1.0000 0.27260  0.00780  0.19260  Biso   1.000  H
  C241     1.0000 0.75410  0.48820  0.83270  Biso   1.000  C
  C242     1.0000 0.24590  0.48820  0.66730  Biso   1.000  C
  C243     1.0000 0.25410  0.98820  0.83270  Biso   1.000  C
  C244     1.0000 0.74590  0.98820  0.66730  Biso   1.000  C
  C245     1.0000 0.24590  0.51180  0.16730  Biso   1.000  C
  C246     1.0000 0.75410  0.51180  0.33270  Biso   1.000  C
  C247     1.0000 0.74590  0.01180  0.16730  Biso   1.000  C
  C248     1.0000 0.25410  0.01180  0.33270  Biso   1.000  C
  H305     1.0000 0.81360  0.47590  0.83270  Biso   1.000  H
  H306     1.0000 0.18640  0.47590  0.66730  Biso   1.000  H
  H307     1.0000 0.31360  0.97590  0.83270  Biso   1.000  H
  H308     1.0000 0.68640  0.97590  0.66730  Biso   1.000  H
  H309     1.0000 0.18640  0.52410  0.16730  Biso   1.000  H
  H310     1.0000 0.81360  0.52410  0.33270  Biso   1.000  H
  H311     1.0000 0.68640  0.02410  0.16730  Biso   1.000  H
  H312     1.0000 0.31360  0.02410  0.33270  Biso   1.000  H
  H313     1.0000 0.74120  0.49050  0.86190  Biso   1.000  H
  H314     1.0000 0.25880  0.49050  0.63810  Biso   1.000  H
  H315     1.0000 0.24120  0.99050  0.86190  Biso   1.000  H
  H316     1.0000 0.75880  0.99050  0.63810  Biso   1.000  H
  H317     1.0000 0.25880  0.50950  0.13810  Biso   1.000  H
  H318     1.0000 0.74120  0.50950  0.36190  Biso   1.000  H
  H319     1.0000 0.75880  0.00950  0.13810  Biso   1.000  H
  H320     1.0000 0.24120  0.00950  0.36190  Biso   1.000  H
  C249     1.0000 0.70870  0.43400  0.77110  Biso   1.000  C
  C250     1.0000 0.29130  0.43400  0.72890  Biso   1.000  C
  C251     1.0000 0.20870  0.93400  0.77110  Biso   1.000  C
  C252     1.0000 0.79130  0.93400  0.72890  Biso   1.000  C
  C253     1.0000 0.29130  0.56600  0.22890  Biso   1.000  C
  C254     1.0000 0.70870  0.56600  0.27110  Biso   1.000  C
  C255     1.0000 0.79130  0.06600  0.22890  Biso   1.000  C
  C256     1.0000 0.20870  0.06600  0.27110  Biso   1.000  C
  H321     1.0000 0.76380  0.41610  0.77420  Biso   1.000  H
  H322     1.0000 0.23620  0.41610  0.72580  Biso   1.000  H
  H323     1.0000 0.26380  0.91610  0.77420  Biso   1.000  H
  H324     1.0000 0.73620  0.91610  0.72580  Biso   1.000  H
  H325     1.0000 0.23620  0.58390  0.22580  Biso   1.000  H
  H326     1.0000 0.76380  0.58390  0.27420  Biso   1.000  H
  H327     1.0000 0.73620  0.08390  0.22580  Biso   1.000  H
  H328     1.0000 0.26380  0.08390  0.27420  Biso   1.000  H
  C257     1.0000 0.61320  0.44440  0.82600  Biso   1.000  C
  C258     1.0000 0.38680  0.44440  0.67400  Biso   1.000  C
  C259     1.0000 0.11320  0.94440  0.82600  Biso   1.000  C
  C260     1.0000 0.88680  0.94440  0.67400  Biso   1.000  C
  C261     1.0000 0.38680  0.55560  0.17400  Biso   1.000  C
  C262     1.0000 0.61320  0.55560  0.32600  Biso   1.000  C
  C263     1.0000 0.88680  0.05560  0.17400  Biso   1.000  C
  C264     1.0000 0.11320  0.05560  0.32600  Biso   1.000  C
  C265     1.0000 0.48850  0.39480  0.80320  Biso   1.000  C
  C266     1.0000 0.51150  0.39480  0.69680  Biso   1.000  C
  C267     1.0000 0.98850  0.89480  0.80320  Biso   1.000  C
  C268     1.0000 0.01150  0.89480  0.69680  Biso   1.000  C
  C269     1.0000 0.51150  0.60520  0.19680  Biso   1.000  C
  C270     1.0000 0.48850  0.60520  0.30320  Biso   1.000  C
  C271     1.0000 0.01150  0.10520  0.19680  Biso   1.000  C
  C272     1.0000 0.98850  0.10520  0.30320  Biso   1.000  C
  H329     1.0000 0.47940  0.39670  0.83290  Biso   1.000  H
  H330     1.0000 0.52060  0.39670  0.66710  Biso   1.000  H
  H331     1.0000 0.97940  0.89670  0.83290  Biso   1.000  H
  H332     1.0000 0.02060  0.89670  0.66710  Biso   1.000  H
  H333     1.0000 0.52060  0.60330  0.16710  Biso   1.000  H
  H334     1.0000 0.47940  0.60330  0.33290  Biso   1.000  H
  H335     1.0000 0.02060  0.10330  0.16710  Biso   1.000  H
  H336     1.0000 0.97940  0.10330  0.33290  Biso   1.000  H
  H337     1.0000 0.48710  0.36270  0.79530  Biso   1.000  H
  H338     1.0000 0.51290  0.36270  0.70470  Biso   1.000  H
  H339     1.0000 0.98710  0.86270  0.79530  Biso   1.000  H
  H340     1.0000 0.01290  0.86270  0.70470  Biso   1.000  H
  H341     1.0000 0.51290  0.63730  0.20470  Biso   1.000  H
  H342     1.0000 0.48710  0.63730  0.29530  Biso   1.000  H
  H343     1.0000 0.01290  0.13730  0.20470  Biso   1.000  H
  H344     1.0000 0.98710  0.13730  0.29530  Biso   1.000  H
  C273     1.0000 0.63360  0.45170  0.70510  Biso   1.000  C
  C274     1.0000 0.36640  0.45170  0.79490  Biso   1.000  C
  C275     1.0000 0.13360  0.95170  0.70510  Biso   1.000  C
  C276     1.0000 0.86640  0.95170  0.79490  Biso   1.000  C
  C277     1.0000 0.36640  0.54830  0.29490  Biso   1.000  C
  C278     1.0000 0.63360  0.54830  0.20510  Biso   1.000  C
  C279     1.0000 0.86640  0.04830  0.29490  Biso   1.000  C
  C280     1.0000 0.13360  0.04830  0.20510  Biso   1.000  C
  C281     1.0000 0.62450  0.40350  0.76230  Biso   1.000  C
  C282     1.0000 0.37550  0.40350  0.73770  Biso   1.000  C
  C283     1.0000 0.12450  0.90350  0.76230  Biso   1.000  C
  C284     1.0000 0.87550  0.90350  0.73770  Biso   1.000  C
  C285     1.0000 0.37550  0.59650  0.23770  Biso   1.000  C
  C286     1.0000 0.62450  0.59650  0.26230  Biso   1.000  C
  C287     1.0000 0.87550  0.09650  0.23770  Biso   1.000  C
  C288     1.0000 0.12450  0.09650  0.26230  Biso   1.000  C
  H345     1.0000 0.64030  0.37100  0.76150  Biso   1.000  H
  H346     1.0000 0.35970  0.37100  0.73850  Biso   1.000  H
  H347     1.0000 0.14030  0.87100  0.76150  Biso   1.000  H
  H348     1.0000 0.85970  0.87100  0.73850  Biso   1.000  H
  H349     1.0000 0.35970  0.62900  0.23850  Biso   1.000  H
  H350     1.0000 0.64030  0.62900  0.26150  Biso   1.000  H
  H351     1.0000 0.85970  0.12900  0.23850  Biso   1.000  H
  H352     1.0000 0.14030  0.12900  0.26150  Biso   1.000  H
  Cl25     1.0000 0.06310  0.56188  0.62163  Biso   1.000  Cl
  Cl26     1.0000 0.93690  0.56188  0.87837  Biso   1.000  Cl
  Cl27     1.0000 0.56310  0.06188  0.62163  Biso   1.000  Cl
  Cl28     1.0000 0.43690  0.06188  0.87837  Biso   1.000  Cl
  Cl29     1.0000 0.93690  0.43812  0.37837  Biso   1.000  Cl
  Cl30     1.0000 0.06310  0.43812  0.12163  Biso   1.000  Cl
  Cl31     1.0000 0.43690  0.93812  0.37837  Biso   1.000  Cl
  Cl32     1.0000 0.56310  0.93812  0.12163  Biso   1.000  Cl
  Cl33     1.0000 0.62420  0.46374  0.47851  Biso   1.000  Cl
  Cl34     1.0000 0.37580  0.46374  0.02149  Biso   1.000  Cl
  Cl35     1.0000 0.12420  0.96374  0.47851  Biso   1.000  Cl
  Cl36     1.0000 0.87580  0.96374  0.02149  Biso   1.000  Cl
  Cl37     1.0000 0.37580  0.53626  0.52149  Biso   1.000  Cl
  Cl38     1.0000 0.62420  0.53626  0.97851  Biso   1.000  Cl
  Cl39     1.0000 0.87580  0.03626  0.52149  Biso   1.000  Cl
  Cl40     1.0000 0.12420  0.03626  0.97851  Biso   1.000  Cl
  Cl41     1.0000 0.26280  0.75450  0.60849  Biso   1.000  Cl
  Cl42     1.0000 0.73720  0.75450  0.89151  Biso   1.000  Cl
  Cl43     1.0000 0.76280  0.25450  0.60849  Biso   1.000  Cl
  Cl44     1.0000 0.23720  0.25450  0.89151  Biso   1.000  Cl
  Cl45     1.0000 0.73720  0.24550  0.39151  Biso   1.000  Cl
  Cl46     1.0000 0.26280  0.24550  0.10849  Biso   1.000  Cl
  Cl47     1.0000 0.23720  0.74550  0.39151  Biso   1.000  Cl
  Cl48     1.0000 0.76280  0.74550  0.10849  Biso   1.000  Cl
