data_image0
_cell_length_a       19.211
_cell_length_b       21.221
_cell_length_c       19.79
_cell_angle_alpha    90
_cell_angle_beta     100.62
_cell_angle_gamma    90

_symmetry_space_group_name_H-M    "P 1"
_symmetry_int_tables_number       1

loop_
  _symmetry_equiv_pos_as_xyz
  'x, y, z'

loop_
  _atom_site_label
  _atom_site_occupancy
  _atom_site_fract_x
  _atom_site_fract_y
  _atom_site_fract_z
  _atom_site_thermal_displace_type
  _atom_site_B_iso_or_equiv
  _atom_site_type_symbol
  Rb1      1.0000 0.95888  0.27934  0.07624  Biso   1.000  Rb
  Rb2      1.0000 0.45888  0.77934  0.07624  Biso   1.000  Rb
  Rb3      1.0000 0.04112  0.27934  0.42376  Biso   1.000  Rb
  Rb4      1.0000 0.54112  0.77934  0.42376  Biso   1.000  Rb
  Rb5      1.0000 0.04112  0.72066  0.92376  Biso   1.000  Rb
  Rb6      1.0000 0.54112  0.22066  0.92376  Biso   1.000  Rb
  Rb7      1.0000 0.95888  0.72066  0.57624  Biso   1.000  Rb
  Rb8      1.0000 0.45888  0.22066  0.57624  Biso   1.000  Rb
  Rb9      1.0000 0.15236  0.13236  0.35938  Biso   1.000  Rb
  Rb10     1.0000 0.65236  0.63236  0.35938  Biso   1.000  Rb
  Rb11     1.0000 0.84764  0.13236  0.14062  Biso   1.000  Rb
  Rb12     1.0000 0.34764  0.63236  0.14062  Biso   1.000  Rb
  Rb13     1.0000 0.84764  0.86764  0.64062  Biso   1.000  Rb
  Rb14     1.0000 0.34764  0.36764  0.64062  Biso   1.000  Rb
  Rb15     1.0000 0.15236  0.86764  0.85938  Biso   1.000  Rb
  Rb16     1.0000 0.65236  0.36764  0.85938  Biso   1.000  Rb
  Cu1      1.0000 0.00000  0.20965  0.25000  Biso   1.000  Cu
  Cu2      1.0000 0.50000  0.70965  0.25000  Biso   1.000  Cu
  Cu3      1.0000 0.00000  0.79035  0.75000  Biso   1.000  Cu
  Cu4      1.0000 0.50000  0.29035  0.75000  Biso   1.000  Cu
  Cu5      1.0000 0.71130  0.19803  0.02254  Biso   1.000  Cu
  Cu6      1.0000 0.21130  0.69803  0.02254  Biso   1.000  Cu
  Cu7      1.0000 0.28870  0.19803  0.47746  Biso   1.000  Cu
  Cu8      1.0000 0.78870  0.69803  0.47746  Biso   1.000  Cu
  Cu9      1.0000 0.28870  0.80197  0.97746  Biso   1.000  Cu
  Cu10     1.0000 0.78870  0.30197  0.97746  Biso   1.000  Cu
  Cu11     1.0000 0.71130  0.80197  0.52254  Biso   1.000  Cu
  Cu12     1.0000 0.21130  0.30197  0.52254  Biso   1.000  Cu
  O1       1.0000 0.78980  0.25186  0.05698  Biso   1.000  O
  O2       1.0000 0.28980  0.75186  0.05698  Biso   1.000  O
  O3       1.0000 0.21020  0.25186  0.44302  Biso   1.000  O
  O4       1.0000 0.71020  0.75186  0.44302  Biso   1.000  O
  O5       1.0000 0.21020  0.74814  0.94302  Biso   1.000  O
  O6       1.0000 0.71020  0.24814  0.94302  Biso   1.000  O
  O7       1.0000 0.78980  0.74814  0.55698  Biso   1.000  O
  O8       1.0000 0.28980  0.24814  0.55698  Biso   1.000  O
  O9       1.0000 0.05200  0.27430  0.21006  Biso   1.000  O
  O10      1.0000 0.55200  0.77430  0.21006  Biso   1.000  O
  O11      1.0000 0.94800  0.27430  0.28994  Biso   1.000  O
  O12      1.0000 0.44800  0.77430  0.28994  Biso   1.000  O
  O13      1.0000 0.94800  0.72570  0.78994  Biso   1.000  O
  O14      1.0000 0.44800  0.22570  0.78994  Biso   1.000  O
  O15      1.0000 0.05200  0.72570  0.71006  Biso   1.000  O
  O16      1.0000 0.55200  0.22570  0.71006  Biso   1.000  O
  C1       1.0000 0.10740  0.28890  0.25270  Biso   1.000  C
  C2       1.0000 0.60740  0.78890  0.25270  Biso   1.000  C
  C3       1.0000 0.89260  0.28890  0.24730  Biso   1.000  C
  C4       1.0000 0.39260  0.78890  0.24730  Biso   1.000  C
  C5       1.0000 0.89260  0.71110  0.74730  Biso   1.000  C
  C6       1.0000 0.39260  0.21110  0.74730  Biso   1.000  C
  C7       1.0000 0.10740  0.71110  0.75270  Biso   1.000  C
  C8       1.0000 0.60740  0.21110  0.75270  Biso   1.000  C
  C9       1.0000 0.15690  0.33620  0.22770  Biso   1.000  C
  C10      1.0000 0.65690  0.83620  0.22770  Biso   1.000  C
  C11      1.0000 0.84310  0.33620  0.27230  Biso   1.000  C
  C12      1.0000 0.34310  0.83620  0.27230  Biso   1.000  C
  C13      1.0000 0.84310  0.66380  0.77230  Biso   1.000  C
  C14      1.0000 0.34310  0.16380  0.77230  Biso   1.000  C
  C15      1.0000 0.15690  0.66380  0.72770  Biso   1.000  C
  C16      1.0000 0.65690  0.16380  0.72770  Biso   1.000  C
  O17      1.0000 0.12210  0.26690  0.31120  Biso   1.000  O
  O18      1.0000 0.62210  0.76690  0.31120  Biso   1.000  O
  O19      1.0000 0.87790  0.26690  0.18880  Biso   1.000  O
  O20      1.0000 0.37790  0.76690  0.18880  Biso   1.000  O
  O21      1.0000 0.87790  0.73310  0.68880  Biso   1.000  O
  O22      1.0000 0.37790  0.23310  0.68880  Biso   1.000  O
  O23      1.0000 0.12210  0.73310  0.81120  Biso   1.000  O
  O24      1.0000 0.62210  0.23310  0.81120  Biso   1.000  O
  C17      1.0000 0.21170  0.35690  0.28150  Biso   1.000  C
  C18      1.0000 0.71170  0.85690  0.28150  Biso   1.000  C
  C19      1.0000 0.78830  0.35690  0.21850  Biso   1.000  C
  C20      1.0000 0.28830  0.85690  0.21850  Biso   1.000  C
  C21      1.0000 0.78830  0.64310  0.71850  Biso   1.000  C
  C22      1.0000 0.28830  0.14310  0.71850  Biso   1.000  C
  C23      1.0000 0.21170  0.64310  0.78150  Biso   1.000  C
  C24      1.0000 0.71170  0.14310  0.78150  Biso   1.000  C
  H1       1.0000 0.24010  0.38790  0.26390  Biso   1.000  H
  H2       1.0000 0.74010  0.88790  0.26390  Biso   1.000  H
  H3       1.0000 0.75990  0.38790  0.23610  Biso   1.000  H
  H4       1.0000 0.25990  0.88790  0.23610  Biso   1.000  H
  H5       1.0000 0.75990  0.61210  0.73610  Biso   1.000  H
  H6       1.0000 0.25990  0.11210  0.73610  Biso   1.000  H
  H7       1.0000 0.24010  0.61210  0.76390  Biso   1.000  H
  H8       1.0000 0.74010  0.11210  0.76390  Biso   1.000  H
  H9       1.0000 0.24070  0.32170  0.29920  Biso   1.000  H
  H10      1.0000 0.74070  0.82170  0.29920  Biso   1.000  H
  H11      1.0000 0.75930  0.32170  0.20080  Biso   1.000  H
  H12      1.0000 0.25930  0.82170  0.20080  Biso   1.000  H
  H13      1.0000 0.75930  0.67830  0.70080  Biso   1.000  H
  H14      1.0000 0.25930  0.17830  0.70080  Biso   1.000  H
  H15      1.0000 0.24070  0.67830  0.79920  Biso   1.000  H
  H16      1.0000 0.74070  0.17830  0.79920  Biso   1.000  H
  H17      1.0000 0.19110  0.37520  0.31760  Biso   1.000  H
  H18      1.0000 0.69110  0.87520  0.31760  Biso   1.000  H
  H19      1.0000 0.80890  0.37520  0.18240  Biso   1.000  H
  H20      1.0000 0.30890  0.87520  0.18240  Biso   1.000  H
  H21      1.0000 0.80890  0.62480  0.68240  Biso   1.000  H
  H22      1.0000 0.30890  0.12480  0.68240  Biso   1.000  H
  H23      1.0000 0.19110  0.62480  0.81760  Biso   1.000  H
  H24      1.0000 0.69110  0.12480  0.81760  Biso   1.000  H
  C25      1.0000 0.18100  0.30900  0.16850  Biso   1.000  C
  C26      1.0000 0.68100  0.80900  0.16850  Biso   1.000  C
  C27      1.0000 0.81900  0.30900  0.33150  Biso   1.000  C
  C28      1.0000 0.31900  0.80900  0.33150  Biso   1.000  C
  C29      1.0000 0.81900  0.69100  0.83150  Biso   1.000  C
  C30      1.0000 0.31900  0.19100  0.83150  Biso   1.000  C
  C31      1.0000 0.18100  0.69100  0.66850  Biso   1.000  C
  C32      1.0000 0.68100  0.19100  0.66850  Biso   1.000  C
  H25      1.0000 0.21060  0.33880  0.15060  Biso   1.000  H
  H26      1.0000 0.71060  0.83880  0.15060  Biso   1.000  H
  H27      1.0000 0.78940  0.33880  0.34940  Biso   1.000  H
  H28      1.0000 0.28940  0.83880  0.34940  Biso   1.000  H
  H29      1.0000 0.78940  0.66120  0.84940  Biso   1.000  H
  H30      1.0000 0.28940  0.16120  0.84940  Biso   1.000  H
  H31      1.0000 0.21060  0.66120  0.65060  Biso   1.000  H
  H32      1.0000 0.71060  0.16120  0.65060  Biso   1.000  H
  H33      1.0000 0.14090  0.29890  0.13370  Biso   1.000  H
  H34      1.0000 0.64090  0.79890  0.13370  Biso   1.000  H
  H35      1.0000 0.85910  0.29890  0.36630  Biso   1.000  H
  H36      1.0000 0.35910  0.79890  0.36630  Biso   1.000  H
  H37      1.0000 0.85910  0.70110  0.86630  Biso   1.000  H
  H38      1.0000 0.35910  0.20110  0.86630  Biso   1.000  H
  H39      1.0000 0.14090  0.70110  0.63370  Biso   1.000  H
  H40      1.0000 0.64090  0.20110  0.63370  Biso   1.000  H
  H41      1.0000 0.20760  0.27140  0.18230  Biso   1.000  H
  H42      1.0000 0.70760  0.77140  0.18230  Biso   1.000  H
  H43      1.0000 0.79240  0.27140  0.31770  Biso   1.000  H
  H44      1.0000 0.29240  0.77140  0.31770  Biso   1.000  H
  H45      1.0000 0.79240  0.72860  0.81770  Biso   1.000  H
  H46      1.0000 0.29240  0.22860  0.81770  Biso   1.000  H
  H47      1.0000 0.20760  0.72860  0.68230  Biso   1.000  H
  H48      1.0000 0.70760  0.22860  0.68230  Biso   1.000  H
  C33      1.0000 0.11760  0.39070  0.19830  Biso   1.000  C
  C34      1.0000 0.61760  0.89070  0.19830  Biso   1.000  C
  C35      1.0000 0.88240  0.39070  0.30170  Biso   1.000  C
  C36      1.0000 0.38240  0.89070  0.30170  Biso   1.000  C
  C37      1.0000 0.88240  0.60930  0.80170  Biso   1.000  C
  C38      1.0000 0.38240  0.10930  0.80170  Biso   1.000  C
  C39      1.0000 0.11760  0.60930  0.69830  Biso   1.000  C
  C40      1.0000 0.61760  0.10930  0.69830  Biso   1.000  C
  H49      1.0000 0.14930  0.41990  0.18250  Biso   1.000  H
  H50      1.0000 0.64930  0.91990  0.18250  Biso   1.000  H
  H51      1.0000 0.85070  0.41990  0.31750  Biso   1.000  H
  H52      1.0000 0.35070  0.91990  0.31750  Biso   1.000  H
  H53      1.0000 0.85070  0.58010  0.81750  Biso   1.000  H
  H54      1.0000 0.35070  0.08010  0.81750  Biso   1.000  H
  H55      1.0000 0.14930  0.58010  0.68250  Biso   1.000  H
  H56      1.0000 0.64930  0.08010  0.68250  Biso   1.000  H
  H57      1.0000 0.09560  0.41060  0.23250  Biso   1.000  H
  H58      1.0000 0.59560  0.91060  0.23250  Biso   1.000  H
  H59      1.0000 0.90440  0.41060  0.26750  Biso   1.000  H
  H60      1.0000 0.40440  0.91060  0.26750  Biso   1.000  H
  H61      1.0000 0.90440  0.58940  0.76750  Biso   1.000  H
  H62      1.0000 0.40440  0.08940  0.76750  Biso   1.000  H
  H63      1.0000 0.09560  0.58940  0.73250  Biso   1.000  H
  H64      1.0000 0.59560  0.08940  0.73250  Biso   1.000  H
  H65      1.0000 0.08190  0.37780  0.16020  Biso   1.000  H
  H66      1.0000 0.58190  0.87780  0.16020  Biso   1.000  H
  H67      1.0000 0.91810  0.37780  0.33980  Biso   1.000  H
  H68      1.0000 0.41810  0.87780  0.33980  Biso   1.000  H
  H69      1.0000 0.91810  0.62220  0.83980  Biso   1.000  H
  H70      1.0000 0.41810  0.12220  0.83980  Biso   1.000  H
  H71      1.0000 0.08190  0.62220  0.66020  Biso   1.000  H
  H72      1.0000 0.58190  0.12220  0.66020  Biso   1.000  H
  O25      1.0000 0.75650  0.42850  0.98610  Biso   1.000  O
  O26      1.0000 0.25650  0.92850  0.98610  Biso   1.000  O
  O27      1.0000 0.24350  0.42850  0.51390  Biso   1.000  O
  O28      1.0000 0.74350  0.92850  0.51390  Biso   1.000  O
  O29      1.0000 0.24350  0.57150  0.01390  Biso   1.000  O
  O30      1.0000 0.74350  0.07150  0.01390  Biso   1.000  O
  O31      1.0000 0.75650  0.57150  0.48610  Biso   1.000  O
  O32      1.0000 0.25650  0.07150  0.48610  Biso   1.000  O
  C41      1.0000 0.81770  0.42110  0.01760  Biso   1.000  C
  C42      1.0000 0.31770  0.92110  0.01760  Biso   1.000  C
  C43      1.0000 0.18230  0.42110  0.48240  Biso   1.000  C
  C44      1.0000 0.68230  0.92110  0.48240  Biso   1.000  C
  C45      1.0000 0.18230  0.57890  0.98240  Biso   1.000  C
  C46      1.0000 0.68230  0.07890  0.98240  Biso   1.000  C
  C47      1.0000 0.81770  0.57890  0.51760  Biso   1.000  C
  C48      1.0000 0.31770  0.07890  0.51760  Biso   1.000  C
  O33      1.0000 0.84690  0.36830  0.02620  Biso   1.000  O
  O34      1.0000 0.34690  0.86830  0.02620  Biso   1.000  O
  O35      1.0000 0.15310  0.36830  0.47380  Biso   1.000  O
  O36      1.0000 0.65310  0.86830  0.47380  Biso   1.000  O
  O37      1.0000 0.15310  0.63170  0.97380  Biso   1.000  O
  O38      1.0000 0.65310  0.13170  0.97380  Biso   1.000  O
  O39      1.0000 0.84690  0.63170  0.52620  Biso   1.000  O
  O40      1.0000 0.34690  0.13170  0.52620  Biso   1.000  O
  C49      1.0000 0.86130  0.47880  0.04470  Biso   1.000  C
  C50      1.0000 0.36130  0.97880  0.04470  Biso   1.000  C
  C51      1.0000 0.13870  0.47880  0.45530  Biso   1.000  C
  C52      1.0000 0.63870  0.97880  0.45530  Biso   1.000  C
  C53      1.0000 0.13870  0.52120  0.95530  Biso   1.000  C
  C54      1.0000 0.63870  0.02120  0.95530  Biso   1.000  C
  C55      1.0000 0.86130  0.52120  0.54470  Biso   1.000  C
  C56      1.0000 0.36130  0.02120  0.54470  Biso   1.000  C
  C57      1.0000 0.87550  0.51530  0.98430  Biso   1.000  C
  C58      1.0000 0.37550  0.01530  0.98430  Biso   1.000  C
  C59      1.0000 0.12450  0.51530  0.51570  Biso   1.000  C
  C60      1.0000 0.62450  0.01530  0.51570  Biso   1.000  C
  C61      1.0000 0.12450  0.48470  0.01570  Biso   1.000  C
  C62      1.0000 0.62450  0.98470  0.01570  Biso   1.000  C
  C63      1.0000 0.87550  0.48470  0.48430  Biso   1.000  C
  C64      1.0000 0.37550  0.98470  0.48430  Biso   1.000  C
  H73      1.0000 0.83150  0.52950  0.95750  Biso   1.000  H
  H74      1.0000 0.33150  0.02950  0.95750  Biso   1.000  H
  H75      1.0000 0.16850  0.52950  0.54250  Biso   1.000  H
  H76      1.0000 0.66850  0.02950  0.54250  Biso   1.000  H
  H77      1.0000 0.16850  0.47050  0.04250  Biso   1.000  H
  H78      1.0000 0.66850  0.97050  0.04250  Biso   1.000  H
  H79      1.0000 0.83150  0.47050  0.45750  Biso   1.000  H
  H80      1.0000 0.33150  0.97050  0.45750  Biso   1.000  H
  H81      1.0000 0.90470  0.55100  0.00000  Biso   1.000  H
  H82      1.0000 0.40470  0.05100  0.00000  Biso   1.000  H
  H83      1.0000 0.09530  0.55100  0.50000  Biso   1.000  H
  H84      1.0000 0.59530  0.05100  0.50000  Biso   1.000  H
  H85      1.0000 0.09530  0.44900  0.00000  Biso   1.000  H
  H86      1.0000 0.59530  0.94900  0.00000  Biso   1.000  H
  H87      1.0000 0.90470  0.44900  0.50000  Biso   1.000  H
  H88      1.0000 0.40470  0.94900  0.50000  Biso   1.000  H
  H89      1.0000 0.89950  0.48890  0.95650  Biso   1.000  H
  H90      1.0000 0.39950  0.98890  0.95650  Biso   1.000  H
  H91      1.0000 0.10050  0.48890  0.54350  Biso   1.000  H
  H92      1.0000 0.60050  0.98890  0.54350  Biso   1.000  H
  H93      1.0000 0.10050  0.51110  0.04350  Biso   1.000  H
  H94      1.0000 0.60050  0.01110  0.04350  Biso   1.000  H
  H95      1.0000 0.89950  0.51110  0.45650  Biso   1.000  H
  H96      1.0000 0.39950  0.01110  0.45650  Biso   1.000  H
  C65      1.0000 0.82080  0.51800  0.08670  Biso   1.000  C
  C66      1.0000 0.32080  0.01800  0.08670  Biso   1.000  C
  C67      1.0000 0.17920  0.51800  0.41330  Biso   1.000  C
  C68      1.0000 0.67920  0.01800  0.41330  Biso   1.000  C
  C69      1.0000 0.17920  0.48200  0.91330  Biso   1.000  C
  C70      1.0000 0.67920  0.98200  0.91330  Biso   1.000  C
  C71      1.0000 0.82080  0.48200  0.58670  Biso   1.000  C
  C72      1.0000 0.32080  0.98200  0.58670  Biso   1.000  C
  H97      1.0000 0.77710  0.53150  0.05870  Biso   1.000  H
  H98      1.0000 0.27710  0.03150  0.05870  Biso   1.000  H
  H99      1.0000 0.22290  0.53150  0.44130  Biso   1.000  H
  H100     1.0000 0.72290  0.03150  0.44130  Biso   1.000  H
  H101     1.0000 0.22290  0.46850  0.94130  Biso   1.000  H
  H102     1.0000 0.72290  0.96850  0.94130  Biso   1.000  H
  H103     1.0000 0.77710  0.46850  0.55870  Biso   1.000  H
  H104     1.0000 0.27710  0.96850  0.55870  Biso   1.000  H
  H105     1.0000 0.81090  0.49360  0.12470  Biso   1.000  H
  H106     1.0000 0.31090  0.99360  0.12470  Biso   1.000  H
  H107     1.0000 0.18910  0.49360  0.37530  Biso   1.000  H
  H108     1.0000 0.68910  0.99360  0.37530  Biso   1.000  H
  H109     1.0000 0.18910  0.50640  0.87530  Biso   1.000  H
  H110     1.0000 0.68910  0.00640  0.87530  Biso   1.000  H
  H111     1.0000 0.81090  0.50640  0.62470  Biso   1.000  H
  H112     1.0000 0.31090  0.00640  0.62470  Biso   1.000  H
  H113     1.0000 0.84840  0.55430  0.10380  Biso   1.000  H
  H114     1.0000 0.34840  0.05430  0.10380  Biso   1.000  H
  H115     1.0000 0.15160  0.55430  0.39620  Biso   1.000  H
  H116     1.0000 0.65160  0.05430  0.39620  Biso   1.000  H
  H117     1.0000 0.15160  0.44570  0.89620  Biso   1.000  H
  H118     1.0000 0.65160  0.94570  0.89620  Biso   1.000  H
  H119     1.0000 0.84840  0.44570  0.60380  Biso   1.000  H
  H120     1.0000 0.34840  0.94570  0.60380  Biso   1.000  H
  C73      1.0000 0.93210  0.45850  0.08610  Biso   1.000  C
  C74      1.0000 0.43210  0.95850  0.08610  Biso   1.000  C
  C75      1.0000 0.06790  0.45850  0.41390  Biso   1.000  C
  C76      1.0000 0.56790  0.95850  0.41390  Biso   1.000  C
  C77      1.0000 0.06790  0.54150  0.91390  Biso   1.000  C
  C78      1.0000 0.56790  0.04150  0.91390  Biso   1.000  C
  C79      1.0000 0.93210  0.54150  0.58610  Biso   1.000  C
  C80      1.0000 0.43210  0.04150  0.58610  Biso   1.000  C
  H121     1.0000 0.95880  0.49500  0.10390  Biso   1.000  H
  H122     1.0000 0.45880  0.99500  0.10390  Biso   1.000  H
  H123     1.0000 0.04120  0.49500  0.39610  Biso   1.000  H
  H124     1.0000 0.54120  0.99500  0.39610  Biso   1.000  H
  H125     1.0000 0.04120  0.50500  0.89610  Biso   1.000  H
  H126     1.0000 0.54120  0.00500  0.89610  Biso   1.000  H
  H127     1.0000 0.95880  0.50500  0.60390  Biso   1.000  H
  H128     1.0000 0.45880  0.00500  0.60390  Biso   1.000  H
  H129     1.0000 0.92450  0.43220  0.12350  Biso   1.000  H
  H130     1.0000 0.42450  0.93220  0.12350  Biso   1.000  H
  H131     1.0000 0.07550  0.43220  0.37650  Biso   1.000  H
  H132     1.0000 0.57550  0.93220  0.37650  Biso   1.000  H
  H133     1.0000 0.07550  0.56780  0.87650  Biso   1.000  H
  H134     1.0000 0.57550  0.06780  0.87650  Biso   1.000  H
  H135     1.0000 0.92450  0.56780  0.62350  Biso   1.000  H
  H136     1.0000 0.42450  0.06780  0.62350  Biso   1.000  H
  H137     1.0000 0.95790  0.43530  0.05710  Biso   1.000  H
  H138     1.0000 0.45790  0.93530  0.05710  Biso   1.000  H
  H139     1.0000 0.04210  0.43530  0.44290  Biso   1.000  H
  H140     1.0000 0.54210  0.93530  0.44290  Biso   1.000  H
  H141     1.0000 0.04210  0.56470  0.94290  Biso   1.000  H
  H142     1.0000 0.54210  0.06470  0.94290  Biso   1.000  H
  H143     1.0000 0.95790  0.56470  0.55710  Biso   1.000  H
  H144     1.0000 0.45790  0.06470  0.55710  Biso   1.000  H
  O41      1.0000 0.79900  0.33150  0.88790  Biso   1.000  O
  O42      1.0000 0.29900  0.83150  0.88790  Biso   1.000  O
  O43      1.0000 0.20100  0.33150  0.61210  Biso   1.000  O
  O44      1.0000 0.70100  0.83150  0.61210  Biso   1.000  O
  O45      1.0000 0.20100  0.66850  0.11210  Biso   1.000  O
  O46      1.0000 0.70100  0.16850  0.11210  Biso   1.000  O
  O47      1.0000 0.79900  0.66850  0.38790  Biso   1.000  O
  O48      1.0000 0.29900  0.16850  0.38790  Biso   1.000  O
  C81      1.0000 0.86020  0.32860  0.87690  Biso   1.000  C
  C82      1.0000 0.36020  0.82860  0.87690  Biso   1.000  C
  C83      1.0000 0.13980  0.32860  0.62310  Biso   1.000  C
  C84      1.0000 0.63980  0.82860  0.62310  Biso   1.000  C
  C85      1.0000 0.13980  0.67140  0.12310  Biso   1.000  C
  C86      1.0000 0.63980  0.17140  0.12310  Biso   1.000  C
  C87      1.0000 0.86020  0.67140  0.37690  Biso   1.000  C
  C88      1.0000 0.36020  0.17140  0.37690  Biso   1.000  C
  O49      1.0000 0.90800  0.30190  0.91760  Biso   1.000  O
  O50      1.0000 0.40800  0.80190  0.91760  Biso   1.000  O
  O51      1.0000 0.09200  0.30190  0.58240  Biso   1.000  O
  O52      1.0000 0.59200  0.80190  0.58240  Biso   1.000  O
  O53      1.0000 0.09200  0.69810  0.08240  Biso   1.000  O
  O54      1.0000 0.59200  0.19810  0.08240  Biso   1.000  O
  O55      1.0000 0.90800  0.69810  0.41760  Biso   1.000  O
  O56      1.0000 0.40800  0.19810  0.41760  Biso   1.000  O
  C89      1.0000 0.87590  0.35720  0.81250  Biso   1.000  C
  C90      1.0000 0.37590  0.85720  0.81250  Biso   1.000  C
  C91      1.0000 0.12410  0.35720  0.68750  Biso   1.000  C
  C92      1.0000 0.62410  0.85720  0.68750  Biso   1.000  C
  C93      1.0000 0.12410  0.64280  0.18750  Biso   1.000  C
  C94      1.0000 0.62410  0.14280  0.18750  Biso   1.000  C
  C95      1.0000 0.87590  0.64280  0.31250  Biso   1.000  C
  C96      1.0000 0.37590  0.14280  0.31250  Biso   1.000  C
  C97      1.0000 0.93620  0.40080  0.82550  Biso   1.000  C
  C98      1.0000 0.43620  0.90080  0.82550  Biso   1.000  C
  C99      1.0000 0.06380  0.40080  0.67450  Biso   1.000  C
  C100     1.0000 0.56380  0.90080  0.67450  Biso   1.000  C
  C101     1.0000 0.06380  0.59920  0.17450  Biso   1.000  C
  C102     1.0000 0.56380  0.09920  0.17450  Biso   1.000  C
  C103     1.0000 0.93620  0.59920  0.32550  Biso   1.000  C
  C104     1.0000 0.43620  0.09920  0.32550  Biso   1.000  C
  H145     1.0000 0.94560  0.41640  0.78250  Biso   1.000  H
  H146     1.0000 0.44560  0.91640  0.78250  Biso   1.000  H
  H147     1.0000 0.05440  0.41640  0.71750  Biso   1.000  H
  H148     1.0000 0.55440  0.91640  0.71750  Biso   1.000  H
  H149     1.0000 0.05440  0.58360  0.21750  Biso   1.000  H
  H150     1.0000 0.55440  0.08360  0.21750  Biso   1.000  H
  H151     1.0000 0.94560  0.58360  0.28250  Biso   1.000  H
  H152     1.0000 0.44560  0.08360  0.28250  Biso   1.000  H
  H153     1.0000 0.92520  0.43550  0.85290  Biso   1.000  H
  H154     1.0000 0.42520  0.93550  0.85290  Biso   1.000  H
  H155     1.0000 0.07480  0.43550  0.64710  Biso   1.000  H
  H156     1.0000 0.57480  0.93550  0.64710  Biso   1.000  H
  H157     1.0000 0.07480  0.56450  0.14710  Biso   1.000  H
  H158     1.0000 0.57480  0.06450  0.14710  Biso   1.000  H
  H159     1.0000 0.92520  0.56450  0.35290  Biso   1.000  H
  H160     1.0000 0.42520  0.06450  0.35290  Biso   1.000  H
  H161     1.0000 0.97720  0.37910  0.84960  Biso   1.000  H
  H162     1.0000 0.47720  0.87910  0.84960  Biso   1.000  H
  H163     1.0000 0.02280  0.37910  0.65040  Biso   1.000  H
  H164     1.0000 0.52280  0.87910  0.65040  Biso   1.000  H
  H165     1.0000 0.02280  0.62090  0.15040  Biso   1.000  H
  H166     1.0000 0.52280  0.12090  0.15040  Biso   1.000  H
  H167     1.0000 0.97720  0.62090  0.34960  Biso   1.000  H
  H168     1.0000 0.47720  0.12090  0.34960  Biso   1.000  H
  C105     1.0000 0.88690  0.30890  0.76580  Biso   1.000  C
  C106     1.0000 0.38690  0.80890  0.76580  Biso   1.000  C
  C107     1.0000 0.11310  0.30890  0.73420  Biso   1.000  C
  C108     1.0000 0.61310  0.80890  0.73420  Biso   1.000  C
  C109     1.0000 0.11310  0.69110  0.23420  Biso   1.000  C
  C110     1.0000 0.61310  0.19110  0.23420  Biso   1.000  C
  C111     1.0000 0.88690  0.69110  0.26580  Biso   1.000  C
  C112     1.0000 0.38690  0.19110  0.26580  Biso   1.000  C
  H169     1.0000 0.90140  0.32740  0.72640  Biso   1.000  H
  H170     1.0000 0.40140  0.82740  0.72640  Biso   1.000  H
  H171     1.0000 0.09860  0.32740  0.77360  Biso   1.000  H
  H172     1.0000 0.59860  0.82740  0.77360  Biso   1.000  H
  H173     1.0000 0.09860  0.67260  0.27360  Biso   1.000  H
  H174     1.0000 0.59860  0.17260  0.27360  Biso   1.000  H
  H175     1.0000 0.90140  0.67260  0.22640  Biso   1.000  H
  H176     1.0000 0.40140  0.17260  0.22640  Biso   1.000  H
  H177     1.0000 0.92310  0.28070  0.78810  Biso   1.000  H
  H178     1.0000 0.42310  0.78070  0.78810  Biso   1.000  H
  H179     1.0000 0.07690  0.28070  0.71190  Biso   1.000  H
  H180     1.0000 0.57690  0.78070  0.71190  Biso   1.000  H
  H181     1.0000 0.07690  0.71930  0.21190  Biso   1.000  H
  H182     1.0000 0.57690  0.21930  0.21190  Biso   1.000  H
  H183     1.0000 0.92310  0.71930  0.28810  Biso   1.000  H
  H184     1.0000 0.42310  0.21930  0.28810  Biso   1.000  H
  H185     1.0000 0.84370  0.28590  0.75160  Biso   1.000  H
  H186     1.0000 0.34370  0.78590  0.75160  Biso   1.000  H
  H187     1.0000 0.15630  0.28590  0.74840  Biso   1.000  H
  H188     1.0000 0.65630  0.78590  0.74840  Biso   1.000  H
  H189     1.0000 0.15630  0.71410  0.24840  Biso   1.000  H
  H190     1.0000 0.65630  0.21410  0.24840  Biso   1.000  H
  H191     1.0000 0.84370  0.71410  0.25160  Biso   1.000  H
  H192     1.0000 0.34370  0.21410  0.25160  Biso   1.000  H
  C113     1.0000 0.81560  0.39060  0.77380  Biso   1.000  C
  C114     1.0000 0.31560  0.89060  0.77380  Biso   1.000  C
  C115     1.0000 0.18440  0.39060  0.72620  Biso   1.000  C
  C116     1.0000 0.68440  0.89060  0.72620  Biso   1.000  C
  C117     1.0000 0.18440  0.60940  0.22620  Biso   1.000  C
  C118     1.0000 0.68440  0.10940  0.22620  Biso   1.000  C
  C119     1.0000 0.81560  0.60940  0.27380  Biso   1.000  C
  C120     1.0000 0.31560  0.10940  0.27380  Biso   1.000  C
  H193     1.0000 0.82880  0.40960  0.73390  Biso   1.000  H
  H194     1.0000 0.32880  0.90960  0.73390  Biso   1.000  H
  H195     1.0000 0.17120  0.40960  0.76610  Biso   1.000  H
  H196     1.0000 0.67120  0.90960  0.76610  Biso   1.000  H
  H197     1.0000 0.17120  0.59040  0.26610  Biso   1.000  H
  H198     1.0000 0.67120  0.09040  0.26610  Biso   1.000  H
  H199     1.0000 0.82880  0.59040  0.23390  Biso   1.000  H
  H200     1.0000 0.32880  0.09040  0.23390  Biso   1.000  H
  H201     1.0000 0.77740  0.36160  0.75960  Biso   1.000  H
  H202     1.0000 0.27740  0.86160  0.75960  Biso   1.000  H
  H203     1.0000 0.22260  0.36160  0.74040  Biso   1.000  H
  H204     1.0000 0.72260  0.86160  0.74040  Biso   1.000  H
  H205     1.0000 0.22260  0.63840  0.24040  Biso   1.000  H
  H206     1.0000 0.72260  0.13840  0.24040  Biso   1.000  H
  H207     1.0000 0.77740  0.63840  0.25960  Biso   1.000  H
  H208     1.0000 0.27740  0.13840  0.25960  Biso   1.000  H
  H209     1.0000 0.80080  0.42280  0.80210  Biso   1.000  H
  H210     1.0000 0.30080  0.92280  0.80210  Biso   1.000  H
  H211     1.0000 0.19920  0.42280  0.69790  Biso   1.000  H
  H212     1.0000 0.69920  0.92280  0.69790  Biso   1.000  H
  H213     1.0000 0.19920  0.57720  0.19790  Biso   1.000  H
  H214     1.0000 0.69920  0.07720  0.19790  Biso   1.000  H
  H215     1.0000 0.80080  0.57720  0.30210  Biso   1.000  H
  H216     1.0000 0.30080  0.07720  0.30210  Biso   1.000  H
  O57      1.0000 0.06330  0.14440  0.22570  Biso   1.000  O
  O58      1.0000 0.56330  0.64440  0.22570  Biso   1.000  O
  O59      1.0000 0.93670  0.14440  0.27430  Biso   1.000  O
  O60      1.0000 0.43670  0.64440  0.27430  Biso   1.000  O
  O61      1.0000 0.93670  0.85560  0.77430  Biso   1.000  O
  O62      1.0000 0.43670  0.35560  0.77430  Biso   1.000  O
  O63      1.0000 0.06330  0.85560  0.72570  Biso   1.000  O
  O64      1.0000 0.56330  0.35560  0.72570  Biso   1.000  O
  O65      1.0000 0.99020  0.15360  0.12800  Biso   1.000  O
  O66      1.0000 0.49020  0.65360  0.12800  Biso   1.000  O
  O67      1.0000 0.00980  0.15360  0.37200  Biso   1.000  O
  O68      1.0000 0.50980  0.65360  0.37200  Biso   1.000  O
  O69      1.0000 0.00980  0.84640  0.87200  Biso   1.000  O
  O70      1.0000 0.50980  0.34640  0.87200  Biso   1.000  O
  O71      1.0000 0.99020  0.84640  0.62800  Biso   1.000  O
  O72      1.0000 0.49020  0.34640  0.62800  Biso   1.000  O
  C121     1.0000 0.04340  0.13030  0.16390  Biso   1.000  C
  C122     1.0000 0.54340  0.63030  0.16390  Biso   1.000  C
  C123     1.0000 0.95660  0.13030  0.33610  Biso   1.000  C
  C124     1.0000 0.45660  0.63030  0.33610  Biso   1.000  C
  C125     1.0000 0.95660  0.86970  0.83610  Biso   1.000  C
  C126     1.0000 0.45660  0.36970  0.83610  Biso   1.000  C
  C127     1.0000 0.04340  0.86970  0.66390  Biso   1.000  C
  C128     1.0000 0.54340  0.36970  0.66390  Biso   1.000  C
  C129     1.0000 0.08730  0.08390  0.13240  Biso   1.000  C
  C130     1.0000 0.58730  0.58390  0.13240  Biso   1.000  C
  C131     1.0000 0.91270  0.08390  0.36760  Biso   1.000  C
  C132     1.0000 0.41270  0.58390  0.36760  Biso   1.000  C
  C133     1.0000 0.91270  0.91610  0.86760  Biso   1.000  C
  C134     1.0000 0.41270  0.41610  0.86760  Biso   1.000  C
  C135     1.0000 0.08730  0.91610  0.63240  Biso   1.000  C
  C136     1.0000 0.58730  0.41610  0.63240  Biso   1.000  C
  C137     1.0000 0.14450  0.12310  0.11000  Biso   1.000  C
  C138     1.0000 0.64450  0.62310  0.11000  Biso   1.000  C
  C139     1.0000 0.85550  0.12310  0.39000  Biso   1.000  C
  C140     1.0000 0.35550  0.62310  0.39000  Biso   1.000  C
  C141     1.0000 0.85550  0.87690  0.89000  Biso   1.000  C
  C142     1.0000 0.35550  0.37690  0.89000  Biso   1.000  C
  C143     1.0000 0.14450  0.87690  0.61000  Biso   1.000  C
  C144     1.0000 0.64450  0.37690  0.61000  Biso   1.000  C
  H217     1.0000 0.17350  0.09670  0.08720  Biso   1.000  H
  H218     1.0000 0.67350  0.59670  0.08720  Biso   1.000  H
  H219     1.0000 0.82650  0.09670  0.41280  Biso   1.000  H
  H220     1.0000 0.32650  0.59670  0.41280  Biso   1.000  H
  H221     1.0000 0.82650  0.90330  0.91280  Biso   1.000  H
  H222     1.0000 0.32650  0.40330  0.91280  Biso   1.000  H
  H223     1.0000 0.17350  0.90330  0.58720  Biso   1.000  H
  H224     1.0000 0.67350  0.40330  0.58720  Biso   1.000  H
  H225     1.0000 0.17320  0.14220  0.14950  Biso   1.000  H
  H226     1.0000 0.67320  0.64220  0.14950  Biso   1.000  H
  H227     1.0000 0.82680  0.14220  0.35050  Biso   1.000  H
  H228     1.0000 0.32680  0.64220  0.35050  Biso   1.000  H
  H229     1.0000 0.82680  0.85780  0.85050  Biso   1.000  H
  H230     1.0000 0.32680  0.35780  0.85050  Biso   1.000  H
  H231     1.0000 0.17320  0.85780  0.64950  Biso   1.000  H
  H232     1.0000 0.67320  0.35780  0.64950  Biso   1.000  H
  H233     1.0000 0.12310  0.15540  0.07900  Biso   1.000  H
  H234     1.0000 0.62310  0.65540  0.07900  Biso   1.000  H
  H235     1.0000 0.87690  0.15540  0.42100  Biso   1.000  H
  H236     1.0000 0.37690  0.65540  0.42100  Biso   1.000  H
  H237     1.0000 0.87690  0.84460  0.92100  Biso   1.000  H
  H238     1.0000 0.37690  0.34460  0.92100  Biso   1.000  H
  H239     1.0000 0.12310  0.84460  0.57900  Biso   1.000  H
  H240     1.0000 0.62310  0.34460  0.57900  Biso   1.000  H
  C145     1.0000 0.12760  0.04060  0.18190  Biso   1.000  C
  C146     1.0000 0.62760  0.54060  0.18190  Biso   1.000  C
  C147     1.0000 0.87240  0.04060  0.31810  Biso   1.000  C
  C148     1.0000 0.37240  0.54060  0.31810  Biso   1.000  C
  C149     1.0000 0.87240  0.95940  0.81810  Biso   1.000  C
  C150     1.0000 0.37240  0.45940  0.81810  Biso   1.000  C
  C151     1.0000 0.12760  0.95940  0.68190  Biso   1.000  C
  C152     1.0000 0.62760  0.45940  0.68190  Biso   1.000  C
  H241     1.0000 0.09560  0.01430  0.20120  Biso   1.000  H
  H242     1.0000 0.59560  0.51430  0.20120  Biso   1.000  H
  H243     1.0000 0.90440  0.01430  0.29880  Biso   1.000  H
  H244     1.0000 0.40440  0.51430  0.29880  Biso   1.000  H
  H245     1.0000 0.90440  0.98570  0.79880  Biso   1.000  H
  H246     1.0000 0.40440  0.48570  0.79880  Biso   1.000  H
  H247     1.0000 0.09560  0.98570  0.70120  Biso   1.000  H
  H248     1.0000 0.59560  0.48570  0.70120  Biso   1.000  H
  H249     1.0000 0.15650  0.06420  0.21800  Biso   1.000  H
  H250     1.0000 0.65650  0.56420  0.21800  Biso   1.000  H
  H251     1.0000 0.84350  0.06420  0.28200  Biso   1.000  H
  H252     1.0000 0.34350  0.56420  0.28200  Biso   1.000  H
  H253     1.0000 0.84350  0.93580  0.78200  Biso   1.000  H
  H254     1.0000 0.34350  0.43580  0.78200  Biso   1.000  H
  H255     1.0000 0.15650  0.93580  0.71800  Biso   1.000  H
  H256     1.0000 0.65650  0.43580  0.71800  Biso   1.000  H
  H257     1.0000 0.15740  0.01480  0.15930  Biso   1.000  H
  H258     1.0000 0.65740  0.51480  0.15930  Biso   1.000  H
  H259     1.0000 0.84260  0.01480  0.34070  Biso   1.000  H
  H260     1.0000 0.34260  0.51480  0.34070  Biso   1.000  H
  H261     1.0000 0.84260  0.98520  0.84070  Biso   1.000  H
  H262     1.0000 0.34260  0.48520  0.84070  Biso   1.000  H
  H263     1.0000 0.15740  0.98520  0.65930  Biso   1.000  H
  H264     1.0000 0.65740  0.48520  0.65930  Biso   1.000  H
  C153     1.0000 0.04710  0.05240  0.07360  Biso   1.000  C
  C154     1.0000 0.54710  0.55240  0.07360  Biso   1.000  C
  C155     1.0000 0.95290  0.05240  0.42640  Biso   1.000  C
  C156     1.0000 0.45290  0.55240  0.42640  Biso   1.000  C
  C157     1.0000 0.95290  0.94760  0.92640  Biso   1.000  C
  C158     1.0000 0.45290  0.44760  0.92640  Biso   1.000  C
  C159     1.0000 0.04710  0.94760  0.57360  Biso   1.000  C
  C160     1.0000 0.54710  0.44760  0.57360  Biso   1.000  C
  H265     1.0000 0.01300  0.02500  0.08820  Biso   1.000  H
  H266     1.0000 0.51300  0.52500  0.08820  Biso   1.000  H
  H267     1.0000 0.98700  0.02500  0.41180  Biso   1.000  H
  H268     1.0000 0.48700  0.52500  0.41180  Biso   1.000  H
  H269     1.0000 0.98700  0.97500  0.91180  Biso   1.000  H
  H270     1.0000 0.48700  0.47500  0.91180  Biso   1.000  H
  H271     1.0000 0.01300  0.97500  0.58820  Biso   1.000  H
  H272     1.0000 0.51300  0.47500  0.58820  Biso   1.000  H
  H273     1.0000 0.07850  0.02810  0.05130  Biso   1.000  H
  H274     1.0000 0.57850  0.52810  0.05130  Biso   1.000  H
  H275     1.0000 0.92150  0.02810  0.44870  Biso   1.000  H
  H276     1.0000 0.42150  0.52810  0.44870  Biso   1.000  H
  H277     1.0000 0.92150  0.97190  0.94870  Biso   1.000  H
  H278     1.0000 0.42150  0.47190  0.94870  Biso   1.000  H
  H279     1.0000 0.07850  0.97190  0.55130  Biso   1.000  H
  H280     1.0000 0.57850  0.47190  0.55130  Biso   1.000  H
  H281     1.0000 0.02310  0.08310  0.04210  Biso   1.000  H
  H282     1.0000 0.52310  0.58310  0.04210  Biso   1.000  H
  H283     1.0000 0.97690  0.08310  0.45790  Biso   1.000  H
  H284     1.0000 0.47690  0.58310  0.45790  Biso   1.000  H
  H285     1.0000 0.97690  0.91690  0.95790  Biso   1.000  H
  H286     1.0000 0.47690  0.41690  0.95790  Biso   1.000  H
  H287     1.0000 0.02310  0.91690  0.54210  Biso   1.000  H
  H288     1.0000 0.52310  0.41690  0.54210  Biso   1.000  H
  O73      1.0000 0.04770  0.30250  0.97480  Biso   1.000  O
  O74      1.0000 0.54770  0.80250  0.97480  Biso   1.000  O
  O75      1.0000 0.95230  0.30250  0.52520  Biso   1.000  O
  O76      1.0000 0.45230  0.80250  0.52520  Biso   1.000  O
  O77      1.0000 0.95230  0.69750  0.02520  Biso   1.000  O
  O78      1.0000 0.45230  0.19750  0.02520  Biso   1.000  O
  O79      1.0000 0.04770  0.69750  0.47480  Biso   1.000  O
  O80      1.0000 0.54770  0.19750  0.47480  Biso   1.000  O
  C161     1.0000 0.09540  0.28000  0.93770  Biso   1.000  C
  C162     1.0000 0.59540  0.78000  0.93770  Biso   1.000  C
  C163     1.0000 0.90460  0.28000  0.56230  Biso   1.000  C
  C164     1.0000 0.40460  0.78000  0.56230  Biso   1.000  C
  C165     1.0000 0.90460  0.72000  0.06230  Biso   1.000  C
  C166     1.0000 0.40460  0.22000  0.06230  Biso   1.000  C
  C167     1.0000 0.09540  0.72000  0.43770  Biso   1.000  C
  C168     1.0000 0.59540  0.22000  0.43770  Biso   1.000  C
  H289     1.0000 0.07760  0.24000  0.91810  Biso   1.000  H
  H290     1.0000 0.57760  0.74000  0.91810  Biso   1.000  H
  H291     1.0000 0.92240  0.24000  0.58190  Biso   1.000  H
  H292     1.0000 0.42240  0.74000  0.58190  Biso   1.000  H
  H293     1.0000 0.92240  0.76000  0.08190  Biso   1.000  H
  H294     1.0000 0.42240  0.26000  0.08190  Biso   1.000  H
  H295     1.0000 0.07760  0.76000  0.41810  Biso   1.000  H
  H296     1.0000 0.57760  0.26000  0.41810  Biso   1.000  H
  H297     1.0000 0.09570  0.30870  0.89960  Biso   1.000  H
  H298     1.0000 0.59570  0.80870  0.89960  Biso   1.000  H
  H299     1.0000 0.90430  0.30870  0.60040  Biso   1.000  H
  H300     1.0000 0.40430  0.80870  0.60040  Biso   1.000  H
  H301     1.0000 0.90430  0.69130  0.10040  Biso   1.000  H
  H302     1.0000 0.40430  0.19130  0.10040  Biso   1.000  H
  H303     1.0000 0.09570  0.69130  0.39960  Biso   1.000  H
  H304     1.0000 0.59570  0.19130  0.39960  Biso   1.000  H
  C169     1.0000 0.15160  0.27260  0.96340  Biso   1.000  C
  C170     1.0000 0.65160  0.77260  0.96340  Biso   1.000  C
  C171     1.0000 0.84840  0.27260  0.53660  Biso   1.000  C
  C172     1.0000 0.34840  0.77260  0.53660  Biso   1.000  C
  C173     1.0000 0.84840  0.72740  0.03660  Biso   1.000  C
  C174     1.0000 0.34840  0.22740  0.03660  Biso   1.000  C
  C175     1.0000 0.15160  0.72740  0.46340  Biso   1.000  C
  C176     1.0000 0.65160  0.22740  0.46340  Biso   1.000  C
  H305     1.0000 0.17720  0.25290  0.93180  Biso   1.000  H
  H306     1.0000 0.67720  0.75290  0.93180  Biso   1.000  H
  H307     1.0000 0.82280  0.25290  0.56820  Biso   1.000  H
  H308     1.0000 0.32280  0.75290  0.56820  Biso   1.000  H
  H309     1.0000 0.82280  0.74710  0.06820  Biso   1.000  H
  H310     1.0000 0.32280  0.24710  0.06820  Biso   1.000  H
  H311     1.0000 0.17720  0.74710  0.43180  Biso   1.000  H
  H312     1.0000 0.67720  0.24710  0.43180  Biso   1.000  H
  H313     1.0000 0.15300  0.24600  0.00290  Biso   1.000  H
  H314     1.0000 0.65300  0.74600  0.00290  Biso   1.000  H
  H315     1.0000 0.84700  0.24600  0.49710  Biso   1.000  H
  H316     1.0000 0.34700  0.74600  0.49710  Biso   1.000  H
  H317     1.0000 0.84700  0.75400  0.99710  Biso   1.000  H
  H318     1.0000 0.34700  0.25400  0.99710  Biso   1.000  H
  H319     1.0000 0.15300  0.75400  0.50290  Biso   1.000  H
  H320     1.0000 0.65300  0.25400  0.50290  Biso   1.000  H
  H321     1.0000 0.17290  0.31250  0.97760  Biso   1.000  H
  H322     1.0000 0.67290  0.81250  0.97760  Biso   1.000  H
  H323     1.0000 0.82710  0.31250  0.52240  Biso   1.000  H
  H324     1.0000 0.32710  0.81250  0.52240  Biso   1.000  H
  H325     1.0000 0.82710  0.68750  0.02240  Biso   1.000  H
  H326     1.0000 0.32710  0.18750  0.02240  Biso   1.000  H
  H327     1.0000 0.17290  0.68750  0.47760  Biso   1.000  H
  H328     1.0000 0.67290  0.18750  0.47760  Biso   1.000  H
  O81      1.0000 0.88320  0.15020  0.97710  Biso   1.000  O
  O82      1.0000 0.38320  0.65020  0.97710  Biso   1.000  O
  O83      1.0000 0.11680  0.15020  0.52290  Biso   1.000  O
  O84      1.0000 0.61680  0.65020  0.52290  Biso   1.000  O
  O85      1.0000 0.11680  0.84980  0.02290  Biso   1.000  O
  O86      1.0000 0.61680  0.34980  0.02290  Biso   1.000  O
  O87      1.0000 0.88320  0.84980  0.47710  Biso   1.000  O
  O88      1.0000 0.38320  0.34980  0.47710  Biso   1.000  O
  C177     1.0000 0.89700  0.13570  0.91200  Biso   1.000  C
  C178     1.0000 0.39700  0.63570  0.91200  Biso   1.000  C
  C179     1.0000 0.10300  0.13570  0.58800  Biso   1.000  C
  C180     1.0000 0.60300  0.63570  0.58800  Biso   1.000  C
  C181     1.0000 0.10300  0.86430  0.08800  Biso   1.000  C
  C182     1.0000 0.60300  0.36430  0.08800  Biso   1.000  C
  C183     1.0000 0.89700  0.86430  0.41200  Biso   1.000  C
  C184     1.0000 0.39700  0.36430  0.41200  Biso   1.000  C
  H329     1.0000 0.90290  0.09080  0.90660  Biso   1.000  H
  H330     1.0000 0.40290  0.59080  0.90660  Biso   1.000  H
  H331     1.0000 0.09710  0.09080  0.59340  Biso   1.000  H
  H332     1.0000 0.59710  0.59080  0.59340  Biso   1.000  H
  H333     1.0000 0.09710  0.90920  0.09340  Biso   1.000  H
  H334     1.0000 0.59710  0.40920  0.09340  Biso   1.000  H
  H335     1.0000 0.90290  0.90920  0.40660  Biso   1.000  H
  H336     1.0000 0.40290  0.40920  0.40660  Biso   1.000  H
  H337     1.0000 0.85810  0.15000  0.87610  Biso   1.000  H
  H338     1.0000 0.35810  0.65000  0.87610  Biso   1.000  H
  H339     1.0000 0.14190  0.15000  0.62390  Biso   1.000  H
  H340     1.0000 0.64190  0.65000  0.62390  Biso   1.000  H
  H341     1.0000 0.14190  0.85000  0.12390  Biso   1.000  H
  H342     1.0000 0.64190  0.35000  0.12390  Biso   1.000  H
  H343     1.0000 0.85810  0.85000  0.37610  Biso   1.000  H
  H344     1.0000 0.35810  0.35000  0.37610  Biso   1.000  H
  C185     1.0000 0.94200  0.16000  0.90900  Biso   1.000  C
  C186     1.0000 0.44200  0.66000  0.90900  Biso   1.000  C
  C187     1.0000 0.05800  0.16000  0.59100  Biso   1.000  C
  C188     1.0000 0.55800  0.66000  0.59100  Biso   1.000  C
  C189     1.0000 0.05800  0.84000  0.09100  Biso   1.000  C
  C190     1.0000 0.55800  0.34000  0.09100  Biso   1.000  C
  C191     1.0000 0.94200  0.84000  0.40900  Biso   1.000  C
  C192     1.0000 0.44200  0.34000  0.40900  Biso   1.000  C
  H345     1.0000 0.95430  0.15360  0.86490  Biso   1.000  H
  H346     1.0000 0.45430  0.65360  0.86490  Biso   1.000  H
  H347     1.0000 0.04570  0.15360  0.63510  Biso   1.000  H
  H348     1.0000 0.54570  0.65360  0.63510  Biso   1.000  H
  H349     1.0000 0.04570  0.84640  0.13510  Biso   1.000  H
  H350     1.0000 0.54570  0.34640  0.13510  Biso   1.000  H
  H351     1.0000 0.95430  0.84640  0.36490  Biso   1.000  H
  H352     1.0000 0.45430  0.34640  0.36490  Biso   1.000  H
  H353     1.0000 0.97950  0.14390  0.94420  Biso   1.000  H
  H354     1.0000 0.47950  0.64390  0.94420  Biso   1.000  H
  H355     1.0000 0.02050  0.14390  0.55580  Biso   1.000  H
  H356     1.0000 0.52050  0.64390  0.55580  Biso   1.000  H
  H357     1.0000 0.02050  0.85610  0.05580  Biso   1.000  H
  H358     1.0000 0.52050  0.35610  0.05580  Biso   1.000  H
  H359     1.0000 0.97950  0.85610  0.44420  Biso   1.000  H
  H360     1.0000 0.47950  0.35610  0.44420  Biso   1.000  H
  H361     1.0000 0.93520  0.20360  0.91680  Biso   1.000  H
  H362     1.0000 0.43520  0.70360  0.91680  Biso   1.000  H
  H363     1.0000 0.06480  0.20360  0.58320  Biso   1.000  H
  H364     1.0000 0.56480  0.70360  0.58320  Biso   1.000  H
  H365     1.0000 0.06480  0.79640  0.08320  Biso   1.000  H
  H366     1.0000 0.56480  0.29640  0.08320  Biso   1.000  H
  H367     1.0000 0.93520  0.79640  0.41680  Biso   1.000  H
  H368     1.0000 0.43520  0.29640  0.41680  Biso   1.000  H
  C193     1.0000 0.16560  0.94440  0.39330  Biso   1.000  C
  C194     1.0000 0.66560  0.44440  0.39330  Biso   1.000  C
  C195     1.0000 0.83440  0.94440  0.10670  Biso   1.000  C
  C196     1.0000 0.33440  0.44440  0.10670  Biso   1.000  C
  C197     1.0000 0.83440  0.05560  0.60670  Biso   1.000  C
  C198     1.0000 0.33440  0.55560  0.60670  Biso   1.000  C
  C199     1.0000 0.16560  0.05560  0.89330  Biso   1.000  C
  C200     1.0000 0.66560  0.55560  0.89330  Biso   1.000  C
  H369     1.0000 0.15230  0.93210  0.43640  Biso   1.000  H
  H370     1.0000 0.65230  0.43210  0.43640  Biso   1.000  H
  H371     1.0000 0.84770  0.93210  0.06360  Biso   1.000  H
  H372     1.0000 0.34770  0.43210  0.06360  Biso   1.000  H
  H373     1.0000 0.84770  0.06790  0.56360  Biso   1.000  H
  H374     1.0000 0.34770  0.56790  0.56360  Biso   1.000  H
  H375     1.0000 0.15230  0.06790  0.93640  Biso   1.000  H
  H376     1.0000 0.65230  0.56790  0.93640  Biso   1.000  H
  H377     1.0000 0.21160  0.92590  0.39270  Biso   1.000  H
  H378     1.0000 0.71160  0.42590  0.39270  Biso   1.000  H
  H379     1.0000 0.78840  0.92590  0.10730  Biso   1.000  H
  H380     1.0000 0.28840  0.42590  0.10730  Biso   1.000  H
  H381     1.0000 0.78840  0.07410  0.60730  Biso   1.000  H
  H382     1.0000 0.28840  0.57410  0.60730  Biso   1.000  H
  H383     1.0000 0.21160  0.07410  0.89270  Biso   1.000  H
  H384     1.0000 0.71160  0.57410  0.89270  Biso   1.000  H
  O89      1.0000 0.17350  0.00270  0.39490  Biso   1.000  O
  O90      1.0000 0.67350  0.50270  0.39490  Biso   1.000  O
  O91      1.0000 0.82650  0.00270  0.10510  Biso   1.000  O
  O92      1.0000 0.32650  0.50270  0.10510  Biso   1.000  O
  O93      1.0000 0.82650  0.99730  0.60510  Biso   1.000  O
  O94      1.0000 0.32650  0.49730  0.60510  Biso   1.000  O
  O95      1.0000 0.17350  0.99730  0.89490  Biso   1.000  O
  O96      1.0000 0.67350  0.49730  0.89490  Biso   1.000  O
  C201     1.0000 0.12100  0.91820  0.34490  Biso   1.000  C
  C202     1.0000 0.62100  0.41820  0.34490  Biso   1.000  C
  C203     1.0000 0.87900  0.91820  0.15510  Biso   1.000  C
  C204     1.0000 0.37900  0.41820  0.15510  Biso   1.000  C
  C205     1.0000 0.87900  0.08180  0.65510  Biso   1.000  C
  C206     1.0000 0.37900  0.58180  0.65510  Biso   1.000  C
  C207     1.0000 0.12100  0.08180  0.84490  Biso   1.000  C
  C208     1.0000 0.62100  0.58180  0.84490  Biso   1.000  C
  H385     1.0000 0.11460  0.87500  0.35660  Biso   1.000  H
  H386     1.0000 0.61460  0.37500  0.35660  Biso   1.000  H
  H387     1.0000 0.88540  0.87500  0.14340  Biso   1.000  H
  H388     1.0000 0.38540  0.37500  0.14340  Biso   1.000  H
  H389     1.0000 0.88540  0.12500  0.64340  Biso   1.000  H
  H390     1.0000 0.38540  0.62500  0.64340  Biso   1.000  H
  H391     1.0000 0.11460  0.12500  0.85660  Biso   1.000  H
  H392     1.0000 0.61460  0.62500  0.85660  Biso   1.000  H
  H393     1.0000 0.13970  0.91990  0.30290  Biso   1.000  H
  H394     1.0000 0.63970  0.41990  0.30290  Biso   1.000  H
  H395     1.0000 0.86030  0.91990  0.19710  Biso   1.000  H
  H396     1.0000 0.36030  0.41990  0.19710  Biso   1.000  H
  H397     1.0000 0.86030  0.08010  0.69710  Biso   1.000  H
  H398     1.0000 0.36030  0.58010  0.69710  Biso   1.000  H
  H399     1.0000 0.13970  0.08010  0.80290  Biso   1.000  H
  H400     1.0000 0.63970  0.58010  0.80290  Biso   1.000  H
  H401     1.0000 0.07700  0.94010  0.33890  Biso   1.000  H
  H402     1.0000 0.57700  0.44010  0.33890  Biso   1.000  H
  H403     1.0000 0.92300  0.94010  0.16110  Biso   1.000  H
  H404     1.0000 0.42300  0.44010  0.16110  Biso   1.000  H
  H405     1.0000 0.92300  0.05990  0.66110  Biso   1.000  H
  H406     1.0000 0.42300  0.55990  0.66110  Biso   1.000  H
  H407     1.0000 0.07700  0.05990  0.83890  Biso   1.000  H
  H408     1.0000 0.57700  0.55990  0.83890  Biso   1.000  H
