data_image0
_cell_length_a       16.5216
_cell_length_b       16.5216
_cell_length_c       46.798
_cell_angle_alpha    90
_cell_angle_beta     90
_cell_angle_gamma    120

_symmetry_space_group_name_H-M    "P 1"
_symmetry_int_tables_number       1

loop_
  _symmetry_equiv_pos_as_xyz
  'x, y, z'

loop_
  _atom_site_label
  _atom_site_occupancy
  _atom_site_fract_x
  _atom_site_fract_y
  _atom_site_fract_z
  _atom_site_thermal_displace_type
  _atom_site_B_iso_or_equiv
  _atom_site_type_symbol
  Cu1      1.0000 0.58165  0.00000  0.75000  Biso   1.000  Cu
  Cu2      1.0000 0.00000  0.58165  0.75000  Biso   1.000  Cu
  Cu3      1.0000 0.41835  0.41835  0.75000  Biso   1.000  Cu
  Cu4      1.0000 0.24832  0.33333  0.08333  Biso   1.000  Cu
  Cu5      1.0000 0.66667  0.91498  0.08333  Biso   1.000  Cu
  Cu6      1.0000 0.08502  0.75168  0.08333  Biso   1.000  Cu
  Cu7      1.0000 0.91498  0.66667  0.41667  Biso   1.000  Cu
  Cu8      1.0000 0.33333  0.24832  0.41667  Biso   1.000  Cu
  Cu9      1.0000 0.75168  0.08502  0.41667  Biso   1.000  Cu
  Cu10     1.0000 0.41835  0.00000  0.25000  Biso   1.000  Cu
  Cu11     1.0000 0.00000  0.41835  0.25000  Biso   1.000  Cu
  Cu12     1.0000 0.58165  0.58165  0.25000  Biso   1.000  Cu
  Cu13     1.0000 0.08502  0.33333  0.58333  Biso   1.000  Cu
  Cu14     1.0000 0.66667  0.75168  0.58333  Biso   1.000  Cu
  Cu15     1.0000 0.24832  0.91498  0.58333  Biso   1.000  Cu
  Cu16     1.0000 0.75168  0.66667  0.91667  Biso   1.000  Cu
  Cu17     1.0000 0.33333  0.08502  0.91667  Biso   1.000  Cu
  Cu18     1.0000 0.91498  0.24832  0.91667  Biso   1.000  Cu
  N1       1.0000 0.55220  0.68135  0.71247  Biso   1.000  N
  N2       1.0000 0.31865  0.87085  0.71247  Biso   1.000  N
  N3       1.0000 0.12915  0.44780  0.71247  Biso   1.000  N
  N4       1.0000 0.68135  0.55220  0.78753  Biso   1.000  N
  N5       1.0000 0.87085  0.31865  0.78753  Biso   1.000  N
  N6       1.0000 0.44780  0.12915  0.78753  Biso   1.000  N
  N7       1.0000 0.21887  0.01468  0.04580  Biso   1.000  N
  N8       1.0000 0.98532  0.20418  0.04580  Biso   1.000  N
  N9       1.0000 0.79582  0.78113  0.04580  Biso   1.000  N
  N10      1.0000 0.34802  0.88553  0.12086  Biso   1.000  N
  N11      1.0000 0.53752  0.65198  0.12086  Biso   1.000  N
  N12      1.0000 0.11447  0.46248  0.12086  Biso   1.000  N
  N13      1.0000 0.88553  0.34802  0.37914  Biso   1.000  N
  N14      1.0000 0.65198  0.53752  0.37914  Biso   1.000  N
  N15      1.0000 0.46248  0.11447  0.37914  Biso   1.000  N
  N16      1.0000 0.01468  0.21887  0.45420  Biso   1.000  N
  N17      1.0000 0.20418  0.98532  0.45420  Biso   1.000  N
  N18      1.0000 0.78113  0.79582  0.45420  Biso   1.000  N
  N19      1.0000 0.44780  0.31865  0.28753  Biso   1.000  N
  N20      1.0000 0.68135  0.12915  0.28753  Biso   1.000  N
  N21      1.0000 0.87085  0.55220  0.28753  Biso   1.000  N
  N22      1.0000 0.31865  0.44780  0.21247  Biso   1.000  N
  N23      1.0000 0.12915  0.68135  0.21247  Biso   1.000  N
  N24      1.0000 0.55220  0.87085  0.21247  Biso   1.000  N
  N25      1.0000 0.11447  0.65198  0.62086  Biso   1.000  N
  N26      1.0000 0.34802  0.46248  0.62086  Biso   1.000  N
  N27      1.0000 0.53752  0.88553  0.62086  Biso   1.000  N
  N28      1.0000 0.98532  0.78113  0.54580  Biso   1.000  N
  N29      1.0000 0.79582  0.01468  0.54580  Biso   1.000  N
  N30      1.0000 0.21887  0.20418  0.54580  Biso   1.000  N
  N31      1.0000 0.78113  0.98532  0.95420  Biso   1.000  N
  N32      1.0000 0.01468  0.79582  0.95420  Biso   1.000  N
  N33      1.0000 0.20418  0.21887  0.95420  Biso   1.000  N
  N34      1.0000 0.65198  0.11447  0.87914  Biso   1.000  N
  N35      1.0000 0.46248  0.34802  0.87914  Biso   1.000  N
  N36      1.0000 0.88553  0.53752  0.87914  Biso   1.000  N
  N37      1.0000 0.47280  0.53790  0.72701  Biso   1.000  N
  N38      1.0000 0.46210  0.93490  0.72701  Biso   1.000  N
  N39      1.0000 0.06510  0.52720  0.72701  Biso   1.000  N
  N40      1.0000 0.53790  0.47280  0.77299  Biso   1.000  N
  N41      1.0000 0.93490  0.46210  0.77299  Biso   1.000  N
  N42      1.0000 0.52720  0.06510  0.77299  Biso   1.000  N
  N43      1.0000 0.13947  0.87123  0.06034  Biso   1.000  N
  N44      1.0000 0.12877  0.26823  0.06034  Biso   1.000  N
  N45      1.0000 0.73177  0.86053  0.06034  Biso   1.000  N
  N46      1.0000 0.20457  0.80613  0.10632  Biso   1.000  N
  N47      1.0000 0.60157  0.79543  0.10632  Biso   1.000  N
  N48      1.0000 0.19387  0.39843  0.10632  Biso   1.000  N
  N49      1.0000 0.80613  0.20457  0.39368  Biso   1.000  N
  N50      1.0000 0.79543  0.60157  0.39368  Biso   1.000  N
  N51      1.0000 0.39843  0.19387  0.39368  Biso   1.000  N
  N52      1.0000 0.87123  0.13947  0.43966  Biso   1.000  N
  N53      1.0000 0.26823  0.12877  0.43966  Biso   1.000  N
  N54      1.0000 0.86053  0.73177  0.43966  Biso   1.000  N
  N55      1.0000 0.52720  0.46210  0.27299  Biso   1.000  N
  N56      1.0000 0.53790  0.06510  0.27299  Biso   1.000  N
  N57      1.0000 0.93490  0.47280  0.27299  Biso   1.000  N
  N58      1.0000 0.46210  0.52720  0.22701  Biso   1.000  N
  N59      1.0000 0.06510  0.53790  0.22701  Biso   1.000  N
  N60      1.0000 0.47280  0.93490  0.22701  Biso   1.000  N
  N61      1.0000 0.19387  0.79543  0.60632  Biso   1.000  N
  N62      1.0000 0.20457  0.39843  0.60632  Biso   1.000  N
  N63      1.0000 0.60157  0.80613  0.60632  Biso   1.000  N
  N64      1.0000 0.12877  0.86053  0.56034  Biso   1.000  N
  N65      1.0000 0.73177  0.87123  0.56034  Biso   1.000  N
  N66      1.0000 0.13947  0.26823  0.56034  Biso   1.000  N
  N67      1.0000 0.86053  0.12877  0.93966  Biso   1.000  N
  N68      1.0000 0.87123  0.73177  0.93966  Biso   1.000  N
  N69      1.0000 0.26823  0.13947  0.93966  Biso   1.000  N
  N70      1.0000 0.79543  0.19387  0.89368  Biso   1.000  N
  N71      1.0000 0.39843  0.20457  0.89368  Biso   1.000  N
  N72      1.0000 0.80613  0.60157  0.89368  Biso   1.000  N
  N73      1.0000 0.63129  0.92690  0.72858  Biso   1.000  N
  N74      1.0000 0.07310  0.70439  0.72858  Biso   1.000  N
  N75      1.0000 0.29561  0.36871  0.72858  Biso   1.000  N
  N76      1.0000 0.92690  0.63129  0.77142  Biso   1.000  N
  N77      1.0000 0.70439  0.07310  0.77142  Biso   1.000  N
  N78      1.0000 0.36871  0.29561  0.77142  Biso   1.000  N
  N79      1.0000 0.29796  0.26023  0.06191  Biso   1.000  N
  N80      1.0000 0.73977  0.03772  0.06191  Biso   1.000  N
  N81      1.0000 0.96228  0.70204  0.06191  Biso   1.000  N
  N82      1.0000 0.59357  0.96462  0.10475  Biso   1.000  N
  N83      1.0000 0.37106  0.40643  0.10475  Biso   1.000  N
  N84      1.0000 0.03538  0.62894  0.10475  Biso   1.000  N
  N85      1.0000 0.96462  0.59357  0.39525  Biso   1.000  N
  N86      1.0000 0.40643  0.37106  0.39525  Biso   1.000  N
  N87      1.0000 0.62894  0.03538  0.39525  Biso   1.000  N
  N88      1.0000 0.26023  0.29796  0.43809  Biso   1.000  N
  N89      1.0000 0.03772  0.73977  0.43809  Biso   1.000  N
  N90      1.0000 0.70204  0.96228  0.43809  Biso   1.000  N
  N91      1.0000 0.36871  0.07310  0.27142  Biso   1.000  N
  N92      1.0000 0.92690  0.29561  0.27142  Biso   1.000  N
  N93      1.0000 0.70439  0.63129  0.27142  Biso   1.000  N
  N94      1.0000 0.07310  0.36871  0.22858  Biso   1.000  N
  N95      1.0000 0.29561  0.92690  0.22858  Biso   1.000  N
  N96      1.0000 0.63129  0.70439  0.22858  Biso   1.000  N
  N97      1.0000 0.03538  0.40643  0.60475  Biso   1.000  N
  N98      1.0000 0.59357  0.62894  0.60475  Biso   1.000  N
  N99      1.0000 0.37106  0.96462  0.60475  Biso   1.000  N
  N100     1.0000 0.73977  0.70204  0.56191  Biso   1.000  N
  N101     1.0000 0.96228  0.26023  0.56191  Biso   1.000  N
  N102     1.0000 0.29796  0.03772  0.56191  Biso   1.000  N
  N103     1.0000 0.70204  0.73977  0.93809  Biso   1.000  N
  N104     1.0000 0.26023  0.96228  0.93809  Biso   1.000  N
  N105     1.0000 0.03772  0.29796  0.93809  Biso   1.000  N
  N106     1.0000 0.40643  0.03538  0.89525  Biso   1.000  N
  N107     1.0000 0.62894  0.59357  0.89525  Biso   1.000  N
  N108     1.0000 0.96462  0.37106  0.89525  Biso   1.000  N
  O1       1.0000 0.51740  0.87890  0.78637  Biso   1.000  O
  O2       1.0000 0.12110  0.63850  0.78637  Biso   1.000  O
  O3       1.0000 0.36150  0.48260  0.78637  Biso   1.000  O
  O4       1.0000 0.87890  0.51740  0.71363  Biso   1.000  O
  O5       1.0000 0.63850  0.12110  0.71363  Biso   1.000  O
  O6       1.0000 0.48260  0.36150  0.71363  Biso   1.000  O
  O7       1.0000 0.18407  0.21223  0.11970  Biso   1.000  O
  O8       1.0000 0.78777  0.97183  0.11970  Biso   1.000  O
  O9       1.0000 0.02817  0.81593  0.11970  Biso   1.000  O
  O10      1.0000 0.54557  0.85073  0.04696  Biso   1.000  O
  O11      1.0000 0.30517  0.45443  0.04696  Biso   1.000  O
  O12      1.0000 0.14927  0.69483  0.04696  Biso   1.000  O
  O13      1.0000 0.85073  0.54557  0.45304  Biso   1.000  O
  O14      1.0000 0.45443  0.30517  0.45304  Biso   1.000  O
  O15      1.0000 0.69483  0.14927  0.45304  Biso   1.000  O
  O16      1.0000 0.21223  0.18407  0.38030  Biso   1.000  O
  O17      1.0000 0.97183  0.78777  0.38030  Biso   1.000  O
  O18      1.0000 0.81593  0.02817  0.38030  Biso   1.000  O
  O19      1.0000 0.48260  0.12110  0.21363  Biso   1.000  O
  O20      1.0000 0.87890  0.36150  0.21363  Biso   1.000  O
  O21      1.0000 0.63850  0.51740  0.21363  Biso   1.000  O
  O22      1.0000 0.12110  0.48260  0.28637  Biso   1.000  O
  O23      1.0000 0.36150  0.87890  0.28637  Biso   1.000  O
  O24      1.0000 0.51740  0.63850  0.28637  Biso   1.000  O
  O25      1.0000 0.14927  0.45443  0.54696  Biso   1.000  O
  O26      1.0000 0.54557  0.69483  0.54696  Biso   1.000  O
  O27      1.0000 0.30517  0.85073  0.54696  Biso   1.000  O
  O28      1.0000 0.78777  0.81593  0.61970  Biso   1.000  O
  O29      1.0000 0.02817  0.21223  0.61970  Biso   1.000  O
  O30      1.0000 0.18407  0.97183  0.61970  Biso   1.000  O
  O31      1.0000 0.81593  0.78777  0.88030  Biso   1.000  O
  O32      1.0000 0.21223  0.02817  0.88030  Biso   1.000  O
  O33      1.0000 0.97183  0.18407  0.88030  Biso   1.000  O
  O34      1.0000 0.45443  0.14927  0.95304  Biso   1.000  O
  O35      1.0000 0.69483  0.54557  0.95304  Biso   1.000  O
  O36      1.0000 0.85073  0.30517  0.95304  Biso   1.000  O
  H1       1.0000 0.56190  0.87360  0.79430  Biso   1.000  H
  H2       1.0000 0.12640  0.68830  0.79430  Biso   1.000  H
  H3       1.0000 0.31170  0.43810  0.79430  Biso   1.000  H
  H4       1.0000 0.87360  0.56190  0.70570  Biso   1.000  H
  H5       1.0000 0.68830  0.12640  0.70570  Biso   1.000  H
  H6       1.0000 0.43810  0.31170  0.70570  Biso   1.000  H
  H7       1.0000 0.22857  0.20693  0.12763  Biso   1.000  H
  H8       1.0000 0.79307  0.02163  0.12763  Biso   1.000  H
  H9       1.0000 0.97837  0.77143  0.12763  Biso   1.000  H
  H10      1.0000 0.54027  0.89523  0.03903  Biso   1.000  H
  H11      1.0000 0.35497  0.45973  0.03903  Biso   1.000  H
  H12      1.0000 0.10477  0.64503  0.03903  Biso   1.000  H
  H13      1.0000 0.89523  0.54027  0.46097  Biso   1.000  H
  H14      1.0000 0.45973  0.35497  0.46097  Biso   1.000  H
  H15      1.0000 0.64503  0.10477  0.46097  Biso   1.000  H
  H16      1.0000 0.20693  0.22857  0.37237  Biso   1.000  H
  H17      1.0000 0.02163  0.79307  0.37237  Biso   1.000  H
  H18      1.0000 0.77143  0.97837  0.37237  Biso   1.000  H
  H19      1.0000 0.43810  0.12640  0.20570  Biso   1.000  H
  H20      1.0000 0.87360  0.31170  0.20570  Biso   1.000  H
  H21      1.0000 0.68830  0.56190  0.20570  Biso   1.000  H
  H22      1.0000 0.12640  0.43810  0.29430  Biso   1.000  H
  H23      1.0000 0.31170  0.87360  0.29430  Biso   1.000  H
  H24      1.0000 0.56190  0.68830  0.29430  Biso   1.000  H
  H25      1.0000 0.10477  0.45973  0.53903  Biso   1.000  H
  H26      1.0000 0.54027  0.64503  0.53903  Biso   1.000  H
  H27      1.0000 0.35497  0.89523  0.53903  Biso   1.000  H
  H28      1.0000 0.79307  0.77143  0.62763  Biso   1.000  H
  H29      1.0000 0.97837  0.20693  0.62763  Biso   1.000  H
  H30      1.0000 0.22857  0.02163  0.62763  Biso   1.000  H
  H31      1.0000 0.77143  0.79307  0.87237  Biso   1.000  H
  H32      1.0000 0.20693  0.97837  0.87237  Biso   1.000  H
  H33      1.0000 0.02163  0.22857  0.87237  Biso   1.000  H
  H34      1.0000 0.45973  0.10477  0.96097  Biso   1.000  H
  H35      1.0000 0.64503  0.54027  0.96097  Biso   1.000  H
  H36      1.0000 0.89523  0.35497  0.96097  Biso   1.000  H
  H37      1.0000 0.48230  0.82460  0.77860  Biso   1.000  H
  H38      1.0000 0.17540  0.65770  0.77860  Biso   1.000  H
  H39      1.0000 0.34230  0.51770  0.77860  Biso   1.000  H
  H40      1.0000 0.82460  0.48230  0.72140  Biso   1.000  H
  H41      1.0000 0.65770  0.17540  0.72140  Biso   1.000  H
  H42      1.0000 0.51770  0.34230  0.72140  Biso   1.000  H
  H43      1.0000 0.14897  0.15793  0.11193  Biso   1.000  H
  H44      1.0000 0.84207  0.99103  0.11193  Biso   1.000  H
  H45      1.0000 0.00897  0.85103  0.11193  Biso   1.000  H
  H46      1.0000 0.49127  0.81563  0.05473  Biso   1.000  H
  H47      1.0000 0.32437  0.50873  0.05473  Biso   1.000  H
  H48      1.0000 0.18437  0.67563  0.05473  Biso   1.000  H
  H49      1.0000 0.81563  0.49127  0.44527  Biso   1.000  H
  H50      1.0000 0.50873  0.32437  0.44527  Biso   1.000  H
  H51      1.0000 0.67563  0.18437  0.44527  Biso   1.000  H
  H52      1.0000 0.15793  0.14897  0.38807  Biso   1.000  H
  H53      1.0000 0.99103  0.84207  0.38807  Biso   1.000  H
  H54      1.0000 0.85103  0.00897  0.38807  Biso   1.000  H
  H55      1.0000 0.51770  0.17540  0.22140  Biso   1.000  H
  H56      1.0000 0.82460  0.34230  0.22140  Biso   1.000  H
  H57      1.0000 0.65770  0.48230  0.22140  Biso   1.000  H
  H58      1.0000 0.17540  0.51770  0.27860  Biso   1.000  H
  H59      1.0000 0.34230  0.82460  0.27860  Biso   1.000  H
  H60      1.0000 0.48230  0.65770  0.27860  Biso   1.000  H
  H61      1.0000 0.18437  0.50873  0.55473  Biso   1.000  H
  H62      1.0000 0.49127  0.67563  0.55473  Biso   1.000  H
  H63      1.0000 0.32437  0.81563  0.55473  Biso   1.000  H
  H64      1.0000 0.84207  0.85103  0.61193  Biso   1.000  H
  H65      1.0000 0.00897  0.15793  0.61193  Biso   1.000  H
  H66      1.0000 0.14897  0.99103  0.61193  Biso   1.000  H
  H67      1.0000 0.85103  0.84207  0.88807  Biso   1.000  H
  H68      1.0000 0.15793  0.00897  0.88807  Biso   1.000  H
  H69      1.0000 0.99103  0.14897  0.88807  Biso   1.000  H
  H70      1.0000 0.50873  0.18437  0.94527  Biso   1.000  H
  H71      1.0000 0.67563  0.49127  0.94527  Biso   1.000  H
  H72      1.0000 0.81563  0.32437  0.94527  Biso   1.000  H
  C1       1.0000 0.60920  0.78120  0.71234  Biso   1.000  C
  C2       1.0000 0.21880  0.82800  0.71234  Biso   1.000  C
  C3       1.0000 0.17200  0.39080  0.71234  Biso   1.000  C
  C4       1.0000 0.78120  0.60920  0.78766  Biso   1.000  C
  C5       1.0000 0.82800  0.21880  0.78766  Biso   1.000  C
  C6       1.0000 0.39080  0.17200  0.78766  Biso   1.000  C
  C7       1.0000 0.27587  0.11453  0.04567  Biso   1.000  C
  C8       1.0000 0.88547  0.16133  0.04567  Biso   1.000  C
  C9       1.0000 0.83867  0.72413  0.04567  Biso   1.000  C
  C10      1.0000 0.44787  0.94253  0.12099  Biso   1.000  C
  C11      1.0000 0.49467  0.55213  0.12099  Biso   1.000  C
  C12      1.0000 0.05747  0.50533  0.12099  Biso   1.000  C
  C13      1.0000 0.94253  0.44787  0.37901  Biso   1.000  C
  C14      1.0000 0.55213  0.49467  0.37901  Biso   1.000  C
  C15      1.0000 0.50533  0.05747  0.37901  Biso   1.000  C
  C16      1.0000 0.11453  0.27587  0.45433  Biso   1.000  C
  C17      1.0000 0.16133  0.88547  0.45433  Biso   1.000  C
  C18      1.0000 0.72413  0.83867  0.45433  Biso   1.000  C
  C19      1.0000 0.39080  0.21880  0.28766  Biso   1.000  C
  C20      1.0000 0.78120  0.17200  0.28766  Biso   1.000  C
  C21      1.0000 0.82800  0.60920  0.28766  Biso   1.000  C
  C22      1.0000 0.21880  0.39080  0.21234  Biso   1.000  C
  C23      1.0000 0.17200  0.78120  0.21234  Biso   1.000  C
  C24      1.0000 0.60920  0.82800  0.21234  Biso   1.000  C
  C25      1.0000 0.05747  0.55213  0.62099  Biso   1.000  C
  C26      1.0000 0.44787  0.50533  0.62099  Biso   1.000  C
  C27      1.0000 0.49467  0.94253  0.62099  Biso   1.000  C
  C28      1.0000 0.88547  0.72413  0.54567  Biso   1.000  C
  C29      1.0000 0.83867  0.11453  0.54567  Biso   1.000  C
  C30      1.0000 0.27587  0.16133  0.54567  Biso   1.000  C
  C31      1.0000 0.72413  0.88547  0.95433  Biso   1.000  C
  C32      1.0000 0.11453  0.83867  0.95433  Biso   1.000  C
  C33      1.0000 0.16133  0.27587  0.95433  Biso   1.000  C
  C34      1.0000 0.55213  0.05747  0.87901  Biso   1.000  C
  C35      1.0000 0.50533  0.44787  0.87901  Biso   1.000  C
  C36      1.0000 0.94253  0.49467  0.87901  Biso   1.000  C
  C37      1.0000 0.57790  0.83300  0.72709  Biso   1.000  C
  C38      1.0000 0.16700  0.74490  0.72709  Biso   1.000  C
  C39      1.0000 0.25510  0.42210  0.72709  Biso   1.000  C
  C40      1.0000 0.83300  0.57790  0.77291  Biso   1.000  C
  C41      1.0000 0.74490  0.16700  0.77291  Biso   1.000  C
  C42      1.0000 0.42210  0.25510  0.77291  Biso   1.000  C
  C43      1.0000 0.24457  0.16633  0.06042  Biso   1.000  C
  C44      1.0000 0.83367  0.07823  0.06042  Biso   1.000  C
  C45      1.0000 0.92177  0.75543  0.06042  Biso   1.000  C
  C46      1.0000 0.49967  0.91123  0.10624  Biso   1.000  C
  C47      1.0000 0.41157  0.50033  0.10624  Biso   1.000  C
  C48      1.0000 0.08877  0.58843  0.10624  Biso   1.000  C
  C49      1.0000 0.91123  0.49967  0.39376  Biso   1.000  C
  C50      1.0000 0.50033  0.41157  0.39376  Biso   1.000  C
  C51      1.0000 0.58843  0.08877  0.39376  Biso   1.000  C
  C52      1.0000 0.16633  0.24457  0.43958  Biso   1.000  C
  C53      1.0000 0.07823  0.83367  0.43958  Biso   1.000  C
  C54      1.0000 0.75543  0.92177  0.43958  Biso   1.000  C
  C55      1.0000 0.42210  0.16700  0.27291  Biso   1.000  C
  C56      1.0000 0.83300  0.25510  0.27291  Biso   1.000  C
  C57      1.0000 0.74490  0.57790  0.27291  Biso   1.000  C
  C58      1.0000 0.16700  0.42210  0.22709  Biso   1.000  C
  C59      1.0000 0.25510  0.83300  0.22709  Biso   1.000  C
  C60      1.0000 0.57790  0.74490  0.22709  Biso   1.000  C
  C61      1.0000 0.08877  0.50033  0.60624  Biso   1.000  C
  C62      1.0000 0.49967  0.58843  0.60624  Biso   1.000  C
  C63      1.0000 0.41157  0.91123  0.60624  Biso   1.000  C
  C64      1.0000 0.83367  0.75543  0.56042  Biso   1.000  C
  C65      1.0000 0.92177  0.16633  0.56042  Biso   1.000  C
  C66      1.0000 0.24457  0.07823  0.56042  Biso   1.000  C
  C67      1.0000 0.75543  0.83367  0.93958  Biso   1.000  C
  C68      1.0000 0.16633  0.92177  0.93958  Biso   1.000  C
  C69      1.0000 0.07823  0.24457  0.93958  Biso   1.000  C
  C70      1.0000 0.50033  0.08877  0.89376  Biso   1.000  C
  C71      1.0000 0.58843  0.49967  0.89376  Biso   1.000  C
  C72      1.0000 0.91123  0.41157  0.89376  Biso   1.000  C
  H73      1.0000 0.51980  0.80290  0.73600  Biso   1.000  H
  H74      1.0000 0.19710  0.71690  0.73600  Biso   1.000  H
  H75      1.0000 0.28310  0.48020  0.73600  Biso   1.000  H
  H76      1.0000 0.80290  0.51980  0.76400  Biso   1.000  H
  H77      1.0000 0.71690  0.19710  0.76400  Biso   1.000  H
  H78      1.0000 0.48020  0.28310  0.76400  Biso   1.000  H
  H79      1.0000 0.18647  0.13623  0.06933  Biso   1.000  H
  H80      1.0000 0.86377  0.05023  0.06933  Biso   1.000  H
  H81      1.0000 0.94977  0.81353  0.06933  Biso   1.000  H
  H82      1.0000 0.46957  0.85313  0.09733  Biso   1.000  H
  H83      1.0000 0.38357  0.53043  0.09733  Biso   1.000  H
  H84      1.0000 0.14687  0.61643  0.09733  Biso   1.000  H
  H85      1.0000 0.85313  0.46957  0.40267  Biso   1.000  H
  H86      1.0000 0.53043  0.38357  0.40267  Biso   1.000  H
  H87      1.0000 0.61643  0.14687  0.40267  Biso   1.000  H
  H88      1.0000 0.13623  0.18647  0.43067  Biso   1.000  H
  H89      1.0000 0.05023  0.86377  0.43067  Biso   1.000  H
  H90      1.0000 0.81353  0.94977  0.43067  Biso   1.000  H
  H91      1.0000 0.48020  0.19710  0.26400  Biso   1.000  H
  H92      1.0000 0.80290  0.28310  0.26400  Biso   1.000  H
  H93      1.0000 0.71690  0.51980  0.26400  Biso   1.000  H
  H94      1.0000 0.19710  0.48020  0.23600  Biso   1.000  H
  H95      1.0000 0.28310  0.80290  0.23600  Biso   1.000  H
  H96      1.0000 0.51980  0.71690  0.23600  Biso   1.000  H
  H97      1.0000 0.14687  0.53043  0.59733  Biso   1.000  H
  H98      1.0000 0.46957  0.61643  0.59733  Biso   1.000  H
  H99      1.0000 0.38357  0.85313  0.59733  Biso   1.000  H
  H100     1.0000 0.86377  0.81353  0.56933  Biso   1.000  H
  H101     1.0000 0.94977  0.13623  0.56933  Biso   1.000  H
  H102     1.0000 0.18647  0.05023  0.56933  Biso   1.000  H
  H103     1.0000 0.81353  0.86377  0.93067  Biso   1.000  H
  H104     1.0000 0.13623  0.94977  0.93067  Biso   1.000  H
  H105     1.0000 0.05023  0.18647  0.93067  Biso   1.000  H
  H106     1.0000 0.53043  0.14687  0.90267  Biso   1.000  H
  H107     1.0000 0.61643  0.46957  0.90267  Biso   1.000  H
  H108     1.0000 0.85313  0.38357  0.90267  Biso   1.000  H
  C73      1.0000 0.51980  0.62450  0.73515  Biso   1.000  C
  C74      1.0000 0.37550  0.89530  0.73515  Biso   1.000  C
  C75      1.0000 0.10470  0.48020  0.73515  Biso   1.000  C
  C76      1.0000 0.62450  0.51980  0.76485  Biso   1.000  C
  C77      1.0000 0.89530  0.37550  0.76485  Biso   1.000  C
  C78      1.0000 0.48020  0.10470  0.76485  Biso   1.000  C
  C79      1.0000 0.18647  0.95783  0.06848  Biso   1.000  C
  C80      1.0000 0.04217  0.22863  0.06848  Biso   1.000  C
  C81      1.0000 0.77137  0.81353  0.06848  Biso   1.000  C
  C82      1.0000 0.29117  0.85313  0.09818  Biso   1.000  C
  C83      1.0000 0.56197  0.70883  0.09818  Biso   1.000  C
  C84      1.0000 0.14687  0.43803  0.09818  Biso   1.000  C
  C85      1.0000 0.85313  0.29117  0.40182  Biso   1.000  C
  C86      1.0000 0.70883  0.56197  0.40182  Biso   1.000  C
  C87      1.0000 0.43803  0.14687  0.40182  Biso   1.000  C
  C88      1.0000 0.95783  0.18647  0.43152  Biso   1.000  C
  C89      1.0000 0.22863  0.04217  0.43152  Biso   1.000  C
  C90      1.0000 0.81353  0.77137  0.43152  Biso   1.000  C
  C91      1.0000 0.48020  0.37550  0.26485  Biso   1.000  C
  C92      1.0000 0.62450  0.10470  0.26485  Biso   1.000  C
  C93      1.0000 0.89530  0.51980  0.26485  Biso   1.000  C
  C94      1.0000 0.37550  0.48020  0.23515  Biso   1.000  C
  C95      1.0000 0.10470  0.62450  0.23515  Biso   1.000  C
  C96      1.0000 0.51980  0.89530  0.23515  Biso   1.000  C
  C97      1.0000 0.14687  0.70883  0.59818  Biso   1.000  C
  C98      1.0000 0.29117  0.43803  0.59818  Biso   1.000  C
  C99      1.0000 0.56197  0.85313  0.59818  Biso   1.000  C
  C100     1.0000 0.04217  0.81353  0.56848  Biso   1.000  C
  C101     1.0000 0.77137  0.95783  0.56848  Biso   1.000  C
  C102     1.0000 0.18647  0.22863  0.56848  Biso   1.000  C
  C103     1.0000 0.81353  0.04217  0.93152  Biso   1.000  C
  C104     1.0000 0.95783  0.77137  0.93152  Biso   1.000  C
  C105     1.0000 0.22863  0.18647  0.93152  Biso   1.000  C
  C106     1.0000 0.70883  0.14687  0.90182  Biso   1.000  C
  C107     1.0000 0.43803  0.29117  0.90182  Biso   1.000  C
  C108     1.0000 0.85313  0.56197  0.90182  Biso   1.000  C
  H109     1.0000 0.52960  0.64430  0.75410  Biso   1.000  H
  H110     1.0000 0.35570  0.88530  0.75410  Biso   1.000  H
  H111     1.0000 0.11470  0.47040  0.75410  Biso   1.000  H
  H112     1.0000 0.64430  0.52960  0.74590  Biso   1.000  H
  H113     1.0000 0.88530  0.35570  0.74590  Biso   1.000  H
  H114     1.0000 0.47040  0.11470  0.74590  Biso   1.000  H
  H115     1.0000 0.19627  0.97763  0.08743  Biso   1.000  H
  H116     1.0000 0.02237  0.21863  0.08743  Biso   1.000  H
  H117     1.0000 0.78137  0.80373  0.08743  Biso   1.000  H
  H118     1.0000 0.31097  0.86293  0.07923  Biso   1.000  H
  H119     1.0000 0.55197  0.68903  0.07923  Biso   1.000  H
  H120     1.0000 0.13707  0.44803  0.07923  Biso   1.000  H
  H121     1.0000 0.86293  0.31097  0.42077  Biso   1.000  H
  H122     1.0000 0.68903  0.55197  0.42077  Biso   1.000  H
  H123     1.0000 0.44803  0.13707  0.42077  Biso   1.000  H
  H124     1.0000 0.97763  0.19627  0.41257  Biso   1.000  H
  H125     1.0000 0.21863  0.02237  0.41257  Biso   1.000  H
  H126     1.0000 0.80373  0.78137  0.41257  Biso   1.000  H
  H127     1.0000 0.47040  0.35570  0.24590  Biso   1.000  H
  H128     1.0000 0.64430  0.11470  0.24590  Biso   1.000  H
  H129     1.0000 0.88530  0.52960  0.24590  Biso   1.000  H
  H130     1.0000 0.35570  0.47040  0.25410  Biso   1.000  H
  H131     1.0000 0.11470  0.64430  0.25410  Biso   1.000  H
  H132     1.0000 0.52960  0.88530  0.25410  Biso   1.000  H
  H133     1.0000 0.13707  0.68903  0.57923  Biso   1.000  H
  H134     1.0000 0.31097  0.44803  0.57923  Biso   1.000  H
  H135     1.0000 0.55197  0.86293  0.57923  Biso   1.000  H
  H136     1.0000 0.02237  0.80373  0.58743  Biso   1.000  H
  H137     1.0000 0.78137  0.97763  0.58743  Biso   1.000  H
  H138     1.0000 0.19627  0.21863  0.58743  Biso   1.000  H
  H139     1.0000 0.80373  0.02237  0.91257  Biso   1.000  H
  H140     1.0000 0.97763  0.78137  0.91257  Biso   1.000  H
  H141     1.0000 0.21863  0.19627  0.91257  Biso   1.000  H
  H142     1.0000 0.68903  0.13707  0.92077  Biso   1.000  H
  H143     1.0000 0.44803  0.31097  0.92077  Biso   1.000  H
  H144     1.0000 0.86293  0.55197  0.92077  Biso   1.000  H
  C109     1.0000 0.74870  0.92080  0.69963  Biso   1.000  C
  C110     1.0000 0.07920  0.82790  0.69963  Biso   1.000  C
  C111     1.0000 0.17210  0.25130  0.69963  Biso   1.000  C
  C112     1.0000 0.92080  0.74870  0.80037  Biso   1.000  C
  C113     1.0000 0.82790  0.07920  0.80037  Biso   1.000  C
  C114     1.0000 0.25130  0.17210  0.80037  Biso   1.000  C
  C115     1.0000 0.41537  0.25413  0.03296  Biso   1.000  C
  C116     1.0000 0.74587  0.16123  0.03296  Biso   1.000  C
  C117     1.0000 0.83877  0.58463  0.03296  Biso   1.000  C
  C118     1.0000 0.58747  0.08203  0.13370  Biso   1.000  C
  C119     1.0000 0.49457  0.41253  0.13370  Biso   1.000  C
  C120     1.0000 0.91797  0.50543  0.13370  Biso   1.000  C
  C121     1.0000 0.08203  0.58747  0.36630  Biso   1.000  C
  C122     1.0000 0.41253  0.49457  0.36630  Biso   1.000  C
  C123     1.0000 0.50543  0.91797  0.36630  Biso   1.000  C
  C124     1.0000 0.25413  0.41537  0.46704  Biso   1.000  C
  C125     1.0000 0.16123  0.74587  0.46704  Biso   1.000  C
  C126     1.0000 0.58463  0.83877  0.46704  Biso   1.000  C
  C127     1.0000 0.25130  0.07920  0.30037  Biso   1.000  C
  C128     1.0000 0.92080  0.17210  0.30037  Biso   1.000  C
  C129     1.0000 0.82790  0.74870  0.30037  Biso   1.000  C
  C130     1.0000 0.07920  0.25130  0.19963  Biso   1.000  C
  C131     1.0000 0.17210  0.92080  0.19963  Biso   1.000  C
  C132     1.0000 0.74870  0.82790  0.19963  Biso   1.000  C
  C133     1.0000 0.91797  0.41253  0.63370  Biso   1.000  C
  C134     1.0000 0.58747  0.50543  0.63370  Biso   1.000  C
  C135     1.0000 0.49457  0.08203  0.63370  Biso   1.000  C
  C136     1.0000 0.74587  0.58463  0.53296  Biso   1.000  C
  C137     1.0000 0.83877  0.25413  0.53296  Biso   1.000  C
  C138     1.0000 0.41537  0.16123  0.53296  Biso   1.000  C
  C139     1.0000 0.58463  0.74587  0.96704  Biso   1.000  C
  C140     1.0000 0.25413  0.83877  0.96704  Biso   1.000  C
  C141     1.0000 0.16123  0.41537  0.96704  Biso   1.000  C
  C142     1.0000 0.41253  0.91797  0.86630  Biso   1.000  C
  C143     1.0000 0.50543  0.58747  0.86630  Biso   1.000  C
  C144     1.0000 0.08203  0.49457  0.86630  Biso   1.000  C
  C145     1.0000 0.71440  0.96860  0.71522  Biso   1.000  C
  C146     1.0000 0.03140  0.74580  0.71522  Biso   1.000  C
  C147     1.0000 0.25420  0.28560  0.71522  Biso   1.000  C
  C148     1.0000 0.96860  0.71440  0.78478  Biso   1.000  C
  C149     1.0000 0.74580  0.03140  0.78478  Biso   1.000  C
  C150     1.0000 0.28560  0.25420  0.78478  Biso   1.000  C
  C151     1.0000 0.38107  0.30193  0.04855  Biso   1.000  C
  C152     1.0000 0.69807  0.07913  0.04855  Biso   1.000  C
  C153     1.0000 0.92087  0.61893  0.04855  Biso   1.000  C
  C154     1.0000 0.63527  0.04773  0.11811  Biso   1.000  C
  C155     1.0000 0.41247  0.36473  0.11811  Biso   1.000  C
  C156     1.0000 0.95227  0.58753  0.11811  Biso   1.000  C
  C157     1.0000 0.04773  0.63527  0.38189  Biso   1.000  C
  C158     1.0000 0.36473  0.41247  0.38189  Biso   1.000  C
  C159     1.0000 0.58753  0.95227  0.38189  Biso   1.000  C
  C160     1.0000 0.30193  0.38107  0.45145  Biso   1.000  C
  C161     1.0000 0.07913  0.69807  0.45145  Biso   1.000  C
  C162     1.0000 0.61893  0.92087  0.45145  Biso   1.000  C
  C163     1.0000 0.28560  0.03140  0.28478  Biso   1.000  C
  C164     1.0000 0.96860  0.25420  0.28478  Biso   1.000  C
  C165     1.0000 0.74580  0.71440  0.28478  Biso   1.000  C
  C166     1.0000 0.03140  0.28560  0.21522  Biso   1.000  C
  C167     1.0000 0.25420  0.96860  0.21522  Biso   1.000  C
  C168     1.0000 0.71440  0.74580  0.21522  Biso   1.000  C
  C169     1.0000 0.95227  0.36473  0.61811  Biso   1.000  C
  C170     1.0000 0.63527  0.58753  0.61811  Biso   1.000  C
  C171     1.0000 0.41247  0.04773  0.61811  Biso   1.000  C
  C172     1.0000 0.69807  0.61893  0.54855  Biso   1.000  C
  C173     1.0000 0.92087  0.30193  0.54855  Biso   1.000  C
  C174     1.0000 0.38107  0.07913  0.54855  Biso   1.000  C
  C175     1.0000 0.61893  0.69807  0.95145  Biso   1.000  C
  C176     1.0000 0.30193  0.92087  0.95145  Biso   1.000  C
  C177     1.0000 0.07913  0.38107  0.95145  Biso   1.000  C
  C178     1.0000 0.36473  0.95227  0.88189  Biso   1.000  C
  C179     1.0000 0.58753  0.63527  0.88189  Biso   1.000  C
  C180     1.0000 0.04773  0.41247  0.88189  Biso   1.000  C
  H145     1.0000 0.75100  0.03330  0.71650  Biso   1.000  H
  H146     1.0000 0.96670  0.71770  0.71650  Biso   1.000  H
  H147     1.0000 0.28230  0.24900  0.71650  Biso   1.000  H
  H148     1.0000 0.03330  0.75100  0.78350  Biso   1.000  H
  H149     1.0000 0.71770  0.96670  0.78350  Biso   1.000  H
  H150     1.0000 0.24900  0.28230  0.78350  Biso   1.000  H
  H151     1.0000 0.41767  0.36663  0.04983  Biso   1.000  H
  H152     1.0000 0.63337  0.05103  0.04983  Biso   1.000  H
  H153     1.0000 0.94897  0.58233  0.04983  Biso   1.000  H
  H154     1.0000 0.69997  0.08433  0.11683  Biso   1.000  H
  H155     1.0000 0.38437  0.30003  0.11683  Biso   1.000  H
  H156     1.0000 0.91567  0.61563  0.11683  Biso   1.000  H
  H157     1.0000 0.08433  0.69997  0.38317  Biso   1.000  H
  H158     1.0000 0.30003  0.38437  0.38317  Biso   1.000  H
  H159     1.0000 0.61563  0.91567  0.38317  Biso   1.000  H
  H160     1.0000 0.36663  0.41767  0.45017  Biso   1.000  H
  H161     1.0000 0.05103  0.63337  0.45017  Biso   1.000  H
  H162     1.0000 0.58233  0.94897  0.45017  Biso   1.000  H
  H163     1.0000 0.24900  0.96670  0.28350  Biso   1.000  H
  H164     1.0000 0.03330  0.28230  0.28350  Biso   1.000  H
  H165     1.0000 0.71770  0.75100  0.28350  Biso   1.000  H
  H166     1.0000 0.96670  0.24900  0.21650  Biso   1.000  H
  H167     1.0000 0.28230  0.03330  0.21650  Biso   1.000  H
  H168     1.0000 0.75100  0.71770  0.21650  Biso   1.000  H
  H169     1.0000 0.91567  0.30003  0.61683  Biso   1.000  H
  H170     1.0000 0.69997  0.61563  0.61683  Biso   1.000  H
  H171     1.0000 0.38437  0.08433  0.61683  Biso   1.000  H
  H172     1.0000 0.63337  0.58233  0.54983  Biso   1.000  H
  H173     1.0000 0.94897  0.36663  0.54983  Biso   1.000  H
  H174     1.0000 0.41767  0.05103  0.54983  Biso   1.000  H
  H175     1.0000 0.58233  0.63337  0.95017  Biso   1.000  H
  H176     1.0000 0.36663  0.94897  0.95017  Biso   1.000  H
  H177     1.0000 0.05103  0.41767  0.95017  Biso   1.000  H
  H178     1.0000 0.30003  0.91567  0.88317  Biso   1.000  H
  H179     1.0000 0.61563  0.69997  0.88317  Biso   1.000  H
  H180     1.0000 0.08433  0.38437  0.88317  Biso   1.000  H
  N109     1.0000 0.47320  0.53670  0.69738  Biso   1.000  N
  N110     1.0000 0.46330  0.93650  0.69738  Biso   1.000  N
  N111     1.0000 0.06350  0.52680  0.69738  Biso   1.000  N
  N112     1.0000 0.53670  0.47320  0.80262  Biso   1.000  N
  N113     1.0000 0.93650  0.46330  0.80262  Biso   1.000  N
  N114     1.0000 0.52680  0.06350  0.80262  Biso   1.000  N
  N115     1.0000 0.13987  0.87003  0.03071  Biso   1.000  N
  N116     1.0000 0.12997  0.26983  0.03071  Biso   1.000  N
  N117     1.0000 0.73017  0.86013  0.03071  Biso   1.000  N
  N118     1.0000 0.20337  0.80653  0.13595  Biso   1.000  N
  N119     1.0000 0.60317  0.79663  0.13595  Biso   1.000  N
  N120     1.0000 0.19347  0.39683  0.13595  Biso   1.000  N
  N121     1.0000 0.80653  0.20337  0.36405  Biso   1.000  N
  N122     1.0000 0.79663  0.60317  0.36405  Biso   1.000  N
  N123     1.0000 0.39683  0.19347  0.36405  Biso   1.000  N
  N124     1.0000 0.87003  0.13987  0.46929  Biso   1.000  N
  N125     1.0000 0.26983  0.12997  0.46929  Biso   1.000  N
  N126     1.0000 0.86013  0.73017  0.46929  Biso   1.000  N
  N127     1.0000 0.52680  0.46330  0.30262  Biso   1.000  N
  N128     1.0000 0.53670  0.06350  0.30262  Biso   1.000  N
  N129     1.0000 0.93650  0.47320  0.30262  Biso   1.000  N
  N130     1.0000 0.46330  0.52680  0.19738  Biso   1.000  N
  N131     1.0000 0.06350  0.53670  0.19738  Biso   1.000  N
  N132     1.0000 0.47320  0.93650  0.19738  Biso   1.000  N
  N133     1.0000 0.19347  0.79663  0.63595  Biso   1.000  N
  N134     1.0000 0.20337  0.39683  0.63595  Biso   1.000  N
  N135     1.0000 0.60317  0.80653  0.63595  Biso   1.000  N
  N136     1.0000 0.12997  0.86013  0.53071  Biso   1.000  N
  N137     1.0000 0.73017  0.87003  0.53071  Biso   1.000  N
  N138     1.0000 0.13987  0.26983  0.53071  Biso   1.000  N
  N139     1.0000 0.86013  0.12997  0.96929  Biso   1.000  N
  N140     1.0000 0.87003  0.73017  0.96929  Biso   1.000  N
  N141     1.0000 0.26983  0.13987  0.96929  Biso   1.000  N
  N142     1.0000 0.79663  0.19347  0.86405  Biso   1.000  N
  N143     1.0000 0.39683  0.20337  0.86405  Biso   1.000  N
  N144     1.0000 0.80653  0.60317  0.86405  Biso   1.000  N
  C181     1.0000 0.69370  0.82420  0.69844  Biso   1.000  C
  C182     1.0000 0.17580  0.86950  0.69844  Biso   1.000  C
  C183     1.0000 0.13050  0.30630  0.69844  Biso   1.000  C
  C184     1.0000 0.82420  0.69370  0.80156  Biso   1.000  C
  C185     1.0000 0.86950  0.17580  0.80156  Biso   1.000  C
  C186     1.0000 0.30630  0.13050  0.80156  Biso   1.000  C
  C187     1.0000 0.36037  0.15753  0.03177  Biso   1.000  C
  C188     1.0000 0.84247  0.20283  0.03177  Biso   1.000  C
  C189     1.0000 0.79717  0.63963  0.03177  Biso   1.000  C
  C190     1.0000 0.49087  0.02703  0.13489  Biso   1.000  C
  C191     1.0000 0.53617  0.50913  0.13489  Biso   1.000  C
  C192     1.0000 0.97297  0.46383  0.13489  Biso   1.000  C
  C193     1.0000 0.02703  0.49087  0.36511  Biso   1.000  C
  C194     1.0000 0.50913  0.53617  0.36511  Biso   1.000  C
  C195     1.0000 0.46383  0.97297  0.36511  Biso   1.000  C
  C196     1.0000 0.15753  0.36037  0.46823  Biso   1.000  C
  C197     1.0000 0.20283  0.84247  0.46823  Biso   1.000  C
  C198     1.0000 0.63963  0.79717  0.46823  Biso   1.000  C
  C199     1.0000 0.30630  0.17580  0.30156  Biso   1.000  C
  C200     1.0000 0.82420  0.13050  0.30156  Biso   1.000  C
  C201     1.0000 0.86950  0.69370  0.30156  Biso   1.000  C
  C202     1.0000 0.17580  0.30630  0.19844  Biso   1.000  C
  C203     1.0000 0.13050  0.82420  0.19844  Biso   1.000  C
  C204     1.0000 0.69370  0.86950  0.19844  Biso   1.000  C
  C205     1.0000 0.97297  0.50913  0.63489  Biso   1.000  C
  C206     1.0000 0.49087  0.46383  0.63489  Biso   1.000  C
  C207     1.0000 0.53617  0.02703  0.63489  Biso   1.000  C
  C208     1.0000 0.84247  0.63963  0.53177  Biso   1.000  C
  C209     1.0000 0.79717  0.15753  0.53177  Biso   1.000  C
  C210     1.0000 0.36037  0.20283  0.53177  Biso   1.000  C
  C211     1.0000 0.63963  0.84247  0.96823  Biso   1.000  C
  C212     1.0000 0.15753  0.79717  0.96823  Biso   1.000  C
  C213     1.0000 0.20283  0.36037  0.96823  Biso   1.000  C
  C214     1.0000 0.50913  0.97297  0.86511  Biso   1.000  C
  C215     1.0000 0.46383  0.49087  0.86511  Biso   1.000  C
  C216     1.0000 0.02703  0.53617  0.86511  Biso   1.000  C
  H181     1.0000 0.71380  0.78900  0.68830  Biso   1.000  H
  H182     1.0000 0.21100  0.92480  0.68830  Biso   1.000  H
  H183     1.0000 0.07520  0.28620  0.68830  Biso   1.000  H
  H184     1.0000 0.78900  0.71380  0.81170  Biso   1.000  H
  H185     1.0000 0.92480  0.21100  0.81170  Biso   1.000  H
  H186     1.0000 0.28620  0.07520  0.81170  Biso   1.000  H
  H187     1.0000 0.38047  0.12233  0.02163  Biso   1.000  H
  H188     1.0000 0.87767  0.25813  0.02163  Biso   1.000  H
  H189     1.0000 0.74187  0.61953  0.02163  Biso   1.000  H
  H190     1.0000 0.45567  0.04713  0.14503  Biso   1.000  H
  H191     1.0000 0.59147  0.54433  0.14503  Biso   1.000  H
  H192     1.0000 0.95287  0.40853  0.14503  Biso   1.000  H
  H193     1.0000 0.04713  0.45567  0.35497  Biso   1.000  H
  H194     1.0000 0.54433  0.59147  0.35497  Biso   1.000  H
  H195     1.0000 0.40853  0.95287  0.35497  Biso   1.000  H
  H196     1.0000 0.12233  0.38047  0.47837  Biso   1.000  H
  H197     1.0000 0.25813  0.87767  0.47837  Biso   1.000  H
  H198     1.0000 0.61953  0.74187  0.47837  Biso   1.000  H
  H199     1.0000 0.28620  0.21100  0.31170  Biso   1.000  H
  H200     1.0000 0.78900  0.07520  0.31170  Biso   1.000  H
  H201     1.0000 0.92480  0.71380  0.31170  Biso   1.000  H
  H202     1.0000 0.21100  0.28620  0.18830  Biso   1.000  H
  H203     1.0000 0.07520  0.78900  0.18830  Biso   1.000  H
  H204     1.0000 0.71380  0.92480  0.18830  Biso   1.000  H
  H205     1.0000 0.95287  0.54433  0.64503  Biso   1.000  H
  H206     1.0000 0.45567  0.40853  0.64503  Biso   1.000  H
  H207     1.0000 0.59147  0.04713  0.64503  Biso   1.000  H
  H208     1.0000 0.87767  0.61953  0.52163  Biso   1.000  H
  H209     1.0000 0.74187  0.12233  0.52163  Biso   1.000  H
  H210     1.0000 0.38047  0.25813  0.52163  Biso   1.000  H
  H211     1.0000 0.61953  0.87767  0.97837  Biso   1.000  H
  H212     1.0000 0.12233  0.74187  0.97837  Biso   1.000  H
  H213     1.0000 0.25813  0.38047  0.97837  Biso   1.000  H
  H214     1.0000 0.54433  0.95287  0.85497  Biso   1.000  H
  H215     1.0000 0.40853  0.45567  0.85497  Biso   1.000  H
  H216     1.0000 0.04713  0.59147  0.85497  Biso   1.000  H
  C217     1.0000 0.84350  0.97170  0.68542  Biso   1.000  C
  C218     1.0000 0.02830  0.87180  0.68542  Biso   1.000  C
  C219     1.0000 0.12820  0.15650  0.68542  Biso   1.000  C
  C220     1.0000 0.97170  0.84350  0.81458  Biso   1.000  C
  C221     1.0000 0.87180  0.02830  0.81458  Biso   1.000  C
  C222     1.0000 0.15650  0.12820  0.81458  Biso   1.000  C
  C223     1.0000 0.51017  0.30503  0.01875  Biso   1.000  C
  C224     1.0000 0.69497  0.20513  0.01875  Biso   1.000  C
  C225     1.0000 0.79487  0.48983  0.01875  Biso   1.000  C
  C226     1.0000 0.63837  0.17683  0.14791  Biso   1.000  C
  C227     1.0000 0.53847  0.36163  0.14791  Biso   1.000  C
  C228     1.0000 0.82317  0.46153  0.14791  Biso   1.000  C
  C229     1.0000 0.17683  0.63837  0.35209  Biso   1.000  C
  C230     1.0000 0.36163  0.53847  0.35209  Biso   1.000  C
  C231     1.0000 0.46153  0.82317  0.35209  Biso   1.000  C
  C232     1.0000 0.30503  0.51017  0.48125  Biso   1.000  C
  C233     1.0000 0.20513  0.69497  0.48125  Biso   1.000  C
  C234     1.0000 0.48983  0.79487  0.48125  Biso   1.000  C
  C235     1.0000 0.15650  0.02830  0.31458  Biso   1.000  C
  C236     1.0000 0.97170  0.12820  0.31458  Biso   1.000  C
  C237     1.0000 0.87180  0.84350  0.31458  Biso   1.000  C
  C238     1.0000 0.02830  0.15650  0.18542  Biso   1.000  C
  C239     1.0000 0.12820  0.97170  0.18542  Biso   1.000  C
  C240     1.0000 0.84350  0.87180  0.18542  Biso   1.000  C
  C241     1.0000 0.82317  0.36163  0.64791  Biso   1.000  C
  C242     1.0000 0.63837  0.46153  0.64791  Biso   1.000  C
  C243     1.0000 0.53847  0.17683  0.64791  Biso   1.000  C
  C244     1.0000 0.69497  0.48983  0.51875  Biso   1.000  C
  C245     1.0000 0.79487  0.30503  0.51875  Biso   1.000  C
  C246     1.0000 0.51017  0.20513  0.51875  Biso   1.000  C
  C247     1.0000 0.48983  0.69497  0.98125  Biso   1.000  C
  C248     1.0000 0.30503  0.79487  0.98125  Biso   1.000  C
  C249     1.0000 0.20513  0.51017  0.98125  Biso   1.000  C
  C250     1.0000 0.36163  0.82317  0.85209  Biso   1.000  C
  C251     1.0000 0.46153  0.63837  0.85209  Biso   1.000  C
  C252     1.0000 0.17683  0.53847  0.85209  Biso   1.000  C
  H217     1.0000 0.84480  0.01710  0.67230  Biso   1.000  H
  H218     1.0000 0.98290  0.82770  0.67230  Biso   1.000  H
  H219     1.0000 0.17230  0.15520  0.67230  Biso   1.000  H
  H220     1.0000 0.01710  0.84480  0.82770  Biso   1.000  H
  H221     1.0000 0.82770  0.98290  0.82770  Biso   1.000  H
  H222     1.0000 0.15520  0.17230  0.82770  Biso   1.000  H
  H223     1.0000 0.51147  0.35043  0.00563  Biso   1.000  H
  H224     1.0000 0.64957  0.16103  0.00563  Biso   1.000  H
  H225     1.0000 0.83897  0.48853  0.00563  Biso   1.000  H
  H226     1.0000 0.68377  0.17813  0.16103  Biso   1.000  H
  H227     1.0000 0.49437  0.31623  0.16103  Biso   1.000  H
  H228     1.0000 0.82187  0.50563  0.16103  Biso   1.000  H
  H229     1.0000 0.17813  0.68377  0.33897  Biso   1.000  H
  H230     1.0000 0.31623  0.49437  0.33897  Biso   1.000  H
  H231     1.0000 0.50563  0.82187  0.33897  Biso   1.000  H
  H232     1.0000 0.35043  0.51147  0.49437  Biso   1.000  H
  H233     1.0000 0.16103  0.64957  0.49437  Biso   1.000  H
  H234     1.0000 0.48853  0.83897  0.49437  Biso   1.000  H
  H235     1.0000 0.15520  0.98290  0.32770  Biso   1.000  H
  H236     1.0000 0.01710  0.17230  0.32770  Biso   1.000  H
  H237     1.0000 0.82770  0.84480  0.32770  Biso   1.000  H
  H238     1.0000 0.98290  0.15520  0.17230  Biso   1.000  H
  H239     1.0000 0.17230  0.01710  0.17230  Biso   1.000  H
  H240     1.0000 0.84480  0.82770  0.17230  Biso   1.000  H
  H241     1.0000 0.82187  0.31623  0.66103  Biso   1.000  H
  H242     1.0000 0.68377  0.50563  0.66103  Biso   1.000  H
  H243     1.0000 0.49437  0.17813  0.66103  Biso   1.000  H
  H244     1.0000 0.64957  0.48853  0.50563  Biso   1.000  H
  H245     1.0000 0.83897  0.35043  0.50563  Biso   1.000  H
  H246     1.0000 0.51147  0.16103  0.50563  Biso   1.000  H
  H247     1.0000 0.48853  0.64957  0.99437  Biso   1.000  H
  H248     1.0000 0.35043  0.83897  0.99437  Biso   1.000  H
  H249     1.0000 0.16103  0.51147  0.99437  Biso   1.000  H
  H250     1.0000 0.31623  0.82187  0.83897  Biso   1.000  H
  H251     1.0000 0.50563  0.68377  0.83897  Biso   1.000  H
  H252     1.0000 0.17813  0.49437  0.83897  Biso   1.000  H
  H253     1.0000 0.85440  0.92780  0.67520  Biso   1.000  H
  H254     1.0000 0.07220  0.92660  0.67520  Biso   1.000  H
  H255     1.0000 0.07340  0.14560  0.67520  Biso   1.000  H
  H256     1.0000 0.92780  0.85440  0.82480  Biso   1.000  H
  H257     1.0000 0.92660  0.07220  0.82480  Biso   1.000  H
  H258     1.0000 0.14560  0.07340  0.82480  Biso   1.000  H
  H259     1.0000 0.52107  0.26113  0.00853  Biso   1.000  H
  H260     1.0000 0.73887  0.25993  0.00853  Biso   1.000  H
  H261     1.0000 0.74007  0.47893  0.00853  Biso   1.000  H
  H262     1.0000 0.59447  0.18773  0.15813  Biso   1.000  H
  H263     1.0000 0.59327  0.40553  0.15813  Biso   1.000  H
  H264     1.0000 0.81227  0.40673  0.15813  Biso   1.000  H
  H265     1.0000 0.18773  0.59447  0.34187  Biso   1.000  H
  H266     1.0000 0.40553  0.59327  0.34187  Biso   1.000  H
  H267     1.0000 0.40673  0.81227  0.34187  Biso   1.000  H
  H268     1.0000 0.26113  0.52107  0.49147  Biso   1.000  H
  H269     1.0000 0.25993  0.73887  0.49147  Biso   1.000  H
  H270     1.0000 0.47893  0.74007  0.49147  Biso   1.000  H
  H271     1.0000 0.14560  0.07220  0.32480  Biso   1.000  H
  H272     1.0000 0.92780  0.07340  0.32480  Biso   1.000  H
  H273     1.0000 0.92660  0.85440  0.32480  Biso   1.000  H
  H274     1.0000 0.07220  0.14560  0.17520  Biso   1.000  H
  H275     1.0000 0.07340  0.92780  0.17520  Biso   1.000  H
  H276     1.0000 0.85440  0.92660  0.17520  Biso   1.000  H
  H277     1.0000 0.81227  0.40553  0.65813  Biso   1.000  H
  H278     1.0000 0.59447  0.40673  0.65813  Biso   1.000  H
  H279     1.0000 0.59327  0.18773  0.65813  Biso   1.000  H
  H280     1.0000 0.73887  0.47893  0.50853  Biso   1.000  H
  H281     1.0000 0.74007  0.26113  0.50853  Biso   1.000  H
  H282     1.0000 0.52107  0.25993  0.50853  Biso   1.000  H
  H283     1.0000 0.47893  0.73887  0.99147  Biso   1.000  H
  H284     1.0000 0.26113  0.74007  0.99147  Biso   1.000  H
  H285     1.0000 0.25993  0.52107  0.99147  Biso   1.000  H
  H286     1.0000 0.40553  0.81227  0.84187  Biso   1.000  H
  H287     1.0000 0.40673  0.59447  0.84187  Biso   1.000  H
  H288     1.0000 0.18773  0.59327  0.84187  Biso   1.000  H
  H289     1.0000 0.89130  0.00270  0.69960  Biso   1.000  H
  H290     1.0000 0.99730  0.88860  0.69960  Biso   1.000  H
  H291     1.0000 0.11140  0.10870  0.69960  Biso   1.000  H
  H292     1.0000 0.00270  0.89130  0.80040  Biso   1.000  H
  H293     1.0000 0.88860  0.99730  0.80040  Biso   1.000  H
  H294     1.0000 0.10870  0.11140  0.80040  Biso   1.000  H
  H295     1.0000 0.55797  0.33603  0.03293  Biso   1.000  H
  H296     1.0000 0.66397  0.22193  0.03293  Biso   1.000  H
  H297     1.0000 0.77807  0.44203  0.03293  Biso   1.000  H
  H298     1.0000 0.66937  0.22463  0.13373  Biso   1.000  H
  H299     1.0000 0.55527  0.33063  0.13373  Biso   1.000  H
  H300     1.0000 0.77537  0.44473  0.13373  Biso   1.000  H
  H301     1.0000 0.22463  0.66937  0.36627  Biso   1.000  H
  H302     1.0000 0.33063  0.55527  0.36627  Biso   1.000  H
  H303     1.0000 0.44473  0.77537  0.36627  Biso   1.000  H
  H304     1.0000 0.33603  0.55797  0.46707  Biso   1.000  H
  H305     1.0000 0.22193  0.66397  0.46707  Biso   1.000  H
  H306     1.0000 0.44203  0.77807  0.46707  Biso   1.000  H
  H307     1.0000 0.10870  0.99730  0.30040  Biso   1.000  H
  H308     1.0000 0.00270  0.11140  0.30040  Biso   1.000  H
  H309     1.0000 0.88860  0.89130  0.30040  Biso   1.000  H
  H310     1.0000 0.99730  0.10870  0.19960  Biso   1.000  H
  H311     1.0000 0.11140  0.00270  0.19960  Biso   1.000  H
  H312     1.0000 0.89130  0.88860  0.19960  Biso   1.000  H
  H313     1.0000 0.77537  0.33063  0.63373  Biso   1.000  H
  H314     1.0000 0.66937  0.44473  0.63373  Biso   1.000  H
  H315     1.0000 0.55527  0.22463  0.63373  Biso   1.000  H
  H316     1.0000 0.66397  0.44203  0.53293  Biso   1.000  H
  H317     1.0000 0.77807  0.33603  0.53293  Biso   1.000  H
  H318     1.0000 0.55797  0.22193  0.53293  Biso   1.000  H
  H319     1.0000 0.44203  0.66397  0.96707  Biso   1.000  H
  H320     1.0000 0.33603  0.77807  0.96707  Biso   1.000  H
  H321     1.0000 0.22193  0.55797  0.96707  Biso   1.000  H
  H322     1.0000 0.33063  0.77537  0.86627  Biso   1.000  H
  H323     1.0000 0.44473  0.66937  0.86627  Biso   1.000  H
  H324     1.0000 0.22463  0.55527  0.86627  Biso   1.000  H
  C253     1.0000 0.52100  0.62340  0.68984  Biso   1.000  C
  C254     1.0000 0.37660  0.89760  0.68984  Biso   1.000  C
  C255     1.0000 0.10240  0.47900  0.68984  Biso   1.000  C
  C256     1.0000 0.62340  0.52100  0.81016  Biso   1.000  C
  C257     1.0000 0.89760  0.37660  0.81016  Biso   1.000  C
  C258     1.0000 0.47900  0.10240  0.81016  Biso   1.000  C
  C259     1.0000 0.18767  0.95673  0.02317  Biso   1.000  C
  C260     1.0000 0.04327  0.23093  0.02317  Biso   1.000  C
  C261     1.0000 0.76907  0.81233  0.02317  Biso   1.000  C
  C262     1.0000 0.29007  0.85433  0.14349  Biso   1.000  C
  C263     1.0000 0.56427  0.70993  0.14349  Biso   1.000  C
  C264     1.0000 0.14567  0.43573  0.14349  Biso   1.000  C
  C265     1.0000 0.85433  0.29007  0.35651  Biso   1.000  C
  C266     1.0000 0.70993  0.56427  0.35651  Biso   1.000  C
  C267     1.0000 0.43573  0.14567  0.35651  Biso   1.000  C
  C268     1.0000 0.95673  0.18767  0.47683  Biso   1.000  C
  C269     1.0000 0.23093  0.04327  0.47683  Biso   1.000  C
  C270     1.0000 0.81233  0.76907  0.47683  Biso   1.000  C
  C271     1.0000 0.47900  0.37660  0.31016  Biso   1.000  C
  C272     1.0000 0.62340  0.10240  0.31016  Biso   1.000  C
  C273     1.0000 0.89760  0.52100  0.31016  Biso   1.000  C
  C274     1.0000 0.37660  0.47900  0.18984  Biso   1.000  C
  C275     1.0000 0.10240  0.62340  0.18984  Biso   1.000  C
  C276     1.0000 0.52100  0.89760  0.18984  Biso   1.000  C
  C277     1.0000 0.14567  0.70993  0.64349  Biso   1.000  C
  C278     1.0000 0.29007  0.43573  0.64349  Biso   1.000  C
  C279     1.0000 0.56427  0.85433  0.64349  Biso   1.000  C
  C280     1.0000 0.04327  0.81233  0.52317  Biso   1.000  C
  C281     1.0000 0.76907  0.95673  0.52317  Biso   1.000  C
  C282     1.0000 0.18767  0.23093  0.52317  Biso   1.000  C
  C283     1.0000 0.81233  0.04327  0.97683  Biso   1.000  C
  C284     1.0000 0.95673  0.76907  0.97683  Biso   1.000  C
  C285     1.0000 0.23093  0.18767  0.97683  Biso   1.000  C
  C286     1.0000 0.70993  0.14567  0.85651  Biso   1.000  C
  C287     1.0000 0.43573  0.29007  0.85651  Biso   1.000  C
  C288     1.0000 0.85433  0.56427  0.85651  Biso   1.000  C
  H325     1.0000 0.53250  0.64350  0.67090  Biso   1.000  H
  H326     1.0000 0.35650  0.88900  0.67090  Biso   1.000  H
  H327     1.0000 0.11100  0.46750  0.67090  Biso   1.000  H
  H328     1.0000 0.64350  0.53250  0.82910  Biso   1.000  H
  H329     1.0000 0.88900  0.35650  0.82910  Biso   1.000  H
  H330     1.0000 0.46750  0.11100  0.82910  Biso   1.000  H
  H331     1.0000 0.19917  0.97683  0.00423  Biso   1.000  H
  H332     1.0000 0.02317  0.22233  0.00423  Biso   1.000  H
  H333     1.0000 0.77767  0.80083  0.00423  Biso   1.000  H
  H334     1.0000 0.31017  0.86583  0.16243  Biso   1.000  H
  H335     1.0000 0.55567  0.68983  0.16243  Biso   1.000  H
  H336     1.0000 0.13417  0.44433  0.16243  Biso   1.000  H
  H337     1.0000 0.86583  0.31017  0.33757  Biso   1.000  H
  H338     1.0000 0.68983  0.55567  0.33757  Biso   1.000  H
  H339     1.0000 0.44433  0.13417  0.33757  Biso   1.000  H
  H340     1.0000 0.97683  0.19917  0.49577  Biso   1.000  H
  H341     1.0000 0.22233  0.02317  0.49577  Biso   1.000  H
  H342     1.0000 0.80083  0.77767  0.49577  Biso   1.000  H
  H343     1.0000 0.46750  0.35650  0.32910  Biso   1.000  H
  H344     1.0000 0.64350  0.11100  0.32910  Biso   1.000  H
  H345     1.0000 0.88900  0.53250  0.32910  Biso   1.000  H
  H346     1.0000 0.35650  0.46750  0.17090  Biso   1.000  H
  H347     1.0000 0.11100  0.64350  0.17090  Biso   1.000  H
  H348     1.0000 0.53250  0.88900  0.17090  Biso   1.000  H
  H349     1.0000 0.13417  0.68983  0.66243  Biso   1.000  H
  H350     1.0000 0.31017  0.44433  0.66243  Biso   1.000  H
  H351     1.0000 0.55567  0.86583  0.66243  Biso   1.000  H
  H352     1.0000 0.02317  0.80083  0.50423  Biso   1.000  H
  H353     1.0000 0.77767  0.97683  0.50423  Biso   1.000  H
  H354     1.0000 0.19917  0.22233  0.50423  Biso   1.000  H
  H355     1.0000 0.80083  0.02317  0.99577  Biso   1.000  H
  H356     1.0000 0.97683  0.77767  0.99577  Biso   1.000  H
  H357     1.0000 0.22233  0.19917  0.99577  Biso   1.000  H
  H358     1.0000 0.68983  0.13417  0.83757  Biso   1.000  H
  H359     1.0000 0.44433  0.31017  0.83757  Biso   1.000  H
  H360     1.0000 0.86583  0.55567  0.83757  Biso   1.000  H
  N145     1.0000 0.33330  0.66670  0.77820  Biso   1.000  N
  N146     1.0000 0.66670  0.33330  0.72180  Biso   1.000  N
  N147     1.0000 0.99997  0.00003  0.11153  Biso   1.000  N
  N148     1.0000 0.33337  0.66663  0.05513  Biso   1.000  N
  N149     1.0000 0.66663  0.33337  0.44487  Biso   1.000  N
  N150     1.0000 0.00003  0.99997  0.38847  Biso   1.000  N
  N151     1.0000 0.66670  0.33330  0.22180  Biso   1.000  N
  N152     1.0000 0.33330  0.66670  0.27820  Biso   1.000  N
  N153     1.0000 0.33337  0.66663  0.55513  Biso   1.000  N
  N154     1.0000 0.99997  0.00003  0.61153  Biso   1.000  N
  N155     1.0000 0.00003  0.99997  0.88847  Biso   1.000  N
  N156     1.0000 0.66663  0.33337  0.94487  Biso   1.000  N
  O37      1.0000 0.32970  0.73770  0.77954  Biso   1.000  O
  O38      1.0000 0.26230  0.59200  0.77954  Biso   1.000  O
  O39      1.0000 0.40800  0.67030  0.77954  Biso   1.000  O
  O40      1.0000 0.73770  0.32970  0.72046  Biso   1.000  O
  O41      1.0000 0.59200  0.26230  0.72046  Biso   1.000  O
  O42      1.0000 0.67030  0.40800  0.72046  Biso   1.000  O
  O43      1.0000 0.99637  0.07103  0.11287  Biso   1.000  O
  O44      1.0000 0.92897  0.92533  0.11287  Biso   1.000  O
  O45      1.0000 0.07467  0.00363  0.11287  Biso   1.000  O
  O46      1.0000 0.40437  0.66303  0.05379  Biso   1.000  O
  O47      1.0000 0.25867  0.59563  0.05379  Biso   1.000  O
  O48      1.0000 0.33697  0.74133  0.05379  Biso   1.000  O
  O49      1.0000 0.66303  0.40437  0.44621  Biso   1.000  O
  O50      1.0000 0.59563  0.25867  0.44621  Biso   1.000  O
  O51      1.0000 0.74133  0.33697  0.44621  Biso   1.000  O
  O52      1.0000 0.07103  0.99637  0.38713  Biso   1.000  O
  O53      1.0000 0.92533  0.92897  0.38713  Biso   1.000  O
  O54      1.0000 0.00363  0.07467  0.38713  Biso   1.000  O
  O55      1.0000 0.67030  0.26230  0.22046  Biso   1.000  O
  O56      1.0000 0.73770  0.40800  0.22046  Biso   1.000  O
  O57      1.0000 0.59200  0.32970  0.22046  Biso   1.000  O
  O58      1.0000 0.26230  0.67030  0.27954  Biso   1.000  O
  O59      1.0000 0.40800  0.73770  0.27954  Biso   1.000  O
  O60      1.0000 0.32970  0.59200  0.27954  Biso   1.000  O
  O61      1.0000 0.33697  0.59563  0.55379  Biso   1.000  O
  O62      1.0000 0.40437  0.74133  0.55379  Biso   1.000  O
  O63      1.0000 0.25867  0.66303  0.55379  Biso   1.000  O
  O64      1.0000 0.92897  0.00363  0.61287  Biso   1.000  O
  O65      1.0000 0.07467  0.07103  0.61287  Biso   1.000  O
  O66      1.0000 0.99637  0.92533  0.61287  Biso   1.000  O
  O67      1.0000 0.00363  0.92897  0.88713  Biso   1.000  O
  O68      1.0000 0.07103  0.07467  0.88713  Biso   1.000  O
  O69      1.0000 0.92533  0.99637  0.88713  Biso   1.000  O
  O70      1.0000 0.59563  0.33697  0.94621  Biso   1.000  O
  O71      1.0000 0.74133  0.40437  0.94621  Biso   1.000  O
  O72      1.0000 0.66303  0.25867  0.94621  Biso   1.000  O
  N157     1.0000 0.80730  0.80730  0.75000  Biso   1.000  N
  N158     1.0000 0.19270  0.00000  0.75000  Biso   1.000  N
  N159     1.0000 0.00000  0.19270  0.75000  Biso   1.000  N
  N160     1.0000 0.47397  0.14063  0.08333  Biso   1.000  N
  N161     1.0000 0.85937  0.33333  0.08333  Biso   1.000  N
  N162     1.0000 0.66667  0.52603  0.08333  Biso   1.000  N
  N163     1.0000 0.14063  0.47397  0.41667  Biso   1.000  N
  N164     1.0000 0.52603  0.66667  0.41667  Biso   1.000  N
  N165     1.0000 0.33333  0.85937  0.41667  Biso   1.000  N
  N166     1.0000 0.19270  0.19270  0.25000  Biso   1.000  N
  N167     1.0000 0.80730  0.00000  0.25000  Biso   1.000  N
  N168     1.0000 0.00000  0.80730  0.25000  Biso   1.000  N
  N169     1.0000 0.85937  0.52603  0.58333  Biso   1.000  N
  N170     1.0000 0.47397  0.33333  0.58333  Biso   1.000  N
  N171     1.0000 0.66667  0.14063  0.58333  Biso   1.000  N
  N172     1.0000 0.52603  0.85937  0.91667  Biso   1.000  N
  N173     1.0000 0.14063  0.66667  0.91667  Biso   1.000  N
  N174     1.0000 0.33333  0.47397  0.91667  Biso   1.000  N
  O73      1.0000 0.82100  0.87400  0.76320  Biso   1.000  O
  O74      1.0000 0.12600  0.94700  0.76320  Biso   1.000  O
  O75      1.0000 0.05300  0.17900  0.76320  Biso   1.000  O
  O76      1.0000 0.87400  0.82100  0.73680  Biso   1.000  O
  O77      1.0000 0.94700  0.12600  0.73680  Biso   1.000  O
  O78      1.0000 0.17900  0.05300  0.73680  Biso   1.000  O
  O79      1.0000 0.48767  0.20733  0.09653  Biso   1.000  O
  O80      1.0000 0.79267  0.28033  0.09653  Biso   1.000  O
  O81      1.0000 0.71967  0.51233  0.09653  Biso   1.000  O
  O82      1.0000 0.54067  0.15433  0.07013  Biso   1.000  O
  O83      1.0000 0.61367  0.45933  0.07013  Biso   1.000  O
  O84      1.0000 0.84567  0.38633  0.07013  Biso   1.000  O
  O85      1.0000 0.15433  0.54067  0.42987  Biso   1.000  O
  O86      1.0000 0.45933  0.61367  0.42987  Biso   1.000  O
  O87      1.0000 0.38633  0.84567  0.42987  Biso   1.000  O
  O88      1.0000 0.20733  0.48767  0.40347  Biso   1.000  O
  O89      1.0000 0.28033  0.79267  0.40347  Biso   1.000  O
  O90      1.0000 0.51233  0.71967  0.40347  Biso   1.000  O
  O91      1.0000 0.17900  0.12600  0.23680  Biso   1.000  O
  O92      1.0000 0.87400  0.05300  0.23680  Biso   1.000  O
  O93      1.0000 0.94700  0.82100  0.23680  Biso   1.000  O
  O94      1.0000 0.12600  0.17900  0.26320  Biso   1.000  O
  O95      1.0000 0.05300  0.87400  0.26320  Biso   1.000  O
  O96      1.0000 0.82100  0.94700  0.26320  Biso   1.000  O
  O97      1.0000 0.84567  0.45933  0.57013  Biso   1.000  O
  O98      1.0000 0.54067  0.38633  0.57013  Biso   1.000  O
  O99      1.0000 0.61367  0.15433  0.57013  Biso   1.000  O
  O100     1.0000 0.79267  0.51233  0.59653  Biso   1.000  O
  O101     1.0000 0.71967  0.20733  0.59653  Biso   1.000  O
  O102     1.0000 0.48767  0.28033  0.59653  Biso   1.000  O
  O103     1.0000 0.51233  0.79267  0.90347  Biso   1.000  O
  O104     1.0000 0.20733  0.71967  0.90347  Biso   1.000  O
  O105     1.0000 0.28033  0.48767  0.90347  Biso   1.000  O
  O106     1.0000 0.45933  0.84567  0.92987  Biso   1.000  O
  O107     1.0000 0.38633  0.54067  0.92987  Biso   1.000  O
  O108     1.0000 0.15433  0.61367  0.92987  Biso   1.000  O
  O109     1.0000 0.72540  0.72540  0.75000  Biso   1.000  O
  O110     1.0000 0.27460  0.00000  0.75000  Biso   1.000  O
  O111     1.0000 0.00000  0.27460  0.75000  Biso   1.000  O
  O112     1.0000 0.39207  0.05873  0.08333  Biso   1.000  O
  O113     1.0000 0.94127  0.33333  0.08333  Biso   1.000  O
  O114     1.0000 0.66667  0.60793  0.08333  Biso   1.000  O
  O115     1.0000 0.05873  0.39207  0.41667  Biso   1.000  O
  O116     1.0000 0.60793  0.66667  0.41667  Biso   1.000  O
  O117     1.0000 0.33333  0.94127  0.41667  Biso   1.000  O
  O118     1.0000 0.27460  0.27460  0.25000  Biso   1.000  O
  O119     1.0000 0.72540  0.00000  0.25000  Biso   1.000  O
  O120     1.0000 0.00000  0.72540  0.25000  Biso   1.000  O
  O121     1.0000 0.94127  0.60793  0.58333  Biso   1.000  O
  O122     1.0000 0.39207  0.33333  0.58333  Biso   1.000  O
  O123     1.0000 0.66667  0.05873  0.58333  Biso   1.000  O
  O124     1.0000 0.60793  0.94127  0.91667  Biso   1.000  O
  O125     1.0000 0.05873  0.66667  0.91667  Biso   1.000  O
  O126     1.0000 0.33333  0.39207  0.91667  Biso   1.000  O
