data_image0
_cell_length_a       27.422
_cell_length_b       26.56
_cell_length_c       11.1115
_cell_angle_alpha    90
_cell_angle_beta     90
_cell_angle_gamma    90

_symmetry_space_group_name_H-M    "P 1"
_symmetry_int_tables_number       1

loop_
  _symmetry_equiv_pos_as_xyz
  'x, y, z'

loop_
  _atom_site_label
  _atom_site_occupancy
  _atom_site_fract_x
  _atom_site_fract_y
  _atom_site_fract_z
  _atom_site_thermal_displace_type
  _atom_site_B_iso_or_equiv
  _atom_site_type_symbol
  Cu1      1.0000 0.06129  0.49988  0.54984  Biso   1.000  Cu
  Cu2      1.0000 0.43871  0.50012  0.04984  Biso   1.000  Cu
  Cu3      1.0000 0.93871  0.99988  0.45016  Biso   1.000  Cu
  Cu4      1.0000 0.56129  0.00012  0.95016  Biso   1.000  Cu
  Cu5      1.0000 0.93871  0.50012  0.45016  Biso   1.000  Cu
  Cu6      1.0000 0.56129  0.49988  0.95016  Biso   1.000  Cu
  Cu7      1.0000 0.06129  0.00012  0.54984  Biso   1.000  Cu
  Cu8      1.0000 0.43871  0.99988  0.04984  Biso   1.000  Cu
  Cu9      1.0000 0.18796  0.49721  0.86864  Biso   1.000  Cu
  Cu10     1.0000 0.31204  0.50279  0.36864  Biso   1.000  Cu
  Cu11     1.0000 0.81204  0.99721  0.13136  Biso   1.000  Cu
  Cu12     1.0000 0.68796  0.00279  0.63136  Biso   1.000  Cu
  Cu13     1.0000 0.81204  0.50279  0.13136  Biso   1.000  Cu
  Cu14     1.0000 0.68796  0.49721  0.63136  Biso   1.000  Cu
  Cu15     1.0000 0.18796  0.00279  0.86864  Biso   1.000  Cu
  Cu16     1.0000 0.31204  0.99721  0.36864  Biso   1.000  Cu
  S1       1.0000 0.98950  0.44848  0.74201  Biso   1.000  S
  S2       1.0000 0.51050  0.55152  0.24201  Biso   1.000  S
  S3       1.0000 0.01050  0.94848  0.25799  Biso   1.000  S
  S4       1.0000 0.48950  0.05152  0.75799  Biso   1.000  S
  S5       1.0000 0.01050  0.55152  0.25799  Biso   1.000  S
  S6       1.0000 0.48950  0.44848  0.75799  Biso   1.000  S
  S7       1.0000 0.98950  0.05152  0.74201  Biso   1.000  S
  S8       1.0000 0.51050  0.94848  0.24201  Biso   1.000  S
  S9       1.0000 0.24276  0.44351  0.64096  Biso   1.000  S
  S10      1.0000 0.25724  0.55649  0.14096  Biso   1.000  S
  S11      1.0000 0.75724  0.94351  0.35904  Biso   1.000  S
  S12      1.0000 0.74276  0.05649  0.85904  Biso   1.000  S
  S13      1.0000 0.75724  0.55649  0.35904  Biso   1.000  S
  S14      1.0000 0.74276  0.44351  0.85904  Biso   1.000  S
  S15      1.0000 0.24276  0.05649  0.64096  Biso   1.000  S
  S16      1.0000 0.25724  0.94351  0.14096  Biso   1.000  S
  C1       1.0000 0.07202  0.43055  0.34180  Biso   1.000  C
  C2       1.0000 0.42798  0.56945  0.84180  Biso   1.000  C
  C3       1.0000 0.92798  0.93055  0.65820  Biso   1.000  C
  C4       1.0000 0.57202  0.06945  0.15820  Biso   1.000  C
  C5       1.0000 0.92798  0.56945  0.65820  Biso   1.000  C
  C6       1.0000 0.57202  0.43055  0.15820  Biso   1.000  C
  C7       1.0000 0.07202  0.06945  0.34180  Biso   1.000  C
  C8       1.0000 0.42798  0.93055  0.84180  Biso   1.000  C
  H1       1.0000 0.07210  0.46050  0.29850  Biso   1.000  H
  H2       1.0000 0.42790  0.53950  0.79850  Biso   1.000  H
  H3       1.0000 0.92790  0.96050  0.70150  Biso   1.000  H
  H4       1.0000 0.57210  0.03950  0.20150  Biso   1.000  H
  H5       1.0000 0.92790  0.53950  0.70150  Biso   1.000  H
  H6       1.0000 0.57210  0.46050  0.20150  Biso   1.000  H
  H7       1.0000 0.07210  0.03950  0.29850  Biso   1.000  H
  H8       1.0000 0.42790  0.96050  0.79850  Biso   1.000  H
  C9       1.0000 0.07384  0.38612  0.27920  Biso   1.000  C
  C10      1.0000 0.42616  0.61388  0.77920  Biso   1.000  C
  C11      1.0000 0.92616  0.88612  0.72080  Biso   1.000  C
  C12      1.0000 0.57384  0.11388  0.22080  Biso   1.000  C
  C13      1.0000 0.92616  0.61388  0.72080  Biso   1.000  C
  C14      1.0000 0.57384  0.38612  0.22080  Biso   1.000  C
  C15      1.0000 0.07384  0.11388  0.27920  Biso   1.000  C
  C16      1.0000 0.42616  0.88612  0.77920  Biso   1.000  C
  H9       1.0000 0.07490  0.38640  0.19560  Biso   1.000  H
  H10      1.0000 0.42510  0.61360  0.69560  Biso   1.000  H
  H11      1.0000 0.92510  0.88640  0.80440  Biso   1.000  H
  H12      1.0000 0.57490  0.11360  0.30440  Biso   1.000  H
  H13      1.0000 0.92510  0.61360  0.80440  Biso   1.000  H
  H14      1.0000 0.57490  0.38640  0.30440  Biso   1.000  H
  H15      1.0000 0.07490  0.11360  0.19560  Biso   1.000  H
  H16      1.0000 0.42510  0.88640  0.69560  Biso   1.000  H
  C17      1.0000 0.07411  0.34082  0.34130  Biso   1.000  C
  C18      1.0000 0.42589  0.65918  0.84130  Biso   1.000  C
  C19      1.0000 0.92589  0.84082  0.65870  Biso   1.000  C
  C20      1.0000 0.57411  0.15918  0.15870  Biso   1.000  C
  C21      1.0000 0.92589  0.65918  0.65870  Biso   1.000  C
  C22      1.0000 0.57411  0.34082  0.15870  Biso   1.000  C
  C23      1.0000 0.07411  0.15918  0.34130  Biso   1.000  C
  C24      1.0000 0.42589  0.84082  0.84130  Biso   1.000  C
  C25      1.0000 0.07328  0.34276  0.46630  Biso   1.000  C
  C26      1.0000 0.42672  0.65724  0.96630  Biso   1.000  C
  C27      1.0000 0.92672  0.84276  0.53370  Biso   1.000  C
  C28      1.0000 0.57328  0.15724  0.03370  Biso   1.000  C
  C29      1.0000 0.92672  0.65724  0.53370  Biso   1.000  C
  C30      1.0000 0.57328  0.34276  0.03370  Biso   1.000  C
  C31      1.0000 0.07328  0.15724  0.46630  Biso   1.000  C
  C32      1.0000 0.42672  0.84276  0.96630  Biso   1.000  C
  H17      1.0000 0.07430  0.31330  0.51160  Biso   1.000  H
  H18      1.0000 0.42570  0.68670  0.01160  Biso   1.000  H
  H19      1.0000 0.92570  0.81330  0.48840  Biso   1.000  H
  H20      1.0000 0.57430  0.18670  0.98840  Biso   1.000  H
  H21      1.0000 0.92570  0.68670  0.48840  Biso   1.000  H
  H22      1.0000 0.57430  0.31330  0.98840  Biso   1.000  H
  H23      1.0000 0.07430  0.18670  0.51160  Biso   1.000  H
  H24      1.0000 0.42570  0.81330  0.01160  Biso   1.000  H
  C33      1.0000 0.07101  0.38856  0.52150  Biso   1.000  C
  C34      1.0000 0.42899  0.61144  0.02150  Biso   1.000  C
  C35      1.0000 0.92899  0.88856  0.47850  Biso   1.000  C
  C36      1.0000 0.57101  0.11144  0.97850  Biso   1.000  C
  C37      1.0000 0.92899  0.61144  0.47850  Biso   1.000  C
  C38      1.0000 0.57101  0.38856  0.97850  Biso   1.000  C
  C39      1.0000 0.07101  0.11144  0.52150  Biso   1.000  C
  C40      1.0000 0.42899  0.88856  0.02150  Biso   1.000  C
  H25      1.0000 0.07000  0.38930  0.60520  Biso   1.000  H
  H26      1.0000 0.43000  0.61070  0.10520  Biso   1.000  H
  H27      1.0000 0.93000  0.88930  0.39480  Biso   1.000  H
  H28      1.0000 0.57000  0.11070  0.89480  Biso   1.000  H
  H29      1.0000 0.93000  0.61070  0.39480  Biso   1.000  H
  H30      1.0000 0.57000  0.38930  0.89480  Biso   1.000  H
  H31      1.0000 0.07000  0.11070  0.60520  Biso   1.000  H
  H32      1.0000 0.43000  0.88930  0.10520  Biso   1.000  H
  C41      1.0000 0.07425  0.29253  0.27650  Biso   1.000  C
  C42      1.0000 0.42575  0.70747  0.77650  Biso   1.000  C
  C43      1.0000 0.92575  0.79253  0.72350  Biso   1.000  C
  C44      1.0000 0.57425  0.20747  0.22350  Biso   1.000  C
  C45      1.0000 0.92575  0.70747  0.72350  Biso   1.000  C
  C46      1.0000 0.57425  0.29253  0.22350  Biso   1.000  C
  C47      1.0000 0.07425  0.20747  0.27650  Biso   1.000  C
  C48      1.0000 0.42575  0.79253  0.77650  Biso   1.000  C
  C49      1.0000 0.07350  0.25000  0.09980  Biso   1.000  C
  C50      1.0000 0.42650  0.75000  0.59980  Biso   1.000  C
  C51      1.0000 0.92650  0.75000  0.90020  Biso   1.000  C
  C52      1.0000 0.57350  0.25000  0.40020  Biso   1.000  C
  C53      1.0000 0.07460  0.25000  0.96710  Biso   1.000  C
  C54      1.0000 0.42540  0.75000  0.46710  Biso   1.000  C
  C55      1.0000 0.92540  0.75000  0.03290  Biso   1.000  C
  C56      1.0000 0.57460  0.25000  0.53290  Biso   1.000  C
  C57      1.0000 0.07470  0.29445  0.90370  Biso   1.000  C
  C58      1.0000 0.42530  0.70555  0.40370  Biso   1.000  C
  C59      1.0000 0.92530  0.79445  0.09630  Biso   1.000  C
  C60      1.0000 0.57470  0.20555  0.59630  Biso   1.000  C
  C61      1.0000 0.92530  0.70555  0.09630  Biso   1.000  C
  C62      1.0000 0.57470  0.29445  0.59630  Biso   1.000  C
  C63      1.0000 0.07470  0.20555  0.90370  Biso   1.000  C
  C64      1.0000 0.42530  0.79445  0.40370  Biso   1.000  C
  H33      1.0000 0.07420  0.32530  0.94340  Biso   1.000  H
  H34      1.0000 0.42580  0.67470  0.44340  Biso   1.000  H
  H35      1.0000 0.92580  0.82530  0.05660  Biso   1.000  H
  H36      1.0000 0.57420  0.17470  0.55660  Biso   1.000  H
  H37      1.0000 0.92580  0.67470  0.05660  Biso   1.000  H
  H38      1.0000 0.57420  0.32530  0.55660  Biso   1.000  H
  H39      1.0000 0.07420  0.17470  0.94340  Biso   1.000  H
  H40      1.0000 0.42580  0.82530  0.44340  Biso   1.000  H
  C65      1.0000 0.07550  0.29216  0.77930  Biso   1.000  C
  C66      1.0000 0.42450  0.70784  0.27930  Biso   1.000  C
  C67      1.0000 0.92450  0.79216  0.22070  Biso   1.000  C
  C68      1.0000 0.57550  0.20784  0.72070  Biso   1.000  C
  C69      1.0000 0.92450  0.70784  0.22070  Biso   1.000  C
  C70      1.0000 0.57550  0.29216  0.72070  Biso   1.000  C
  C71      1.0000 0.07550  0.20784  0.77930  Biso   1.000  C
  C72      1.0000 0.42450  0.79216  0.27930  Biso   1.000  C
  H41      1.0000 0.07560  0.32240  0.73720  Biso   1.000  H
  H42      1.0000 0.42440  0.67760  0.23720  Biso   1.000  H
  H43      1.0000 0.92440  0.82240  0.26280  Biso   1.000  H
  H44      1.0000 0.57560  0.17760  0.76280  Biso   1.000  H
  H45      1.0000 0.92440  0.67760  0.26280  Biso   1.000  H
  H46      1.0000 0.57560  0.32240  0.76280  Biso   1.000  H
  H47      1.0000 0.07560  0.17760  0.73720  Biso   1.000  H
  H48      1.0000 0.42440  0.82240  0.23720  Biso   1.000  H
  N1       1.0000 0.07620  0.25000  0.71620  Biso   1.000  N
  N2       1.0000 0.42380  0.75000  0.21620  Biso   1.000  N
  N3       1.0000 0.92380  0.75000  0.28380  Biso   1.000  N
  N4       1.0000 0.57620  0.25000  0.78380  Biso   1.000  N
  C73      1.0000 0.05023  0.61090  0.57900  Biso   1.000  C
  C74      1.0000 0.44977  0.38910  0.07900  Biso   1.000  C
  C75      1.0000 0.94977  0.11090  0.42100  Biso   1.000  C
  C76      1.0000 0.55023  0.88910  0.92100  Biso   1.000  C
  C77      1.0000 0.94977  0.38910  0.42100  Biso   1.000  C
  C78      1.0000 0.55023  0.61090  0.92100  Biso   1.000  C
  C79      1.0000 0.05023  0.88910  0.57900  Biso   1.000  C
  C80      1.0000 0.44977  0.11090  0.07900  Biso   1.000  C
  H49      1.0000 0.04720  0.61010  0.49570  Biso   1.000  H
  H50      1.0000 0.45280  0.38990  0.99570  Biso   1.000  H
  H51      1.0000 0.95280  0.11010  0.50430  Biso   1.000  H
  H52      1.0000 0.54720  0.88990  0.00430  Biso   1.000  H
  H53      1.0000 0.95280  0.38990  0.50430  Biso   1.000  H
  H54      1.0000 0.54720  0.61010  0.00430  Biso   1.000  H
  H55      1.0000 0.04720  0.88990  0.49570  Biso   1.000  H
  H56      1.0000 0.45280  0.11010  0.99570  Biso   1.000  H
  C81      1.0000 0.05001  0.65718  0.63570  Biso   1.000  C
  C82      1.0000 0.44999  0.34282  0.13570  Biso   1.000  C
  C83      1.0000 0.94999  0.15718  0.36430  Biso   1.000  C
  C84      1.0000 0.55001  0.84282  0.86430  Biso   1.000  C
  C85      1.0000 0.94999  0.34282  0.36430  Biso   1.000  C
  C86      1.0000 0.55001  0.65718  0.86430  Biso   1.000  C
  C87      1.0000 0.05001  0.84282  0.63570  Biso   1.000  C
  C88      1.0000 0.44999  0.15718  0.13570  Biso   1.000  C
  H57      1.0000 0.04740  0.68670  0.59110  Biso   1.000  H
  H58      1.0000 0.45260  0.31330  0.09110  Biso   1.000  H
  H59      1.0000 0.95260  0.18670  0.40890  Biso   1.000  H
  H60      1.0000 0.54740  0.81330  0.90890  Biso   1.000  H
  H61      1.0000 0.95260  0.31330  0.40890  Biso   1.000  H
  H62      1.0000 0.54740  0.68670  0.90890  Biso   1.000  H
  H63      1.0000 0.04740  0.81330  0.59110  Biso   1.000  H
  H64      1.0000 0.45260  0.18670  0.09110  Biso   1.000  H
  C89      1.0000 0.05374  0.65914  0.76040  Biso   1.000  C
  C90      1.0000 0.44626  0.34086  0.26040  Biso   1.000  C
  C91      1.0000 0.94626  0.15914  0.23960  Biso   1.000  C
  C92      1.0000 0.55374  0.84086  0.73960  Biso   1.000  C
  C93      1.0000 0.94626  0.34086  0.23960  Biso   1.000  C
  C94      1.0000 0.55374  0.65914  0.73960  Biso   1.000  C
  C95      1.0000 0.05374  0.84086  0.76040  Biso   1.000  C
  C96      1.0000 0.44626  0.15914  0.26040  Biso   1.000  C
  C97      1.0000 0.05780  0.61368  0.82100  Biso   1.000  C
  C98      1.0000 0.44220  0.38632  0.32100  Biso   1.000  C
  C99      1.0000 0.94220  0.11368  0.17900  Biso   1.000  C
  C100     1.0000 0.55780  0.88632  0.67900  Biso   1.000  C
  C101     1.0000 0.94220  0.38632  0.17900  Biso   1.000  C
  C102     1.0000 0.55780  0.61368  0.67900  Biso   1.000  C
  C103     1.0000 0.05780  0.88632  0.82100  Biso   1.000  C
  C104     1.0000 0.44220  0.11368  0.32100  Biso   1.000  C
  H65      1.0000 0.06010  0.61330  0.90450  Biso   1.000  H
  H66      1.0000 0.43990  0.38670  0.40450  Biso   1.000  H
  H67      1.0000 0.93990  0.11330  0.09550  Biso   1.000  H
  H68      1.0000 0.56010  0.88670  0.59550  Biso   1.000  H
  H69      1.0000 0.93990  0.38670  0.09550  Biso   1.000  H
  H70      1.0000 0.56010  0.61330  0.59550  Biso   1.000  H
  H71      1.0000 0.06010  0.88670  0.90450  Biso   1.000  H
  H72      1.0000 0.43990  0.11330  0.40450  Biso   1.000  H
  C105     1.0000 0.05843  0.56895  0.75790  Biso   1.000  C
  C106     1.0000 0.44157  0.43105  0.25790  Biso   1.000  C
  C107     1.0000 0.94157  0.06895  0.24210  Biso   1.000  C
  C108     1.0000 0.55843  0.93105  0.74210  Biso   1.000  C
  C109     1.0000 0.94157  0.43105  0.24210  Biso   1.000  C
  C110     1.0000 0.55843  0.56895  0.74210  Biso   1.000  C
  C111     1.0000 0.05843  0.93105  0.75790  Biso   1.000  C
  C112     1.0000 0.44157  0.06895  0.25790  Biso   1.000  C
  H73      1.0000 0.06160  0.53890  0.80030  Biso   1.000  H
  H74      1.0000 0.43840  0.46110  0.30030  Biso   1.000  H
  H75      1.0000 0.93840  0.03890  0.19970  Biso   1.000  H
  H76      1.0000 0.56160  0.96110  0.69970  Biso   1.000  H
  H77      1.0000 0.93840  0.46110  0.19970  Biso   1.000  H
  H78      1.0000 0.56160  0.53890  0.69970  Biso   1.000  H
  H79      1.0000 0.06160  0.96110  0.80030  Biso   1.000  H
  H80      1.0000 0.43840  0.03890  0.30030  Biso   1.000  H
  C113     1.0000 0.05352  0.70793  0.82620  Biso   1.000  C
  C114     1.0000 0.44648  0.29207  0.32620  Biso   1.000  C
  C115     1.0000 0.94648  0.20793  0.17380  Biso   1.000  C
  C116     1.0000 0.55352  0.79207  0.67380  Biso   1.000  C
  C117     1.0000 0.94648  0.29207  0.17380  Biso   1.000  C
  C118     1.0000 0.55352  0.70793  0.67380  Biso   1.000  C
  C119     1.0000 0.05352  0.79207  0.82620  Biso   1.000  C
  C120     1.0000 0.44648  0.20793  0.32620  Biso   1.000  C
  C121     1.0000 0.05290  0.75000  0.00190  Biso   1.000  C
  C122     1.0000 0.44710  0.25000  0.50190  Biso   1.000  C
  C123     1.0000 0.94710  0.25000  0.99810  Biso   1.000  C
  C124     1.0000 0.55290  0.75000  0.49810  Biso   1.000  C
  C125     1.0000 0.05080  0.75000  0.13600  Biso   1.000  C
  C126     1.0000 0.44920  0.25000  0.63600  Biso   1.000  C
  C127     1.0000 0.94920  0.25000  0.86400  Biso   1.000  C
  C128     1.0000 0.55080  0.75000  0.36400  Biso   1.000  C
  C129     1.0000 0.05030  0.70590  0.20000  Biso   1.000  C
  C130     1.0000 0.44970  0.29410  0.70000  Biso   1.000  C
  C131     1.0000 0.94970  0.20590  0.80000  Biso   1.000  C
  C132     1.0000 0.55030  0.79410  0.30000  Biso   1.000  C
  C133     1.0000 0.94970  0.29410  0.80000  Biso   1.000  C
  C134     1.0000 0.55030  0.70590  0.30000  Biso   1.000  C
  C135     1.0000 0.05030  0.79410  0.20000  Biso   1.000  C
  C136     1.0000 0.44970  0.20590  0.70000  Biso   1.000  C
  H81      1.0000 0.05080  0.67500  0.16070  Biso   1.000  H
  H82      1.0000 0.44920  0.32500  0.66070  Biso   1.000  H
  H83      1.0000 0.94920  0.17500  0.83930  Biso   1.000  H
  H84      1.0000 0.55080  0.82500  0.33930  Biso   1.000  H
  H85      1.0000 0.94920  0.32500  0.83930  Biso   1.000  H
  H86      1.0000 0.55080  0.67500  0.33930  Biso   1.000  H
  H87      1.0000 0.05080  0.82500  0.16070  Biso   1.000  H
  H88      1.0000 0.44920  0.17500  0.66070  Biso   1.000  H
  C137     1.0000 0.04910  0.70832  0.32390  Biso   1.000  C
  C138     1.0000 0.45090  0.29168  0.82390  Biso   1.000  C
  C139     1.0000 0.95090  0.20832  0.67610  Biso   1.000  C
  C140     1.0000 0.54910  0.79168  0.17610  Biso   1.000  C
  C141     1.0000 0.95090  0.29168  0.67610  Biso   1.000  C
  C142     1.0000 0.54910  0.70832  0.17610  Biso   1.000  C
  C143     1.0000 0.04910  0.79168  0.32390  Biso   1.000  C
  C144     1.0000 0.45090  0.20832  0.82390  Biso   1.000  C
  H89      1.0000 0.04850  0.67800  0.36570  Biso   1.000  H
  H90      1.0000 0.45150  0.32200  0.86570  Biso   1.000  H
  H91      1.0000 0.95150  0.17800  0.63430  Biso   1.000  H
  H92      1.0000 0.54850  0.82200  0.13430  Biso   1.000  H
  H93      1.0000 0.95150  0.32200  0.63430  Biso   1.000  H
  H94      1.0000 0.54850  0.67800  0.13430  Biso   1.000  H
  H95      1.0000 0.04850  0.82200  0.36570  Biso   1.000  H
  H96      1.0000 0.45150  0.17800  0.86570  Biso   1.000  H
  C145     1.0000 0.19201  0.60893  0.85410  Biso   1.000  C
  C146     1.0000 0.30799  0.39107  0.35410  Biso   1.000  C
  C147     1.0000 0.80799  0.10893  0.14590  Biso   1.000  C
  C148     1.0000 0.69201  0.89107  0.64590  Biso   1.000  C
  C149     1.0000 0.80799  0.39107  0.14590  Biso   1.000  C
  C150     1.0000 0.69201  0.60893  0.64590  Biso   1.000  C
  C151     1.0000 0.19201  0.89107  0.85410  Biso   1.000  C
  C152     1.0000 0.30799  0.10893  0.35410  Biso   1.000  C
  H97      1.0000 0.19620  0.60720  0.93700  Biso   1.000  H
  H98      1.0000 0.30380  0.39280  0.43700  Biso   1.000  H
  H99      1.0000 0.80380  0.10720  0.06300  Biso   1.000  H
  H100     1.0000 0.69620  0.89280  0.56300  Biso   1.000  H
  H101     1.0000 0.80380  0.39280  0.06300  Biso   1.000  H
  H102     1.0000 0.69620  0.60720  0.56300  Biso   1.000  H
  H103     1.0000 0.19620  0.89280  0.93700  Biso   1.000  H
  H104     1.0000 0.30380  0.10720  0.43700  Biso   1.000  H
  C153     1.0000 0.18927  0.65581  0.80030  Biso   1.000  C
  C154     1.0000 0.31073  0.34419  0.30030  Biso   1.000  C
  C155     1.0000 0.81073  0.15581  0.19970  Biso   1.000  C
  C156     1.0000 0.68927  0.84419  0.69970  Biso   1.000  C
  C157     1.0000 0.81073  0.34419  0.19970  Biso   1.000  C
  C158     1.0000 0.68927  0.65581  0.69970  Biso   1.000  C
  C159     1.0000 0.18927  0.84419  0.80030  Biso   1.000  C
  C160     1.0000 0.31073  0.15581  0.30030  Biso   1.000  C
  H105     1.0000 0.19120  0.68500  0.84640  Biso   1.000  H
  H106     1.0000 0.30880  0.31500  0.34640  Biso   1.000  H
  H107     1.0000 0.80880  0.18500  0.15360  Biso   1.000  H
  H108     1.0000 0.69120  0.81500  0.65360  Biso   1.000  H
  H109     1.0000 0.80880  0.31500  0.15360  Biso   1.000  H
  H110     1.0000 0.69120  0.68500  0.65360  Biso   1.000  H
  H111     1.0000 0.19120  0.81500  0.84640  Biso   1.000  H
  H112     1.0000 0.30880  0.18500  0.34640  Biso   1.000  H
  C161     1.0000 0.18360  0.65861  0.67650  Biso   1.000  C
  C162     1.0000 0.31640  0.34139  0.17650  Biso   1.000  C
  C163     1.0000 0.81640  0.15861  0.32350  Biso   1.000  C
  C164     1.0000 0.68360  0.84139  0.82350  Biso   1.000  C
  C165     1.0000 0.81640  0.34139  0.32350  Biso   1.000  C
  C166     1.0000 0.68360  0.65861  0.82350  Biso   1.000  C
  C167     1.0000 0.18360  0.84139  0.67650  Biso   1.000  C
  C168     1.0000 0.31640  0.15861  0.17650  Biso   1.000  C
  C169     1.0000 0.18057  0.61427  0.61240  Biso   1.000  C
  C170     1.0000 0.31943  0.38573  0.11240  Biso   1.000  C
  C171     1.0000 0.81943  0.11427  0.38760  Biso   1.000  C
  C172     1.0000 0.68057  0.88573  0.88760  Biso   1.000  C
  C173     1.0000 0.81943  0.38573  0.38760  Biso   1.000  C
  C174     1.0000 0.68057  0.61427  0.88760  Biso   1.000  C
  C175     1.0000 0.18057  0.88573  0.61240  Biso   1.000  C
  C176     1.0000 0.31943  0.11427  0.11240  Biso   1.000  C
  H113     1.0000 0.17650  0.61490  0.52930  Biso   1.000  H
  H114     1.0000 0.32350  0.38510  0.02930  Biso   1.000  H
  H115     1.0000 0.82350  0.11490  0.47070  Biso   1.000  H
  H116     1.0000 0.67650  0.88510  0.97070  Biso   1.000  H
  H117     1.0000 0.82350  0.38510  0.47070  Biso   1.000  H
  H118     1.0000 0.67650  0.61490  0.97070  Biso   1.000  H
  H119     1.0000 0.17650  0.88510  0.52930  Biso   1.000  H
  H120     1.0000 0.32350  0.11490  0.02930  Biso   1.000  H
  C177     1.0000 0.18364  0.56931  0.67220  Biso   1.000  C
  C178     1.0000 0.31636  0.43069  0.17220  Biso   1.000  C
  C179     1.0000 0.81636  0.06931  0.32780  Biso   1.000  C
  C180     1.0000 0.68364  0.93069  0.82780  Biso   1.000  C
  C181     1.0000 0.81636  0.43069  0.32780  Biso   1.000  C
  C182     1.0000 0.68364  0.56931  0.82780  Biso   1.000  C
  C183     1.0000 0.18364  0.93069  0.67220  Biso   1.000  C
  C184     1.0000 0.31636  0.06931  0.17220  Biso   1.000  C
  H121     1.0000 0.18200  0.53970  0.62760  Biso   1.000  H
  H122     1.0000 0.31800  0.46030  0.12760  Biso   1.000  H
  H123     1.0000 0.81800  0.03970  0.37240  Biso   1.000  H
  H124     1.0000 0.68200  0.96030  0.87240  Biso   1.000  H
  H125     1.0000 0.81800  0.46030  0.37240  Biso   1.000  H
  H126     1.0000 0.68200  0.53970  0.87240  Biso   1.000  H
  H127     1.0000 0.18200  0.96030  0.62760  Biso   1.000  H
  H128     1.0000 0.31800  0.03970  0.12760  Biso   1.000  H
  C185     1.0000 0.18098  0.70784  0.61240  Biso   1.000  C
  C186     1.0000 0.31902  0.29216  0.11240  Biso   1.000  C
  C187     1.0000 0.81902  0.20784  0.38760  Biso   1.000  C
  C188     1.0000 0.68098  0.79216  0.88760  Biso   1.000  C
  C189     1.0000 0.81902  0.29216  0.38760  Biso   1.000  C
  C190     1.0000 0.68098  0.70784  0.88760  Biso   1.000  C
  C191     1.0000 0.18098  0.79216  0.61240  Biso   1.000  C
  C192     1.0000 0.31902  0.20784  0.11240  Biso   1.000  C
  C193     1.0000 0.17760  0.75000  0.43620  Biso   1.000  C
  C194     1.0000 0.32240  0.25000  0.93620  Biso   1.000  C
  C195     1.0000 0.82240  0.25000  0.56380  Biso   1.000  C
  C196     1.0000 0.67760  0.75000  0.06380  Biso   1.000  C
  C197     1.0000 0.17680  0.75000  0.30240  Biso   1.000  C
  C198     1.0000 0.32320  0.25000  0.80240  Biso   1.000  C
  C199     1.0000 0.82320  0.25000  0.69760  Biso   1.000  C
  C200     1.0000 0.67680  0.75000  0.19760  Biso   1.000  C
  C201     1.0000 0.17590  0.70601  0.23840  Biso   1.000  C
  C202     1.0000 0.32410  0.29399  0.73840  Biso   1.000  C
  C203     1.0000 0.82410  0.20601  0.76160  Biso   1.000  C
  C204     1.0000 0.67590  0.79399  0.26160  Biso   1.000  C
  C205     1.0000 0.82410  0.29399  0.76160  Biso   1.000  C
  C206     1.0000 0.67590  0.70601  0.26160  Biso   1.000  C
  C207     1.0000 0.17590  0.79399  0.23840  Biso   1.000  C
  C208     1.0000 0.32410  0.20601  0.73840  Biso   1.000  C
  H129     1.0000 0.17600  0.67520  0.27800  Biso   1.000  H
  H130     1.0000 0.32400  0.32480  0.77800  Biso   1.000  H
  H131     1.0000 0.82400  0.17520  0.72200  Biso   1.000  H
  H132     1.0000 0.67600  0.82480  0.22200  Biso   1.000  H
  H133     1.0000 0.82400  0.32480  0.72200  Biso   1.000  H
  H134     1.0000 0.67600  0.67520  0.22200  Biso   1.000  H
  H135     1.0000 0.17600  0.82480  0.27800  Biso   1.000  H
  H136     1.0000 0.32400  0.17520  0.77800  Biso   1.000  H
  C209     1.0000 0.17480  0.70798  0.11410  Biso   1.000  C
  C210     1.0000 0.32520  0.29202  0.61410  Biso   1.000  C
  C211     1.0000 0.82520  0.20798  0.88590  Biso   1.000  C
  C212     1.0000 0.67480  0.79202  0.38590  Biso   1.000  C
  C213     1.0000 0.82520  0.29202  0.88590  Biso   1.000  C
  C214     1.0000 0.67480  0.70798  0.38590  Biso   1.000  C
  C215     1.0000 0.17480  0.79202  0.11410  Biso   1.000  C
  C216     1.0000 0.32520  0.20798  0.61410  Biso   1.000  C
  H137     1.0000 0.17450  0.67770  0.07220  Biso   1.000  H
  H138     1.0000 0.32550  0.32230  0.57220  Biso   1.000  H
  H139     1.0000 0.82550  0.17770  0.92780  Biso   1.000  H
  H140     1.0000 0.67450  0.82230  0.42780  Biso   1.000  H
  H141     1.0000 0.82550  0.32230  0.92780  Biso   1.000  H
  H142     1.0000 0.67450  0.67770  0.42780  Biso   1.000  H
  H143     1.0000 0.17450  0.82230  0.07220  Biso   1.000  H
  H144     1.0000 0.32550  0.17770  0.57220  Biso   1.000  H
  C217     1.0000 0.18637  0.42992  0.07580  Biso   1.000  C
  C218     1.0000 0.31363  0.57008  0.57580  Biso   1.000  C
  C219     1.0000 0.81363  0.92992  0.92420  Biso   1.000  C
  C220     1.0000 0.68637  0.07008  0.42420  Biso   1.000  C
  C221     1.0000 0.81363  0.57008  0.92420  Biso   1.000  C
  C222     1.0000 0.68637  0.42992  0.42420  Biso   1.000  C
  C223     1.0000 0.18637  0.07008  0.07580  Biso   1.000  C
  C224     1.0000 0.31363  0.92992  0.57580  Biso   1.000  C
  H145     1.0000 0.18270  0.46020  0.11670  Biso   1.000  H
  H146     1.0000 0.31730  0.53980  0.61670  Biso   1.000  H
  H147     1.0000 0.81730  0.96020  0.88330  Biso   1.000  H
  H148     1.0000 0.68270  0.03980  0.38330  Biso   1.000  H
  H149     1.0000 0.81730  0.53980  0.88330  Biso   1.000  H
  H150     1.0000 0.68270  0.46020  0.38330  Biso   1.000  H
  H151     1.0000 0.18270  0.03980  0.11670  Biso   1.000  H
  H152     1.0000 0.31730  0.96020  0.61670  Biso   1.000  H
  C225     1.0000 0.18848  0.38590  0.14080  Biso   1.000  C
  C226     1.0000 0.31152  0.61410  0.64080  Biso   1.000  C
  C227     1.0000 0.81152  0.88590  0.85920  Biso   1.000  C
  C228     1.0000 0.68848  0.11410  0.35920  Biso   1.000  C
  C229     1.0000 0.81152  0.61410  0.85920  Biso   1.000  C
  C230     1.0000 0.68848  0.38590  0.35920  Biso   1.000  C
  C231     1.0000 0.18848  0.11410  0.14080  Biso   1.000  C
  C232     1.0000 0.31152  0.88590  0.64080  Biso   1.000  C
  H153     1.0000 0.18660  0.38680  0.22430  Biso   1.000  H
  H154     1.0000 0.31340  0.61320  0.72430  Biso   1.000  H
  H155     1.0000 0.81340  0.88680  0.77570  Biso   1.000  H
  H156     1.0000 0.68660  0.11320  0.27570  Biso   1.000  H
  H157     1.0000 0.81340  0.61320  0.77570  Biso   1.000  H
  H158     1.0000 0.68660  0.38680  0.27570  Biso   1.000  H
  H159     1.0000 0.18660  0.11320  0.22430  Biso   1.000  H
  H160     1.0000 0.31340  0.88680  0.72430  Biso   1.000  H
  C233     1.0000 0.19335  0.34047  0.08190  Biso   1.000  C
  C234     1.0000 0.30665  0.65953  0.58190  Biso   1.000  C
  C235     1.0000 0.80665  0.84047  0.91810  Biso   1.000  C
  C236     1.0000 0.69335  0.15953  0.41810  Biso   1.000  C
  C237     1.0000 0.80665  0.65953  0.91810  Biso   1.000  C
  C238     1.0000 0.69335  0.34047  0.41810  Biso   1.000  C
  C239     1.0000 0.19335  0.15953  0.08190  Biso   1.000  C
  C240     1.0000 0.30665  0.84047  0.58190  Biso   1.000  C
  C241     1.0000 0.19574  0.34100  0.95710  Biso   1.000  C
  C242     1.0000 0.30426  0.65900  0.45710  Biso   1.000  C
  C243     1.0000 0.80426  0.84100  0.04290  Biso   1.000  C
  C244     1.0000 0.69574  0.15900  0.54290  Biso   1.000  C
  C245     1.0000 0.80426  0.65900  0.04290  Biso   1.000  C
  C246     1.0000 0.69574  0.34100  0.54290  Biso   1.000  C
  C247     1.0000 0.19574  0.15900  0.95710  Biso   1.000  C
  C248     1.0000 0.30426  0.84100  0.45710  Biso   1.000  C
  H161     1.0000 0.19840  0.31110  0.91400  Biso   1.000  H
  H162     1.0000 0.30160  0.68890  0.41400  Biso   1.000  H
  H163     1.0000 0.80160  0.81110  0.08600  Biso   1.000  H
  H164     1.0000 0.69840  0.18890  0.58600  Biso   1.000  H
  H165     1.0000 0.80160  0.68890  0.08600  Biso   1.000  H
  H166     1.0000 0.69840  0.31110  0.58600  Biso   1.000  H
  H167     1.0000 0.19840  0.18890  0.91400  Biso   1.000  H
  H168     1.0000 0.30160  0.81110  0.41400  Biso   1.000  H
  C249     1.0000 0.19404  0.38655  0.89840  Biso   1.000  C
  C250     1.0000 0.30596  0.61345  0.39840  Biso   1.000  C
  C251     1.0000 0.80596  0.88655  0.10160  Biso   1.000  C
  C252     1.0000 0.69404  0.11345  0.60160  Biso   1.000  C
  C253     1.0000 0.80596  0.61345  0.10160  Biso   1.000  C
  C254     1.0000 0.69404  0.38655  0.60160  Biso   1.000  C
  C255     1.0000 0.19404  0.11345  0.89840  Biso   1.000  C
  C256     1.0000 0.30596  0.88655  0.39840  Biso   1.000  C
  H169     1.0000 0.19620  0.38670  0.81490  Biso   1.000  H
  H170     1.0000 0.30380  0.61330  0.31490  Biso   1.000  H
  H171     1.0000 0.80380  0.88670  0.18510  Biso   1.000  H
  H172     1.0000 0.69620  0.11330  0.68510  Biso   1.000  H
  H173     1.0000 0.80380  0.61330  0.18510  Biso   1.000  H
  H174     1.0000 0.69620  0.38670  0.68510  Biso   1.000  H
  H175     1.0000 0.19620  0.11330  0.81490  Biso   1.000  H
  H176     1.0000 0.30380  0.88670  0.31490  Biso   1.000  H
  C257     1.0000 0.19449  0.29236  0.14900  Biso   1.000  C
  C258     1.0000 0.30551  0.70764  0.64900  Biso   1.000  C
  C259     1.0000 0.80551  0.79236  0.85100  Biso   1.000  C
  C260     1.0000 0.69449  0.20764  0.35100  Biso   1.000  C
  C261     1.0000 0.80551  0.70764  0.85100  Biso   1.000  C
  C262     1.0000 0.69449  0.29236  0.35100  Biso   1.000  C
  C263     1.0000 0.19449  0.20764  0.14900  Biso   1.000  C
  C264     1.0000 0.30551  0.79236  0.64900  Biso   1.000  C
  C265     1.0000 0.19540  0.25000  0.32500  Biso   1.000  C
  C266     1.0000 0.30460  0.75000  0.82500  Biso   1.000  C
  C267     1.0000 0.80460  0.75000  0.67500  Biso   1.000  C
  C268     1.0000 0.69540  0.25000  0.17500  Biso   1.000  C
  C269     1.0000 0.19640  0.25000  0.45800  Biso   1.000  C
  C270     1.0000 0.30360  0.75000  0.95800  Biso   1.000  C
  C271     1.0000 0.80360  0.75000  0.54200  Biso   1.000  C
  C272     1.0000 0.69640  0.25000  0.04200  Biso   1.000  C
  C273     1.0000 0.19696  0.29450  0.52170  Biso   1.000  C
  C274     1.0000 0.30304  0.70550  0.02170  Biso   1.000  C
  C275     1.0000 0.80304  0.79450  0.47830  Biso   1.000  C
  C276     1.0000 0.69696  0.20550  0.97830  Biso   1.000  C
  C277     1.0000 0.80304  0.70550  0.47830  Biso   1.000  C
  C278     1.0000 0.69696  0.29450  0.97830  Biso   1.000  C
  C279     1.0000 0.19696  0.20550  0.52170  Biso   1.000  C
  C280     1.0000 0.30304  0.79450  0.02170  Biso   1.000  C
  H177     1.0000 0.19600  0.32530  0.48200  Biso   1.000  H
  H178     1.0000 0.30400  0.67470  0.98200  Biso   1.000  H
  H179     1.0000 0.80400  0.82530  0.51800  Biso   1.000  H
  H180     1.0000 0.69600  0.17470  0.01800  Biso   1.000  H
  H181     1.0000 0.80400  0.67470  0.51800  Biso   1.000  H
  H182     1.0000 0.69600  0.32530  0.01800  Biso   1.000  H
  H183     1.0000 0.19600  0.17470  0.48200  Biso   1.000  H
  H184     1.0000 0.30400  0.82530  0.98200  Biso   1.000  H
  C281     1.0000 0.19900  0.29231  0.64580  Biso   1.000  C
  C282     1.0000 0.30100  0.70769  0.14580  Biso   1.000  C
  C283     1.0000 0.80100  0.79231  0.35420  Biso   1.000  C
  C284     1.0000 0.69900  0.20769  0.85420  Biso   1.000  C
  C285     1.0000 0.80100  0.70769  0.35420  Biso   1.000  C
  C286     1.0000 0.69900  0.29231  0.85420  Biso   1.000  C
  C287     1.0000 0.19900  0.20769  0.64580  Biso   1.000  C
  C288     1.0000 0.30100  0.79231  0.14580  Biso   1.000  C
  H185     1.0000 0.20000  0.32260  0.68780  Biso   1.000  H
  H186     1.0000 0.30000  0.67740  0.18780  Biso   1.000  H
  H187     1.0000 0.80000  0.82260  0.31220  Biso   1.000  H
  H188     1.0000 0.70000  0.17740  0.81220  Biso   1.000  H
  H189     1.0000 0.80000  0.67740  0.31220  Biso   1.000  H
  H190     1.0000 0.70000  0.32260  0.81220  Biso   1.000  H
  H191     1.0000 0.20000  0.17740  0.68780  Biso   1.000  H
  H192     1.0000 0.30000  0.82260  0.18780  Biso   1.000  H
  N5       1.0000 0.07009  0.43308  0.46180  Biso   1.000  N
  N6       1.0000 0.42991  0.56692  0.96180  Biso   1.000  N
  N7       1.0000 0.92991  0.93308  0.53820  Biso   1.000  N
  N8       1.0000 0.57009  0.06692  0.03820  Biso   1.000  N
  N9       1.0000 0.92991  0.56692  0.53820  Biso   1.000  N
  N10      1.0000 0.57009  0.43308  0.03820  Biso   1.000  N
  N11      1.0000 0.07009  0.06692  0.46180  Biso   1.000  N
  N12      1.0000 0.42991  0.93308  0.96180  Biso   1.000  N
  N13      1.0000 0.07472  0.25000  0.34140  Biso   1.000  N
  N14      1.0000 0.42528  0.75000  0.84140  Biso   1.000  N
  N15      1.0000 0.92528  0.75000  0.65860  Biso   1.000  N
  N16      1.0000 0.57472  0.25000  0.15860  Biso   1.000  N
  N17      1.0000 0.07374  0.29457  0.15620  Biso   1.000  N
  N18      1.0000 0.42626  0.70543  0.65620  Biso   1.000  N
  N19      1.0000 0.92626  0.79457  0.84380  Biso   1.000  N
  N20      1.0000 0.57374  0.20543  0.34380  Biso   1.000  N
  N21      1.0000 0.92626  0.70543  0.84380  Biso   1.000  N
  N22      1.0000 0.57374  0.29457  0.34380  Biso   1.000  N
  N23      1.0000 0.07374  0.20543  0.15620  Biso   1.000  N
  N24      1.0000 0.42626  0.79457  0.65620  Biso   1.000  N
  N25      1.0000 0.05464  0.56715  0.63780  Biso   1.000  N
  N26      1.0000 0.44536  0.43285  0.13780  Biso   1.000  N
  N27      1.0000 0.94536  0.06715  0.36220  Biso   1.000  N
  N28      1.0000 0.55464  0.93285  0.86220  Biso   1.000  N
  N29      1.0000 0.94536  0.43285  0.36220  Biso   1.000  N
  N30      1.0000 0.55464  0.56715  0.86220  Biso   1.000  N
  N31      1.0000 0.05464  0.93285  0.63780  Biso   1.000  N
  N32      1.0000 0.44536  0.06715  0.13780  Biso   1.000  N
  N33      1.0000 0.05305  0.70527  0.94660  Biso   1.000  N
  N34      1.0000 0.44695  0.29473  0.44660  Biso   1.000  N
  N35      1.0000 0.94695  0.20527  0.05340  Biso   1.000  N
  N36      1.0000 0.55305  0.79473  0.55340  Biso   1.000  N
  N37      1.0000 0.94695  0.29473  0.05340  Biso   1.000  N
  N38      1.0000 0.55305  0.70527  0.55340  Biso   1.000  N
  N39      1.0000 0.05305  0.79473  0.94660  Biso   1.000  N
  N40      1.0000 0.44695  0.20527  0.44660  Biso   1.000  N
  N41      1.0000 0.05368  0.75000  0.76150  Biso   1.000  N
  N42      1.0000 0.44632  0.25000  0.26150  Biso   1.000  N
  N43      1.0000 0.94632  0.25000  0.23850  Biso   1.000  N
  N44      1.0000 0.55368  0.75000  0.73850  Biso   1.000  N
  N45      1.0000 0.04890  0.75000  0.38770  Biso   1.000  N
  N46      1.0000 0.45110  0.25000  0.88770  Biso   1.000  N
  N47      1.0000 0.95110  0.25000  0.61230  Biso   1.000  N
  N48      1.0000 0.54890  0.75000  0.11230  Biso   1.000  N
  N49      1.0000 0.18882  0.56581  0.79160  Biso   1.000  N
  N50      1.0000 0.31118  0.43419  0.29160  Biso   1.000  N
  N51      1.0000 0.81118  0.06581  0.20840  Biso   1.000  N
  N52      1.0000 0.68882  0.93419  0.70840  Biso   1.000  N
  N53      1.0000 0.81118  0.43419  0.20840  Biso   1.000  N
  N54      1.0000 0.68882  0.56581  0.70840  Biso   1.000  N
  N55      1.0000 0.18882  0.93419  0.79160  Biso   1.000  N
  N56      1.0000 0.31118  0.06581  0.29160  Biso   1.000  N
  N57      1.0000 0.18298  0.75000  0.67710  Biso   1.000  N
  N58      1.0000 0.31702  0.25000  0.17710  Biso   1.000  N
  N59      1.0000 0.81702  0.25000  0.32290  Biso   1.000  N
  N60      1.0000 0.68298  0.75000  0.82290  Biso   1.000  N
  N61      1.0000 0.17842  0.70545  0.49170  Biso   1.000  N
  N62      1.0000 0.32158  0.29455  0.99170  Biso   1.000  N
  N63      1.0000 0.82158  0.20545  0.50830  Biso   1.000  N
  N64      1.0000 0.67842  0.79455  0.00830  Biso   1.000  N
  N65      1.0000 0.82158  0.29455  0.50830  Biso   1.000  N
  N66      1.0000 0.67842  0.70545  0.00830  Biso   1.000  N
  N67      1.0000 0.17842  0.79455  0.49170  Biso   1.000  N
  N68      1.0000 0.32158  0.20545  0.99170  Biso   1.000  N
  N69      1.0000 0.17430  0.75000  0.05120  Biso   1.000  N
  N70      1.0000 0.32570  0.25000  0.55120  Biso   1.000  N
  N71      1.0000 0.82570  0.25000  0.94880  Biso   1.000  N
  N72      1.0000 0.67430  0.75000  0.44880  Biso   1.000  N
  N73      1.0000 0.18944  0.43056  0.95520  Biso   1.000  N
  N74      1.0000 0.31056  0.56944  0.45520  Biso   1.000  N
  N75      1.0000 0.81056  0.93056  0.04480  Biso   1.000  N
  N76      1.0000 0.68944  0.06944  0.54480  Biso   1.000  N
  N77      1.0000 0.81056  0.56944  0.04480  Biso   1.000  N
  N78      1.0000 0.68944  0.43056  0.54480  Biso   1.000  N
  N79      1.0000 0.18944  0.06944  0.95520  Biso   1.000  N
  N80      1.0000 0.31056  0.93056  0.45520  Biso   1.000  N
  N81      1.0000 0.19546  0.25000  0.08430  Biso   1.000  N
  N82      1.0000 0.30454  0.75000  0.58430  Biso   1.000  N
  N83      1.0000 0.80454  0.75000  0.91570  Biso   1.000  N
  N84      1.0000 0.69546  0.25000  0.41570  Biso   1.000  N
  N85      1.0000 0.19465  0.29461  0.26900  Biso   1.000  N
  N86      1.0000 0.30535  0.70539  0.76900  Biso   1.000  N
  N87      1.0000 0.80535  0.79461  0.73100  Biso   1.000  N
  N88      1.0000 0.69465  0.20539  0.23100  Biso   1.000  N
  N89      1.0000 0.80535  0.70539  0.73100  Biso   1.000  N
  N90      1.0000 0.69465  0.29461  0.23100  Biso   1.000  N
  N91      1.0000 0.19465  0.20539  0.26900  Biso   1.000  N
  N92      1.0000 0.30535  0.79461  0.76900  Biso   1.000  N
  N93      1.0000 0.19970  0.25000  0.70920  Biso   1.000  N
  N94      1.0000 0.30030  0.75000  0.20920  Biso   1.000  N
  N95      1.0000 0.80030  0.75000  0.29080  Biso   1.000  N
  N96      1.0000 0.69970  0.25000  0.79080  Biso   1.000  N
  O1       1.0000 0.00087  0.47368  0.62320  Biso   1.000  O
  O2       1.0000 0.49913  0.52632  0.12320  Biso   1.000  O
  O3       1.0000 0.99913  0.97368  0.37680  Biso   1.000  O
  O4       1.0000 0.50087  0.02632  0.87680  Biso   1.000  O
  O5       1.0000 0.99913  0.52632  0.37680  Biso   1.000  O
  O6       1.0000 0.50087  0.47368  0.87680  Biso   1.000  O
  O7       1.0000 0.00087  0.02632  0.62320  Biso   1.000  O
  O8       1.0000 0.49913  0.97368  0.12320  Biso   1.000  O
  O9       1.0000 0.94680  0.41648  0.71730  Biso   1.000  O
  O10      1.0000 0.55320  0.58352  0.21730  Biso   1.000  O
  O11      1.0000 0.05320  0.91648  0.28270  Biso   1.000  O
  O12      1.0000 0.44680  0.08352  0.78270  Biso   1.000  O
  O13      1.0000 0.05320  0.58352  0.28270  Biso   1.000  O
  O14      1.0000 0.44680  0.41648  0.78270  Biso   1.000  O
  O15      1.0000 0.94680  0.08352  0.71730  Biso   1.000  O
  O16      1.0000 0.55320  0.91648  0.21730  Biso   1.000  O
  O17      1.0000 0.97794  0.48606  0.83190  Biso   1.000  O
  O18      1.0000 0.52206  0.51394  0.33190  Biso   1.000  O
  O19      1.0000 0.02206  0.98606  0.16810  Biso   1.000  O
  O20      1.0000 0.47794  0.01394  0.66810  Biso   1.000  O
  O21      1.0000 0.02206  0.51394  0.16810  Biso   1.000  O
  O22      1.0000 0.47794  0.48606  0.66810  Biso   1.000  O
  O23      1.0000 0.97794  0.01394  0.83190  Biso   1.000  O
  O24      1.0000 0.52206  0.98606  0.33190  Biso   1.000  O
  O25      1.0000 0.03141  0.41809  0.77990  Biso   1.000  O
  O26      1.0000 0.46859  0.58191  0.27990  Biso   1.000  O
  O27      1.0000 0.96859  0.91809  0.22010  Biso   1.000  O
  O28      1.0000 0.53141  0.08191  0.72010  Biso   1.000  O
  O29      1.0000 0.96859  0.58191  0.22010  Biso   1.000  O
  O30      1.0000 0.53141  0.41809  0.72010  Biso   1.000  O
  O31      1.0000 0.03141  0.08191  0.77990  Biso   1.000  O
  O32      1.0000 0.46859  0.91809  0.27990  Biso   1.000  O
  O33      1.0000 0.11069  0.53281  0.44580  Biso   1.000  O
  O34      1.0000 0.38931  0.46719  0.94580  Biso   1.000  O
  O35      1.0000 0.88931  0.03281  0.55420  Biso   1.000  O
  O36      1.0000 0.61069  0.96719  0.05420  Biso   1.000  O
  O37      1.0000 0.88931  0.46719  0.55420  Biso   1.000  O
  O38      1.0000 0.61069  0.53281  0.05420  Biso   1.000  O
  O39      1.0000 0.11069  0.96719  0.44580  Biso   1.000  O
  O40      1.0000 0.38931  0.03281  0.94580  Biso   1.000  O
  O41      1.0000 0.23880  0.47696  0.75070  Biso   1.000  O
  O42      1.0000 0.26120  0.52304  0.25070  Biso   1.000  O
  O43      1.0000 0.76120  0.97696  0.24930  Biso   1.000  O
  O44      1.0000 0.73880  0.02304  0.74930  Biso   1.000  O
  O45      1.0000 0.76120  0.52304  0.24930  Biso   1.000  O
  O46      1.0000 0.73880  0.47696  0.74930  Biso   1.000  O
  O47      1.0000 0.23880  0.02304  0.75070  Biso   1.000  O
  O48      1.0000 0.26120  0.97696  0.25070  Biso   1.000  O
  O49      1.0000 0.26183  0.47331  0.54070  Biso   1.000  O
  O50      1.0000 0.23817  0.52669  0.04070  Biso   1.000  O
  O51      1.0000 0.73817  0.97331  0.45930  Biso   1.000  O
  O52      1.0000 0.76183  0.02669  0.95930  Biso   1.000  O
  O53      1.0000 0.73817  0.52669  0.45930  Biso   1.000  O
  O54      1.0000 0.76183  0.47331  0.95930  Biso   1.000  O
  O55      1.0000 0.26183  0.02669  0.54070  Biso   1.000  O
  O56      1.0000 0.23817  0.97331  0.04070  Biso   1.000  O
  O57      1.0000 0.19371  0.42507  0.61070  Biso   1.000  O
  O58      1.0000 0.30629  0.57493  0.11070  Biso   1.000  O
  O59      1.0000 0.80629  0.92507  0.38930  Biso   1.000  O
  O60      1.0000 0.69371  0.07493  0.88930  Biso   1.000  O
  O61      1.0000 0.80629  0.57493  0.38930  Biso   1.000  O
  O62      1.0000 0.69371  0.42507  0.88930  Biso   1.000  O
  O63      1.0000 0.19371  0.07493  0.61070  Biso   1.000  O
  O64      1.0000 0.30629  0.92507  0.11070  Biso   1.000  O
  O65      1.0000 0.27487  0.40196  0.66960  Biso   1.000  O
  O66      1.0000 0.22513  0.59804  0.16960  Biso   1.000  O
  O67      1.0000 0.72513  0.90196  0.33040  Biso   1.000  O
  O68      1.0000 0.77487  0.09804  0.83040  Biso   1.000  O
  O69      1.0000 0.72513  0.59804  0.33040  Biso   1.000  O
  O70      1.0000 0.77487  0.40196  0.83040  Biso   1.000  O
  O71      1.0000 0.27487  0.09804  0.66960  Biso   1.000  O
  O72      1.0000 0.22513  0.90196  0.16960  Biso   1.000  O
  O73      1.0000 0.12914  0.51568  0.95690  Biso   1.000  O
  O74      1.0000 0.37086  0.48432  0.45690  Biso   1.000  O
  O75      1.0000 0.87086  0.01568  0.04310  Biso   1.000  O
  O76      1.0000 0.62914  0.98432  0.54310  Biso   1.000  O
  O77      1.0000 0.87086  0.48432  0.04310  Biso   1.000  O
  O78      1.0000 0.62914  0.51568  0.54310  Biso   1.000  O
  O79      1.0000 0.12914  0.98432  0.95690  Biso   1.000  O
  O80      1.0000 0.37086  0.01568  0.45690  Biso   1.000  O
  O81      1.0000 0.11661  0.46987  0.70640  Biso   1.000  O
  O82      1.0000 0.38339  0.53013  0.20640  Biso   1.000  O
  O83      1.0000 0.88339  0.96987  0.29360  Biso   1.000  O
  O84      1.0000 0.61661  0.03013  0.79360  Biso   1.000  O
  O85      1.0000 0.88339  0.53013  0.29360  Biso   1.000  O
  O86      1.0000 0.61661  0.46987  0.79360  Biso   1.000  O
  O87      1.0000 0.11661  0.03013  0.70640  Biso   1.000  O
  O88      1.0000 0.38339  0.96987  0.20640  Biso   1.000  O
  H193     1.0000 0.09630  0.54580  0.39900  Biso   1.000  H
  H194     1.0000 0.40370  0.45420  0.89900  Biso   1.000  H
  H195     1.0000 0.90370  0.04580  0.60100  Biso   1.000  H
  H196     1.0000 0.59630  0.95420  0.10100  Biso   1.000  H
  H197     1.0000 0.90370  0.45420  0.60100  Biso   1.000  H
  H198     1.0000 0.59630  0.54580  0.10100  Biso   1.000  H
  H199     1.0000 0.09630  0.95420  0.39900  Biso   1.000  H
  H200     1.0000 0.40370  0.04580  0.89900  Biso   1.000  H
  H201     1.0000 0.13300  0.52600  0.42500  Biso   1.000  H
  H202     1.0000 0.36700  0.47400  0.92500  Biso   1.000  H
  H203     1.0000 0.86700  0.02600  0.57500  Biso   1.000  H
  H204     1.0000 0.63300  0.97400  0.07500  Biso   1.000  H
  H205     1.0000 0.86700  0.47400  0.57500  Biso   1.000  H
  H206     1.0000 0.63300  0.52600  0.07500  Biso   1.000  H
  H207     1.0000 0.13300  0.97400  0.42500  Biso   1.000  H
  H208     1.0000 0.36700  0.02600  0.92500  Biso   1.000  H
  H209     1.0000 0.09700  0.44940  0.74000  Biso   1.000  H
  H210     1.0000 0.40300  0.55060  0.24000  Biso   1.000  H
  H211     1.0000 0.90300  0.94940  0.26000  Biso   1.000  H
  H212     1.0000 0.59700  0.05060  0.76000  Biso   1.000  H
  H213     1.0000 0.90300  0.55060  0.26000  Biso   1.000  H
  H214     1.0000 0.59700  0.44940  0.76000  Biso   1.000  H
  H215     1.0000 0.09700  0.05060  0.74000  Biso   1.000  H
  H216     1.0000 0.40300  0.94940  0.24000  Biso   1.000  H
  H217     1.0000 0.14100  0.45100  0.68000  Biso   1.000  H
  H218     1.0000 0.35900  0.54900  0.18000  Biso   1.000  H
  H219     1.0000 0.85900  0.95100  0.32000  Biso   1.000  H
  H220     1.0000 0.64100  0.04900  0.82000  Biso   1.000  H
  H221     1.0000 0.85900  0.54900  0.32000  Biso   1.000  H
  H222     1.0000 0.64100  0.45100  0.82000  Biso   1.000  H
  H223     1.0000 0.14100  0.04900  0.68000  Biso   1.000  H
  H224     1.0000 0.35900  0.95100  0.18000  Biso   1.000  H
  H225     1.0000 0.13140  0.53400  0.00400  Biso   1.000  H
  H226     1.0000 0.36860  0.46600  0.50400  Biso   1.000  H
  H227     1.0000 0.86860  0.03400  0.99600  Biso   1.000  H
  H228     1.0000 0.63140  0.96600  0.49600  Biso   1.000  H
  H229     1.0000 0.86860  0.46600  0.99600  Biso   1.000  H
  H230     1.0000 0.63140  0.53400  0.49600  Biso   1.000  H
  H231     1.0000 0.13140  0.96600  0.00400  Biso   1.000  H
  H232     1.0000 0.36860  0.03400  0.50400  Biso   1.000  H
  H233     1.0000 0.10800  0.49500  0.96900  Biso   1.000  H
  H234     1.0000 0.39200  0.50500  0.46900  Biso   1.000  H
  H235     1.0000 0.89200  0.99500  0.03100  Biso   1.000  H
  H236     1.0000 0.60800  0.00500  0.53100  Biso   1.000  H
  H237     1.0000 0.89200  0.50500  0.03100  Biso   1.000  H
  H238     1.0000 0.60800  0.49500  0.53100  Biso   1.000  H
  H239     1.0000 0.10800  0.00500  0.96900  Biso   1.000  H
  H240     1.0000 0.39200  0.99500  0.46900  Biso   1.000  H
  O89      1.0000 0.18060  0.47488  0.36370  Biso   1.000  O
  O90      1.0000 0.31940  0.52512  0.86370  Biso   1.000  O
  O91      1.0000 0.81940  0.97488  0.63630  Biso   1.000  O
  O92      1.0000 0.68060  0.02512  0.13630  Biso   1.000  O
  O93      1.0000 0.81940  0.52512  0.63630  Biso   1.000  O
  O94      1.0000 0.68060  0.47488  0.13630  Biso   1.000  O
  O95      1.0000 0.18060  0.02512  0.36370  Biso   1.000  O
  O96      1.0000 0.31940  0.97488  0.86370  Biso   1.000  O
  H241     1.0000 0.19990  0.49540  0.33400  Biso   1.000  H
  H242     1.0000 0.30010  0.50460  0.83400  Biso   1.000  H
  H243     1.0000 0.80010  0.99540  0.66600  Biso   1.000  H
  H244     1.0000 0.69990  0.00460  0.16600  Biso   1.000  H
  H245     1.0000 0.80010  0.50460  0.66600  Biso   1.000  H
  H246     1.0000 0.69990  0.49540  0.16600  Biso   1.000  H
  H247     1.0000 0.19990  0.00460  0.33400  Biso   1.000  H
  H248     1.0000 0.30010  0.99540  0.83400  Biso   1.000  H
  H249     1.0000 0.19300  0.46700  0.41800  Biso   1.000  H
  H250     1.0000 0.30700  0.53300  0.91800  Biso   1.000  H
  H251     1.0000 0.80700  0.96700  0.58200  Biso   1.000  H
  H252     1.0000 0.69300  0.03300  0.08200  Biso   1.000  H
  H253     1.0000 0.80700  0.53300  0.58200  Biso   1.000  H
  H254     1.0000 0.69300  0.46700  0.08200  Biso   1.000  H
  H255     1.0000 0.19300  0.03300  0.41800  Biso   1.000  H
  H256     1.0000 0.30700  0.96700  0.91800  Biso   1.000  H
  O97      1.0000 0.06366  0.44382  0.01490  Biso   1.000  O
  O98      1.0000 0.43634  0.55618  0.51490  Biso   1.000  O
  O99      1.0000 0.93634  0.94382  0.98510  Biso   1.000  O
  O100     1.0000 0.56366  0.05618  0.48510  Biso   1.000  O
  O101     1.0000 0.93634  0.55618  0.98510  Biso   1.000  O
  O102     1.0000 0.56366  0.44382  0.48510  Biso   1.000  O
  O103     1.0000 0.06366  0.05618  0.01490  Biso   1.000  O
  O104     1.0000 0.43634  0.94382  0.51490  Biso   1.000  O
  H257     1.0000 0.05000  0.44100  0.94900  Biso   1.000  H
  H258     1.0000 0.45000  0.55900  0.44900  Biso   1.000  H
  H259     1.0000 0.95000  0.94100  0.05100  Biso   1.000  H
  H260     1.0000 0.55000  0.05900  0.55100  Biso   1.000  H
  H261     1.0000 0.95000  0.55900  0.05100  Biso   1.000  H
  H262     1.0000 0.55000  0.44100  0.55100  Biso   1.000  H
  H263     1.0000 0.05000  0.05900  0.94900  Biso   1.000  H
  H264     1.0000 0.45000  0.94100  0.44900  Biso   1.000  H
  H265     1.0000 0.04620  0.46100  0.05000  Biso   1.000  H
  H266     1.0000 0.45380  0.53900  0.55000  Biso   1.000  H
  H267     1.0000 0.95380  0.96100  0.95000  Biso   1.000  H
  H268     1.0000 0.54620  0.03900  0.45000  Biso   1.000  H
  H269     1.0000 0.95380  0.53900  0.95000  Biso   1.000  H
  H270     1.0000 0.54620  0.46100  0.45000  Biso   1.000  H
  H271     1.0000 0.04620  0.03900  0.05000  Biso   1.000  H
  H272     1.0000 0.45380  0.96100  0.55000  Biso   1.000  H
  O105     1.0000 0.12915  0.58528  0.11990  Biso   1.000  O
  O106     1.0000 0.37085  0.41472  0.61990  Biso   1.000  O
  O107     1.0000 0.87085  0.08528  0.88010  Biso   1.000  O
  O108     1.0000 0.62915  0.91472  0.38010  Biso   1.000  O
  O109     1.0000 0.87085  0.41472  0.88010  Biso   1.000  O
  O110     1.0000 0.62915  0.58528  0.38010  Biso   1.000  O
  O111     1.0000 0.12915  0.91472  0.11990  Biso   1.000  O
  O112     1.0000 0.37085  0.08528  0.61990  Biso   1.000  O
  H273     1.0000 0.12670  0.61080  0.16570  Biso   1.000  H
  H274     1.0000 0.37330  0.38920  0.66570  Biso   1.000  H
  H275     1.0000 0.87330  0.11080  0.83430  Biso   1.000  H
  H276     1.0000 0.62670  0.88920  0.33430  Biso   1.000  H
  H277     1.0000 0.87330  0.38920  0.83430  Biso   1.000  H
  H278     1.0000 0.62670  0.61080  0.33430  Biso   1.000  H
  H279     1.0000 0.12670  0.88920  0.16570  Biso   1.000  H
  H280     1.0000 0.37330  0.11080  0.66570  Biso   1.000  H
  H281     1.0000 0.11150  0.58960  0.05790  Biso   1.000  H
  H282     1.0000 0.38850  0.41040  0.55790  Biso   1.000  H
  H283     1.0000 0.88850  0.08960  0.94210  Biso   1.000  H
  H284     1.0000 0.61150  0.91040  0.44210  Biso   1.000  H
  H285     1.0000 0.88850  0.41040  0.94210  Biso   1.000  H
  H286     1.0000 0.61150  0.58960  0.44210  Biso   1.000  H
  H287     1.0000 0.11150  0.91040  0.05790  Biso   1.000  H
  H288     1.0000 0.38850  0.08960  0.55790  Biso   1.000  H
