data_image0
_cell_length_a       15.7837
_cell_length_b       24.195
_cell_length_c       21.4063
_cell_angle_alpha    90
_cell_angle_beta     95.252
_cell_angle_gamma    90

_symmetry_space_group_name_H-M    "P 1"
_symmetry_int_tables_number       1

loop_
  _symmetry_equiv_pos_as_xyz
  'x, y, z'

loop_
  _atom_site_label
  _atom_site_occupancy
  _atom_site_fract_x
  _atom_site_fract_y
  _atom_site_fract_z
  _atom_site_thermal_displace_type
  _atom_site_B_iso_or_equiv
  _atom_site_type_symbol
  W1       1.0000 0.58898  0.31951  0.36180  Biso   1.000  W
  W2       1.0000 0.91102  0.81951  0.13820  Biso   1.000  W
  W3       1.0000 0.41102  0.68049  0.63820  Biso   1.000  W
  W4       1.0000 0.08898  0.18049  0.86180  Biso   1.000  W
  W5       1.0000 0.58666  0.10103  0.21913  Biso   1.000  W
  W6       1.0000 0.91334  0.60103  0.28087  Biso   1.000  W
  W7       1.0000 0.41334  0.89897  0.78087  Biso   1.000  W
  W8       1.0000 0.08666  0.39897  0.71913  Biso   1.000  W
  W9       1.0000 0.35067  0.31714  0.34967  Biso   1.000  W
  W10      1.0000 0.14933  0.81714  0.15033  Biso   1.000  W
  W11      1.0000 0.64933  0.68286  0.65033  Biso   1.000  W
  W12      1.0000 0.85067  0.18286  0.84967  Biso   1.000  W
  W13      1.0000 0.58187  0.30751  0.20433  Biso   1.000  W
  W14      1.0000 0.91813  0.80751  0.29567  Biso   1.000  W
  W15      1.0000 0.41813  0.69249  0.79567  Biso   1.000  W
  W16      1.0000 0.08187  0.19249  0.70433  Biso   1.000  W
  W17      1.0000 0.37132  0.10733  0.37834  Biso   1.000  W
  W18      1.0000 0.12868  0.60733  0.12166  Biso   1.000  W
  W19      1.0000 0.62868  0.89267  0.62166  Biso   1.000  W
  W20      1.0000 0.87132  0.39267  0.87834  Biso   1.000  W
  W21      1.0000 0.36554  0.09544  0.20557  Biso   1.000  W
  W22      1.0000 0.13446  0.59544  0.29443  Biso   1.000  W
  W23      1.0000 0.63446  0.90456  0.79443  Biso   1.000  W
  W24      1.0000 0.86554  0.40456  0.70557  Biso   1.000  W
  W25      1.0000 0.59010  0.11596  0.38982  Biso   1.000  W
  W26      1.0000 0.90990  0.61596  0.11018  Biso   1.000  W
  W27      1.0000 0.40990  0.88404  0.61018  Biso   1.000  W
  W28      1.0000 0.09010  0.38404  0.88982  Biso   1.000  W
  W29      1.0000 0.46644  0.19054  0.12123  Biso   1.000  W
  W30      1.0000 0.03356  0.69054  0.37877  Biso   1.000  W
  W31      1.0000 0.53356  0.80946  0.87877  Biso   1.000  W
  W32      1.0000 0.96644  0.30946  0.62123  Biso   1.000  W
  W33      1.0000 0.24544  0.20750  0.27717  Biso   1.000  W
  W34      1.0000 0.25456  0.70750  0.22283  Biso   1.000  W
  W35      1.0000 0.75456  0.79250  0.72283  Biso   1.000  W
  W36      1.0000 0.74544  0.29250  0.77717  Biso   1.000  W
  W37      1.0000 0.47242  0.21789  0.45206  Biso   1.000  W
  W38      1.0000 0.02758  0.71789  0.04794  Biso   1.000  W
  W39      1.0000 0.52758  0.78211  0.54794  Biso   1.000  W
  W40      1.0000 0.97242  0.28211  0.95206  Biso   1.000  W
  W41      1.0000 0.34470  0.30157  0.19012  Biso   1.000  W
  W42      1.0000 0.15530  0.80157  0.30988  Biso   1.000  W
  W43      1.0000 0.65530  0.69843  0.80988  Biso   1.000  W
  W44      1.0000 0.84470  0.19843  0.69012  Biso   1.000  W
  P1       1.0000 0.46990  0.20908  0.28692  Biso   1.000  P
  P2       1.0000 0.03010  0.70908  0.21308  Biso   1.000  P
  P3       1.0000 0.53010  0.79092  0.71308  Biso   1.000  P
  P4       1.0000 0.96990  0.29092  0.78692  Biso   1.000  P
  Cu1      1.0000 0.68244  0.21741  0.29690  Biso   1.000  Cu
  Cu2      1.0000 0.81756  0.71741  0.20310  Biso   1.000  Cu
  Cu3      1.0000 0.31756  0.78259  0.70310  Biso   1.000  Cu
  Cu4      1.0000 0.18244  0.28259  0.79690  Biso   1.000  Cu
  Cu5      1.0000 0.01813  0.15111  0.29743  Biso   1.000  Cu
  Cu6      1.0000 0.48187  0.65111  0.20257  Biso   1.000  Cu
  Cu7      1.0000 0.98187  0.84889  0.70257  Biso   1.000  Cu
  Cu8      1.0000 0.51813  0.34889  0.79743  Biso   1.000  Cu
  Cu9      1.0000 0.02933  0.28469  0.25306  Biso   1.000  Cu
  Cu10     1.0000 0.47067  0.78469  0.24694  Biso   1.000  Cu
  Cu11     1.0000 0.97067  0.71531  0.74694  Biso   1.000  Cu
  Cu12     1.0000 0.52933  0.21531  0.75306  Biso   1.000  Cu
  Cu13     1.0000 0.81086  0.14316  0.23497  Biso   1.000  Cu
  Cu14     1.0000 0.68914  0.64316  0.26503  Biso   1.000  Cu
  Cu15     1.0000 0.18914  0.85684  0.76503  Biso   1.000  Cu
  Cu16     1.0000 0.31086  0.35684  0.73497  Biso   1.000  Cu
  Cu17     1.0000 0.79977  0.28383  0.43922  Biso   1.000  Cu
  Cu18     1.0000 0.70023  0.78383  0.06078  Biso   1.000  Cu
  Cu19     1.0000 0.20023  0.71617  0.56078  Biso   1.000  Cu
  Cu20     1.0000 0.29977  0.21617  0.93922  Biso   1.000  Cu
  Cu21     1.0000 0.80173  0.28591  0.19144  Biso   1.000  Cu
  Cu22     1.0000 0.69827  0.78591  0.30856  Biso   1.000  Cu
  Cu23     1.0000 0.19827  0.71409  0.80856  Biso   1.000  Cu
  Cu24     1.0000 0.30173  0.21409  0.69144  Biso   1.000  Cu
  O1       1.0000 0.29970  0.04290  0.17810  Biso   1.000  O
  O2       1.0000 0.20030  0.54290  0.32190  Biso   1.000  O
  O3       1.0000 0.70030  0.95710  0.82190  Biso   1.000  O
  O4       1.0000 0.79970  0.45710  0.67810  Biso   1.000  O
  O5       1.0000 0.29030  0.16240  0.34360  Biso   1.000  O
  O6       1.0000 0.20970  0.66240  0.15640  Biso   1.000  O
  O7       1.0000 0.70970  0.83760  0.65640  Biso   1.000  O
  O8       1.0000 0.79030  0.33760  0.84360  Biso   1.000  O
  O9       1.0000 0.30590  0.06070  0.41110  Biso   1.000  O
  O10      1.0000 0.19410  0.56070  0.08890  Biso   1.000  O
  O11      1.0000 0.69410  0.93930  0.58890  Biso   1.000  O
  O12      1.0000 0.80590  0.43930  0.91110  Biso   1.000  O
  O13      1.0000 0.28700  0.15310  0.22400  Biso   1.000  O
  O14      1.0000 0.21300  0.65310  0.27600  Biso   1.000  O
  O15      1.0000 0.71300  0.84690  0.77600  Biso   1.000  O
  O16      1.0000 0.78700  0.34690  0.72400  Biso   1.000  O
  O17      1.0000 0.24770  0.25880  0.20910  Biso   1.000  O
  O18      1.0000 0.25230  0.75880  0.29090  Biso   1.000  O
  O19      1.0000 0.75230  0.74120  0.79090  Biso   1.000  O
  O20      1.0000 0.74770  0.24120  0.70910  Biso   1.000  O
  O21      1.0000 0.13790  0.19200  0.27400  Biso   1.000  O
  O22      1.0000 0.36210  0.69200  0.22600  Biso   1.000  O
  O23      1.0000 0.86210  0.80800  0.72600  Biso   1.000  O
  O24      1.0000 0.63790  0.30800  0.77400  Biso   1.000  O
  O25      1.0000 0.45700  0.32280  0.20000  Biso   1.000  O
  O26      1.0000 0.04300  0.82280  0.30000  Biso   1.000  O
  O27      1.0000 0.54300  0.67720  0.80000  Biso   1.000  O
  O28      1.0000 0.95700  0.17720  0.70000  Biso   1.000  O
  O29      1.0000 0.30050  0.34530  0.13350  Biso   1.000  O
  O30      1.0000 0.19950  0.84530  0.36650  Biso   1.000  O
  O31      1.0000 0.69950  0.65470  0.86650  Biso   1.000  O
  O32      1.0000 0.80050  0.15470  0.63350  Biso   1.000  O
  O33      1.0000 0.67930  0.26990  0.22560  Biso   1.000  O
  O34      1.0000 0.82070  0.76990  0.27440  Biso   1.000  O
  O35      1.0000 0.32070  0.73010  0.77440  Biso   1.000  O
  O36      1.0000 0.17930  0.23010  0.72560  Biso   1.000  O
  O37      1.0000 0.66580  0.15440  0.23750  Biso   1.000  O
  O38      1.0000 0.83420  0.65440  0.26250  Biso   1.000  O
  O39      1.0000 0.33420  0.84560  0.76250  Biso   1.000  O
  O40      1.0000 0.16580  0.34560  0.73750  Biso   1.000  O
  O41      1.0000 0.39420  0.15720  0.44590  Biso   1.000  O
  O42      1.0000 0.10580  0.65720  0.05410  Biso   1.000  O
  O43      1.0000 0.60580  0.84280  0.55410  Biso   1.000  O
  O44      1.0000 0.89420  0.34280  0.94590  Biso   1.000  O
  O45      1.0000 0.56020  0.16190  0.45640  Biso   1.000  O
  O46      1.0000 0.93980  0.66190  0.04360  Biso   1.000  O
  O47      1.0000 0.43980  0.83810  0.54360  Biso   1.000  O
  O48      1.0000 0.06020  0.33810  0.95640  Biso   1.000  O
  O49      1.0000 0.47210  0.23610  0.52870  Biso   1.000  O
  O50      1.0000 0.02790  0.73610  0.97130  Biso   1.000  O
  O51      1.0000 0.52790  0.76390  0.47130  Biso   1.000  O
  O52      1.0000 0.97210  0.26390  0.02870  Biso   1.000  O
  O53      1.0000 0.65700  0.07200  0.43200  Biso   1.000  O
  O54      1.0000 0.84300  0.57200  0.06800  Biso   1.000  O
  O55      1.0000 0.34300  0.92800  0.56800  Biso   1.000  O
  O56      1.0000 0.15700  0.42800  0.93200  Biso   1.000  O
  O57      1.0000 0.38530  0.24130  0.28000  Biso   1.000  O
  O58      1.0000 0.11470  0.74130  0.22000  Biso   1.000  O
  O59      1.0000 0.61470  0.75870  0.72000  Biso   1.000  O
  O60      1.0000 0.88530  0.25870  0.78000  Biso   1.000  O
  O61      1.0000 0.47320  0.16840  0.23330  Biso   1.000  O
  O62      1.0000 0.02680  0.66840  0.26670  Biso   1.000  O
  O63      1.0000 0.52680  0.83160  0.76670  Biso   1.000  O
  O64      1.0000 0.97320  0.33160  0.73330  Biso   1.000  O
  O65      1.0000 0.54280  0.24920  0.28750  Biso   1.000  O
  O66      1.0000 0.95720  0.74920  0.21250  Biso   1.000  O
  O67      1.0000 0.45720  0.75080  0.71250  Biso   1.000  O
  O68      1.0000 0.04280  0.25080  0.78750  Biso   1.000  O
  O69      1.0000 0.47520  0.17750  0.34850  Biso   1.000  O
  O70      1.0000 0.02480  0.67750  0.15150  Biso   1.000  O
  O71      1.0000 0.52480  0.82250  0.65150  Biso   1.000  O
  O72      1.0000 0.97520  0.32250  0.84850  Biso   1.000  O
  O73      1.0000 0.59270  0.35170  0.27930  Biso   1.000  O
  O74      1.0000 0.90730  0.85170  0.22070  Biso   1.000  O
  O75      1.0000 0.40730  0.64830  0.72070  Biso   1.000  O
  O76      1.0000 0.09270  0.14830  0.77930  Biso   1.000  O
  O77      1.0000 0.47160  0.06270  0.20370  Biso   1.000  O
  O78      1.0000 0.02840  0.56270  0.29630  Biso   1.000  O
  O79      1.0000 0.52840  0.93730  0.79630  Biso   1.000  O
  O80      1.0000 0.97160  0.43730  0.70370  Biso   1.000  O
  O81      1.0000 0.38490  0.26310  0.41230  Biso   1.000  O
  O82      1.0000 0.11510  0.76310  0.08770  Biso   1.000  O
  O83      1.0000 0.61510  0.73690  0.58770  Biso   1.000  O
  O84      1.0000 0.88490  0.23690  0.91230  Biso   1.000  O
  O85      1.0000 0.46410  0.33460  0.35020  Biso   1.000  O
  O86      1.0000 0.03590  0.83460  0.14980  Biso   1.000  O
  O87      1.0000 0.53590  0.66540  0.64980  Biso   1.000  O
  O88      1.0000 0.96410  0.16540  0.85020  Biso   1.000  O
  O89      1.0000 0.55290  0.26870  0.42140  Biso   1.000  O
  O90      1.0000 0.94710  0.76870  0.07860  Biso   1.000  O
  O91      1.0000 0.44710  0.73130  0.57860  Biso   1.000  O
  O92      1.0000 0.05290  0.23130  0.92140  Biso   1.000  O
  O93      1.0000 0.37990  0.24090  0.14300  Biso   1.000  O
  O94      1.0000 0.12010  0.74090  0.35700  Biso   1.000  O
  O95      1.0000 0.62010  0.75910  0.85700  Biso   1.000  O
  O96      1.0000 0.87990  0.25910  0.64300  Biso   1.000  O
  O97      1.0000 0.57800  0.08720  0.30580  Biso   1.000  O
  O98      1.0000 0.92200  0.58720  0.19420  Biso   1.000  O
  O99      1.0000 0.42200  0.91280  0.69420  Biso   1.000  O
  O100     1.0000 0.07800  0.41280  0.80580  Biso   1.000  O
  O101     1.0000 0.38600  0.13200  0.12890  Biso   1.000  O
  O102     1.0000 0.11400  0.63200  0.37110  Biso   1.000  O
  O103     1.0000 0.61400  0.86800  0.87110  Biso   1.000  O
  O104     1.0000 0.88600  0.36800  0.62890  Biso   1.000  O
  O105     1.0000 0.68900  0.28180  0.35770  Biso   1.000  O
  O106     1.0000 0.81100  0.78180  0.14230  Biso   1.000  O
  O107     1.0000 0.31100  0.71820  0.64230  Biso   1.000  O
  O108     1.0000 0.18900  0.21820  0.85770  Biso   1.000  O
  O109     1.0000 0.48100  0.07910  0.39970  Biso   1.000  O
  O110     1.0000 0.01900  0.57910  0.10030  Biso   1.000  O
  O111     1.0000 0.51900  0.92090  0.60030  Biso   1.000  O
  O112     1.0000 0.98100  0.42090  0.89970  Biso   1.000  O
  O113     1.0000 0.54310  0.24650  0.15040  Biso   1.000  O
  O114     1.0000 0.95690  0.74650  0.34960  Biso   1.000  O
  O115     1.0000 0.45690  0.75350  0.84960  Biso   1.000  O
  O116     1.0000 0.04310  0.25350  0.65040  Biso   1.000  O
  O117     1.0000 0.37180  0.08400  0.29500  Biso   1.000  O
  O118     1.0000 0.12820  0.58400  0.20500  Biso   1.000  O
  O119     1.0000 0.62820  0.91600  0.70500  Biso   1.000  O
  O120     1.0000 0.87180  0.41600  0.79500  Biso   1.000  O
  O121     1.0000 0.25050  0.26930  0.33250  Biso   1.000  O
  O122     1.0000 0.24950  0.76930  0.16750  Biso   1.000  O
  O123     1.0000 0.74950  0.73070  0.66750  Biso   1.000  O
  O124     1.0000 0.75050  0.23070  0.83250  Biso   1.000  O
  N1       1.0000 0.07610  0.34450  0.20320  Biso   1.000  N
  N2       1.0000 0.42390  0.84450  0.29680  Biso   1.000  N
  N3       1.0000 0.92390  0.65550  0.79680  Biso   1.000  N
  N4       1.0000 0.57610  0.15550  0.70320  Biso   1.000  N
  N5       1.0000 0.06980  0.33400  0.32320  Biso   1.000  N
  N6       1.0000 0.43020  0.83400  0.17680  Biso   1.000  N
  N7       1.0000 0.93020  0.66600  0.67680  Biso   1.000  N
  N8       1.0000 0.56980  0.16600  0.82320  Biso   1.000  N
  C1       1.0000 0.10630  0.38320  0.30320  Biso   1.000  C
  C2       1.0000 0.39370  0.88320  0.19680  Biso   1.000  C
  C3       1.0000 0.89370  0.61680  0.69680  Biso   1.000  C
  C4       1.0000 0.60630  0.11680  0.80320  Biso   1.000  C
  C5       1.0000 0.10840  0.38690  0.23640  Biso   1.000  C
  C6       1.0000 0.39160  0.88690  0.26360  Biso   1.000  C
  C7       1.0000 0.89160  0.61310  0.76360  Biso   1.000  C
  C8       1.0000 0.60840  0.11310  0.73640  Biso   1.000  C
  O125     1.0000 0.46260  0.19650  0.04210  Biso   1.000  O
  O126     1.0000 0.03740  0.69650  0.45790  Biso   1.000  O
  O127     1.0000 0.53740  0.80350  0.95790  Biso   1.000  O
  O128     1.0000 0.96260  0.30350  0.54210  Biso   1.000  O
  O129     1.0000 0.66360  0.16730  0.36490  Biso   1.000  O
  O130     1.0000 0.83640  0.66730  0.13510  Biso   1.000  O
  O131     1.0000 0.33640  0.83270  0.63510  Biso   1.000  O
  O132     1.0000 0.16360  0.33270  0.86490  Biso   1.000  O
  O133     1.0000 0.64640  0.04590  0.19670  Biso   1.000  O
  O134     1.0000 0.85360  0.54590  0.30330  Biso   1.000  O
  O135     1.0000 0.35360  0.95410  0.80330  Biso   1.000  O
  O136     1.0000 0.14640  0.45410  0.69670  Biso   1.000  O
  O137     1.0000 0.31220  0.36870  0.39340  Biso   1.000  O
  O138     1.0000 0.18780  0.86870  0.10660  Biso   1.000  O
  O139     1.0000 0.68780  0.63130  0.60660  Biso   1.000  O
  O140     1.0000 0.81220  0.13130  0.89340  Biso   1.000  O
  O141     1.0000 0.55160  0.13600  0.13780  Biso   1.000  O
  O142     1.0000 0.94840  0.63600  0.36220  Biso   1.000  O
  O143     1.0000 0.44840  0.86400  0.86220  Biso   1.000  O
  O144     1.0000 0.05160  0.36400  0.63780  Biso   1.000  O
  O145     1.0000 0.61330  0.35390  0.15000  Biso   1.000  O
  O146     1.0000 0.88670  0.85390  0.35000  Biso   1.000  O
  O147     1.0000 0.38670  0.64610  0.85000  Biso   1.000  O
  O148     1.0000 0.11330  0.14610  0.65000  Biso   1.000  O
  O149     1.0000 0.62010  0.37430  0.40840  Biso   1.000  O
  O150     1.0000 0.87990  0.87430  0.09160  Biso   1.000  O
  O151     1.0000 0.37990  0.62570  0.59160  Biso   1.000  O
  O152     1.0000 0.12010  0.12570  0.90840  Biso   1.000  O
  O153     1.0000 0.32690  0.34250  0.26510  Biso   1.000  O
  O154     1.0000 0.17310  0.84250  0.23490  Biso   1.000  O
  O155     1.0000 0.67310  0.65750  0.73490  Biso   1.000  O
  O156     1.0000 0.82690  0.15750  0.76510  Biso   1.000  O
  P5       1.0000 0.88320  0.24489  0.31809  Biso   1.000  P
  P6       1.0000 0.61680  0.74489  0.18191  Biso   1.000  P
  P7       1.0000 0.11680  0.75511  0.68191  Biso   1.000  P
  P8       1.0000 0.38320  0.25511  0.81809  Biso   1.000  P
  P9       1.0000 0.93990  0.19499  0.16880  Biso   1.000  P
  P10      1.0000 0.56010  0.69499  0.33120  Biso   1.000  P
  P11      1.0000 0.06010  0.80501  0.83120  Biso   1.000  P
  P12      1.0000 0.43990  0.30501  0.66880  Biso   1.000  P
  O157     1.0000 0.97690  0.22790  0.30680  Biso   1.000  O
  O158     1.0000 0.52310  0.72790  0.19320  Biso   1.000  O
  O159     1.0000 0.02310  0.77210  0.69320  Biso   1.000  O
  O160     1.0000 0.47690  0.27210  0.80680  Biso   1.000  O
  N9       1.0000 0.02900  0.13420  0.39020  Biso   1.000  N
  N10      1.0000 0.47100  0.63420  0.10980  Biso   1.000  N
  N11      1.0000 0.97100  0.86580  0.60980  Biso   1.000  N
  N12      1.0000 0.52900  0.36580  0.89020  Biso   1.000  N
  N13      1.0000 0.06150  0.07410  0.29320  Biso   1.000  N
  N14      1.0000 0.43850  0.57410  0.20680  Biso   1.000  N
  N15      1.0000 0.93850  0.92590  0.70680  Biso   1.000  N
  N16      1.0000 0.56150  0.42590  0.79320  Biso   1.000  N
  C9       1.0000 0.08000  0.04910  0.34780  Biso   1.000  C
  C10      1.0000 0.42000  0.54910  0.15220  Biso   1.000  C
  C11      1.0000 0.92000  0.95090  0.65220  Biso   1.000  C
  C12      1.0000 0.58000  0.45090  0.84780  Biso   1.000  C
  C13      1.0000 0.05740  0.08170  0.40320  Biso   1.000  C
  C14      1.0000 0.44260  0.58170  0.09680  Biso   1.000  C
  C15      1.0000 0.94260  0.91830  0.59680  Biso   1.000  C
  C16      1.0000 0.55740  0.41830  0.90320  Biso   1.000  C
  N17      1.0000 0.82240  0.07650  0.28790  Biso   1.000  N
  N18      1.0000 0.67760  0.57650  0.21210  Biso   1.000  N
  N19      1.0000 0.17760  0.92350  0.71210  Biso   1.000  N
  N20      1.0000 0.32240  0.42350  0.78790  Biso   1.000  N
  N21      1.0000 0.81230  0.08520  0.16650  Biso   1.000  N
  N22      1.0000 0.68770  0.58520  0.33350  Biso   1.000  N
  N23      1.0000 0.18770  0.91480  0.83350  Biso   1.000  N
  N24      1.0000 0.31230  0.41480  0.66650  Biso   1.000  N
  C17      1.0000 0.83400  0.02830  0.25760  Biso   1.000  C
  C18      1.0000 0.66600  0.52830  0.24240  Biso   1.000  C
  C19      1.0000 0.16600  0.97170  0.74240  Biso   1.000  C
  C20      1.0000 0.33400  0.47170  0.75760  Biso   1.000  C
  C21      1.0000 0.80830  0.09490  0.10540  Biso   1.000  C
  C22      1.0000 0.69170  0.59490  0.39460  Biso   1.000  C
  C23      1.0000 0.19170  0.90510  0.89460  Biso   1.000  C
  C24      1.0000 0.30830  0.40510  0.60540  Biso   1.000  C
  H1       1.0000 0.79550  0.13060  0.09130  Biso   1.000  H
  H2       1.0000 0.70450  0.63060  0.40870  Biso   1.000  H
  H3       1.0000 0.20450  0.86940  0.90870  Biso   1.000  H
  H4       1.0000 0.29550  0.36940  0.59130  Biso   1.000  H
  C25      1.0000 0.82280  0.07560  0.35010  Biso   1.000  C
  C26      1.0000 0.67720  0.57560  0.14990  Biso   1.000  C
  C27      1.0000 0.17720  0.92440  0.64990  Biso   1.000  C
  C28      1.0000 0.32280  0.42440  0.85010  Biso   1.000  C
  H5       1.0000 0.81930  0.10850  0.37220  Biso   1.000  H
  H6       1.0000 0.68070  0.60850  0.12780  Biso   1.000  H
  H7       1.0000 0.18070  0.89150  0.62780  Biso   1.000  H
  H8       1.0000 0.31930  0.39150  0.87220  Biso   1.000  H
  C29      1.0000 0.83320  0.03560  0.18830  Biso   1.000  C
  C30      1.0000 0.66680  0.53560  0.31170  Biso   1.000  C
  C31      1.0000 0.16680  0.96440  0.81170  Biso   1.000  C
  C32      1.0000 0.33320  0.46440  0.68830  Biso   1.000  C
  O161     1.0000 0.84660  0.20320  0.18080  Biso   1.000  O
  O162     1.0000 0.65340  0.70320  0.31920  Biso   1.000  O
  O163     1.0000 0.15340  0.79680  0.81920  Biso   1.000  O
  O164     1.0000 0.34660  0.29680  0.68080  Biso   1.000  O
  C33      1.0000 0.06970  0.34620  0.14200  Biso   1.000  C
  C34      1.0000 0.43030  0.84620  0.35800  Biso   1.000  C
  C35      1.0000 0.93030  0.65380  0.85800  Biso   1.000  C
  C36      1.0000 0.56970  0.15380  0.64200  Biso   1.000  C
  H9       1.0000 0.04130  0.31770  0.11970  Biso   1.000  H
  H10      1.0000 0.45870  0.81770  0.38030  Biso   1.000  H
  H11      1.0000 0.95870  0.68230  0.88030  Biso   1.000  H
  H12      1.0000 0.54130  0.18230  0.61970  Biso   1.000  H
  C37      1.0000 0.10530  0.39110  0.10750  Biso   1.000  C
  C38      1.0000 0.39470  0.89110  0.39250  Biso   1.000  C
  C39      1.0000 0.89470  0.60890  0.89250  Biso   1.000  C
  C40      1.0000 0.60530  0.10890  0.60750  Biso   1.000  C
  H13      1.0000 0.10480  0.39110  0.06400  Biso   1.000  H
  H14      1.0000 0.39520  0.89110  0.43600  Biso   1.000  H
  H15      1.0000 0.89520  0.60890  0.93600  Biso   1.000  H
  H16      1.0000 0.60480  0.10890  0.56400  Biso   1.000  H
  C41      1.0000 0.00770  0.16660  0.43630  Biso   1.000  C
  C42      1.0000 0.49230  0.66660  0.06370  Biso   1.000  C
  C43      1.0000 0.99230  0.83340  0.56370  Biso   1.000  C
  C44      1.0000 0.50770  0.33340  0.93630  Biso   1.000  C
  H17      1.0000 0.99100  0.20270  0.42710  Biso   1.000  H
  H18      1.0000 0.50900  0.70270  0.07290  Biso   1.000  H
  H19      1.0000 0.00900  0.79730  0.57290  Biso   1.000  H
  H20      1.0000 0.49100  0.29730  0.92710  Biso   1.000  H
  C45      1.0000 0.07880  0.36820  0.42800  Biso   1.000  C
  C46      1.0000 0.42120  0.86820  0.07200  Biso   1.000  C
  C47      1.0000 0.92120  0.63180  0.57200  Biso   1.000  C
  C48      1.0000 0.57880  0.13180  0.92800  Biso   1.000  C
  H21      1.0000 0.06620  0.36320  0.46930  Biso   1.000  H
  H22      1.0000 0.43380  0.86320  0.03070  Biso   1.000  H
  H23      1.0000 0.93380  0.63680  0.53070  Biso   1.000  H
  H24      1.0000 0.56620  0.13680  0.96930  Biso   1.000  H
  C49      1.0000 0.11740  0.41430  0.41030  Biso   1.000  C
  C50      1.0000 0.38260  0.91430  0.08970  Biso   1.000  C
  C51      1.0000 0.88260  0.58570  0.58970  Biso   1.000  C
  C52      1.0000 0.61740  0.08570  0.91030  Biso   1.000  C
  H25      1.0000 0.13550  0.44090  0.43990  Biso   1.000  H
  H26      1.0000 0.36450  0.94090  0.06010  Biso   1.000  H
  H27      1.0000 0.86450  0.55910  0.56010  Biso   1.000  H
  H28      1.0000 0.63550  0.05910  0.93990  Biso   1.000  H
  C53      1.0000 0.14060  0.43440  0.14480  Biso   1.000  C
  C54      1.0000 0.35940  0.93440  0.35520  Biso   1.000  C
  C55      1.0000 0.85940  0.56560  0.85520  Biso   1.000  C
  C56      1.0000 0.64060  0.06560  0.64480  Biso   1.000  C
  H29      1.0000 0.16310  0.46470  0.12530  Biso   1.000  H
  H30      1.0000 0.33690  0.96470  0.37470  Biso   1.000  H
  H31      1.0000 0.83690  0.53530  0.87470  Biso   1.000  H
  H32      1.0000 0.66310  0.03530  0.62530  Biso   1.000  H
  C57      1.0000 0.13020  0.42220  0.34850  Biso   1.000  C
  C58      1.0000 0.36980  0.92220  0.15150  Biso   1.000  C
  C59      1.0000 0.86980  0.57780  0.65150  Biso   1.000  C
  C60      1.0000 0.63020  0.07780  0.84850  Biso   1.000  C
  H33      1.0000 0.15570  0.45480  0.33680  Biso   1.000  H
  H34      1.0000 0.34430  0.95480  0.16320  Biso   1.000  H
  H35      1.0000 0.84430  0.54520  0.66320  Biso   1.000  H
  H36      1.0000 0.65570  0.04520  0.83680  Biso   1.000  H
  C61      1.0000 0.05840  0.32850  0.38310  Biso   1.000  C
  C62      1.0000 0.44160  0.82850  0.11690  Biso   1.000  C
  C63      1.0000 0.94160  0.67150  0.61690  Biso   1.000  C
  C64      1.0000 0.55840  0.17150  0.88310  Biso   1.000  C
  H37      1.0000 0.03500  0.29560  0.39590  Biso   1.000  H
  H38      1.0000 0.46500  0.79560  0.10410  Biso   1.000  H
  H39      1.0000 0.96500  0.70440  0.60410  Biso   1.000  H
  H40      1.0000 0.53500  0.20440  0.89590  Biso   1.000  H
  C65      1.0000 0.85300  0.99250  0.14980  Biso   1.000  C
  C66      1.0000 0.64700  0.49250  0.35020  Biso   1.000  C
  C67      1.0000 0.14700  0.00750  0.85020  Biso   1.000  C
  C68      1.0000 0.35300  0.50750  0.64980  Biso   1.000  C
  H41      1.0000 0.87040  0.95820  0.16580  Biso   1.000  H
  H42      1.0000 0.62960  0.45820  0.33420  Biso   1.000  H
  H43      1.0000 0.12960  0.04180  0.83420  Biso   1.000  H
  H44      1.0000 0.37040  0.54180  0.66580  Biso   1.000  H
  C69      1.0000 0.82200  0.05530  0.06210  Biso   1.000  C
  C70      1.0000 0.67800  0.55530  0.43790  Biso   1.000  C
  C71      1.0000 0.17800  0.94470  0.93790  Biso   1.000  C
  C72      1.0000 0.32200  0.44470  0.56210  Biso   1.000  C
  H45      1.0000 0.81630  0.06210  0.01920  Biso   1.000  H
  H46      1.0000 0.68370  0.56210  0.48080  Biso   1.000  H
  H47      1.0000 0.18370  0.93790  0.98080  Biso   1.000  H
  H48      1.0000 0.31630  0.43790  0.51920  Biso   1.000  H
  C73      1.0000 0.82850  0.02390  0.38310  Biso   1.000  C
  C74      1.0000 0.67150  0.52390  0.11690  Biso   1.000  C
  C75      1.0000 0.17150  0.97610  0.61690  Biso   1.000  C
  C76      1.0000 0.32850  0.47610  0.88310  Biso   1.000  C
  H49      1.0000 0.82520  0.02250  0.42620  Biso   1.000  H
  H50      1.0000 0.67480  0.52250  0.07380  Biso   1.000  H
  H51      1.0000 0.17480  0.97750  0.57380  Biso   1.000  H
  H52      1.0000 0.32520  0.47750  0.92620  Biso   1.000  H
  C77      1.0000 0.84500  0.97830  0.28660  Biso   1.000  C
  C78      1.0000 0.65500  0.47830  0.21340  Biso   1.000  C
  C79      1.0000 0.15500  0.02170  0.71340  Biso   1.000  C
  C80      1.0000 0.34500  0.52170  0.78660  Biso   1.000  C
  H53      1.0000 0.85630  0.94640  0.26450  Biso   1.000  H
  H54      1.0000 0.64370  0.44640  0.23550  Biso   1.000  H
  H55      1.0000 0.14370  0.05360  0.73550  Biso   1.000  H
  H56      1.0000 0.35630  0.55360  0.76450  Biso   1.000  H
  O165     1.0000 0.86070  0.29280  0.27280  Biso   1.000  O
  O166     1.0000 0.63930  0.79280  0.22720  Biso   1.000  O
  O167     1.0000 0.13930  0.70720  0.72720  Biso   1.000  O
  O168     1.0000 0.36070  0.20720  0.77280  Biso   1.000  O
  O169     1.0000 0.82390  0.19500  0.30640  Biso   1.000  O
  O170     1.0000 0.67610  0.69500  0.19360  Biso   1.000  O
  O171     1.0000 0.17610  0.80500  0.69360  Biso   1.000  O
  O172     1.0000 0.32390  0.30500  0.80640  Biso   1.000  O
  O173     1.0000 0.88520  0.26540  0.38570  Biso   1.000  O
  O174     1.0000 0.61480  0.76540  0.11430  Biso   1.000  O
  O175     1.0000 0.11480  0.73460  0.61430  Biso   1.000  O
  O176     1.0000 0.38520  0.23460  0.88570  Biso   1.000  O
  O177     1.0000 0.97520  0.14720  0.20990  Biso   1.000  O
  O178     1.0000 0.52480  0.64720  0.29010  Biso   1.000  O
  O179     1.0000 0.02480  0.85280  0.79010  Biso   1.000  O
  O180     1.0000 0.47520  0.35280  0.70990  Biso   1.000  O
  O181     1.0000 0.94510  0.17680  0.09910  Biso   1.000  O
  O182     1.0000 0.55490  0.67680  0.40090  Biso   1.000  O
  O183     1.0000 0.05490  0.82320  0.90090  Biso   1.000  O
  O184     1.0000 0.44510  0.32320  0.59910  Biso   1.000  O
  N25      1.0000 0.75340  0.28360  0.10410  Biso   1.000  N
  N26      1.0000 0.74660  0.78360  0.39590  Biso   1.000  N
  N27      1.0000 0.24660  0.71640  0.89590  Biso   1.000  N
  N28      1.0000 0.25340  0.21640  0.60410  Biso   1.000  N
  N29      1.0000 0.83610  0.36310  0.16590  Biso   1.000  N
  N30      1.0000 0.66390  0.86310  0.33410  Biso   1.000  N
  N31      1.0000 0.16390  0.63690  0.83410  Biso   1.000  N
  N32      1.0000 0.33610  0.13690  0.66590  Biso   1.000  N
  C81      1.0000 0.82110  0.37030  0.10310  Biso   1.000  C
  C82      1.0000 0.67890  0.87030  0.39690  Biso   1.000  C
  C83      1.0000 0.17890  0.62970  0.89690  Biso   1.000  C
  C84      1.0000 0.32110  0.12970  0.60310  Biso   1.000  C
  C85      1.0000 0.88020  0.39960  0.20330  Biso   1.000  C
  C86      1.0000 0.61980  0.89960  0.29670  Biso   1.000  C
  C87      1.0000 0.11980  0.60040  0.79670  Biso   1.000  C
  C88      1.0000 0.38020  0.10040  0.70330  Biso   1.000  C
  H57      1.0000 0.89060  0.39310  0.24610  Biso   1.000  H
  H58      1.0000 0.60940  0.89310  0.25390  Biso   1.000  H
  H59      1.0000 0.10940  0.60690  0.75390  Biso   1.000  H
  H60      1.0000 0.39060  0.10690  0.74610  Biso   1.000  H
  C89      1.0000 0.12400  0.96940  0.29860  Biso   1.000  C
  C90      1.0000 0.37600  0.46940  0.20140  Biso   1.000  C
  C91      1.0000 0.87600  0.03060  0.70140  Biso   1.000  C
  C92      1.0000 0.62400  0.53060  0.79860  Biso   1.000  C
  H61      1.0000 0.14240  0.93300  0.30010  Biso   1.000  H
  H62      1.0000 0.35760  0.43300  0.19990  Biso   1.000  H
  H63      1.0000 0.85760  0.06700  0.69990  Biso   1.000  H
  H64      1.0000 0.64240  0.56700  0.80010  Biso   1.000  H
  C93      1.0000 0.00970  0.14850  0.49680  Biso   1.000  C
  C94      1.0000 0.49030  0.64850  0.00320  Biso   1.000  C
  C95      1.0000 0.99030  0.85150  0.50320  Biso   1.000  C
  C96      1.0000 0.50970  0.35150  0.99680  Biso   1.000  C
  H65      1.0000 0.99060  0.17170  0.52720  Biso   1.000  H
  H66      1.0000 0.50940  0.67170  0.97280  Biso   1.000  H
  H67      1.0000 0.00940  0.82830  0.47280  Biso   1.000  H
  H68      1.0000 0.49060  0.32830  0.02720  Biso   1.000  H
  C97      1.0000 0.07290  0.04860  0.23920  Biso   1.000  C
  C98      1.0000 0.42710  0.54860  0.26080  Biso   1.000  C
  C99      1.0000 0.92710  0.95140  0.76080  Biso   1.000  C
  C100     1.0000 0.57290  0.45140  0.73920  Biso   1.000  C
  H69      1.0000 0.05950  0.06620  0.20090  Biso   1.000  H
  H70      1.0000 0.44050  0.56620  0.29910  Biso   1.000  H
  H71      1.0000 0.94050  0.93380  0.79910  Biso   1.000  H
  H72      1.0000 0.55950  0.43380  0.70090  Biso   1.000  H
  C101     1.0000 0.11400  0.99640  0.35180  Biso   1.000  C
  C102     1.0000 0.38600  0.49640  0.14820  Biso   1.000  C
  C103     1.0000 0.88600  0.00360  0.64820  Biso   1.000  C
  C104     1.0000 0.61400  0.50360  0.85180  Biso   1.000  C
  H73      1.0000 0.13060  0.98030  0.39060  Biso   1.000  H
  H74      1.0000 0.36940  0.48030  0.10940  Biso   1.000  H
  H75      1.0000 0.86940  0.01970  0.60940  Biso   1.000  H
  H76      1.0000 0.63060  0.51970  0.89060  Biso   1.000  H
  C105     1.0000 0.06310  0.06360  0.46390  Biso   1.000  C
  C106     1.0000 0.43690  0.56360  0.03610  Biso   1.000  C
  C107     1.0000 0.93690  0.93640  0.53610  Biso   1.000  C
  C108     1.0000 0.56310  0.43640  0.96390  Biso   1.000  C
  H77      1.0000 0.08340  0.02810  0.47290  Biso   1.000  H
  H78      1.0000 0.41660  0.52810  0.02710  Biso   1.000  H
  H79      1.0000 0.91660  0.97190  0.52710  Biso   1.000  H
  H80      1.0000 0.58340  0.47190  0.97290  Biso   1.000  H
  C109     1.0000 0.14290  0.43390  0.20690  Biso   1.000  C
  C110     1.0000 0.35710  0.93390  0.29310  Biso   1.000  C
  C111     1.0000 0.85710  0.56610  0.79310  Biso   1.000  C
  C112     1.0000 0.64290  0.06610  0.70690  Biso   1.000  C
  H81      1.0000 0.16630  0.46320  0.23060  Biso   1.000  H
  H82      1.0000 0.33370  0.96320  0.26940  Biso   1.000  H
  H83      1.0000 0.83370  0.53680  0.76940  Biso   1.000  H
  H84      1.0000 0.66630  0.03680  0.73060  Biso   1.000  H
  C113     1.0000 0.84570  0.00300  0.08790  Biso   1.000  C
  C114     1.0000 0.65430  0.50300  0.41210  Biso   1.000  C
  C115     1.0000 0.15430  0.99700  0.91210  Biso   1.000  C
  C116     1.0000 0.34570  0.49700  0.58790  Biso   1.000  C
  H85      1.0000 0.85680  0.97450  0.06060  Biso   1.000  H
  H86      1.0000 0.64320  0.47450  0.43940  Biso   1.000  H
  H87      1.0000 0.14320  0.02550  0.93940  Biso   1.000  H
  H88      1.0000 0.35680  0.52550  0.56060  Biso   1.000  H
  C117     1.0000 0.83860  0.97750  0.35000  Biso   1.000  C
  C118     1.0000 0.66140  0.47750  0.15000  Biso   1.000  C
  C119     1.0000 0.16140  0.02250  0.65000  Biso   1.000  C
  C120     1.0000 0.33860  0.52250  0.85000  Biso   1.000  C
  H89      1.0000 0.84130  0.94380  0.37080  Biso   1.000  H
  H90      1.0000 0.65870  0.44380  0.12920  Biso   1.000  H
  H91      1.0000 0.15870  0.05620  0.62920  Biso   1.000  H
  H92      1.0000 0.34130  0.55620  0.87080  Biso   1.000  H
  O185     1.0000 0.77540  0.20520  0.45400  Biso   1.000  O
  O186     1.0000 0.72460  0.70520  0.04600  Biso   1.000  O
  O187     1.0000 0.22460  0.79480  0.54600  Biso   1.000  O
  O188     1.0000 0.27540  0.29480  0.95400  Biso   1.000  O
  H93      1.0000 0.72670  0.20200  0.46400  Biso   1.000  H
  H94      1.0000 0.77330  0.70200  0.03600  Biso   1.000  H
  H95      1.0000 0.27330  0.79800  0.53600  Biso   1.000  H
  H96      1.0000 0.22670  0.29800  0.96400  Biso   1.000  H
  N33      1.0000 0.74040  0.30810  0.51160  Biso   1.000  N
  N34      1.0000 0.75960  0.80810  0.98840  Biso   1.000  N
  N35      1.0000 0.25960  0.69190  0.48840  Biso   1.000  N
  N36      1.0000 0.24040  0.19190  0.01160  Biso   1.000  N
  C121     1.0000 0.86500  0.38800  0.38990  Biso   1.000  C
  C122     1.0000 0.63500  0.88800  0.11010  Biso   1.000  C
  C123     1.0000 0.13500  0.61200  0.61010  Biso   1.000  C
  C124     1.0000 0.36500  0.11200  0.88990  Biso   1.000  C
  H97      1.0000 0.88210  0.36680  0.35710  Biso   1.000  H
  H98      1.0000 0.61790  0.86680  0.14290  Biso   1.000  H
  H99      1.0000 0.11790  0.63320  0.64290  Biso   1.000  H
  H100     1.0000 0.38210  0.13320  0.85710  Biso   1.000  H
  N37      1.0000 0.82250  0.36500  0.43290  Biso   1.000  N
  N38      1.0000 0.67750  0.86500  0.06710  Biso   1.000  N
  N39      1.0000 0.17750  0.63500  0.56710  Biso   1.000  N
  N40      1.0000 0.32250  0.13500  0.93290  Biso   1.000  N
  C125     1.0000 0.69210  0.27880  0.54600  Biso   1.000  C
  C126     1.0000 0.80790  0.77880  0.95400  Biso   1.000  C
  C127     1.0000 0.30790  0.72120  0.45400  Biso   1.000  C
  C128     1.0000 0.19210  0.22120  0.04600  Biso   1.000  C
  H101     1.0000 0.68740  0.24110  0.53760  Biso   1.000  H
  H102     1.0000 0.81260  0.74110  0.96240  Biso   1.000  H
  H103     1.0000 0.31260  0.75890  0.46240  Biso   1.000  H
  H104     1.0000 0.18740  0.25890  0.03760  Biso   1.000  H
  C129     1.0000 0.79660  0.39200  0.48100  Biso   1.000  C
  C130     1.0000 0.70340  0.89200  0.01900  Biso   1.000  C
  C131     1.0000 0.20340  0.60800  0.51900  Biso   1.000  C
  C132     1.0000 0.29660  0.10800  0.98100  Biso   1.000  C
  C133     1.0000 0.64960  0.29850  0.59180  Biso   1.000  C
  C134     1.0000 0.85040  0.79850  0.90820  Biso   1.000  C
  C135     1.0000 0.35040  0.70150  0.40820  Biso   1.000  C
  C136     1.0000 0.14960  0.20150  0.09180  Biso   1.000  C
  H105     1.0000 0.61850  0.27500  0.61540  Biso   1.000  H
  H106     1.0000 0.88150  0.77500  0.88460  Biso   1.000  H
  H107     1.0000 0.38150  0.72500  0.38460  Biso   1.000  H
  H108     1.0000 0.11850  0.22500  0.11540  Biso   1.000  H
  C137     1.0000 0.74590  0.36230  0.52300  Biso   1.000  C
  C138     1.0000 0.75410  0.86230  0.97700  Biso   1.000  C
  C139     1.0000 0.25410  0.63770  0.47700  Biso   1.000  C
  C140     1.0000 0.24590  0.13770  0.02300  Biso   1.000  C
  C141     1.0000 0.88440  0.44350  0.39320  Biso   1.000  C
  C142     1.0000 0.61560  0.94350  0.10680  Biso   1.000  C
  C143     1.0000 0.11560  0.55650  0.60680  Biso   1.000  C
  C144     1.0000 0.38440  0.05650  0.89320  Biso   1.000  C
  H109     1.0000 0.91030  0.46040  0.36080  Biso   1.000  H
  H110     1.0000 0.58970  0.96040  0.13920  Biso   1.000  H
  H111     1.0000 0.08970  0.53960  0.63920  Biso   1.000  H
  H112     1.0000 0.41030  0.03960  0.86080  Biso   1.000  H
  C145     1.0000 0.82250  0.44840  0.49070  Biso   1.000  C
  C146     1.0000 0.67750  0.94840  0.00930  Biso   1.000  C
  C147     1.0000 0.17750  0.55160  0.50930  Biso   1.000  C
  C148     1.0000 0.32250  0.05160  0.99070  Biso   1.000  C
  H113     1.0000 0.81140  0.46770  0.52660  Biso   1.000  H
  H114     1.0000 0.68860  0.96770  0.97340  Biso   1.000  H
  H115     1.0000 0.18860  0.53230  0.47340  Biso   1.000  H
  H116     1.0000 0.31140  0.03230  0.02660  Biso   1.000  H
  C149     1.0000 0.65230  0.35430  0.60390  Biso   1.000  C
  C150     1.0000 0.84770  0.85430  0.89610  Biso   1.000  C
  C151     1.0000 0.34770  0.64570  0.39610  Biso   1.000  C
  C152     1.0000 0.15230  0.14570  0.10390  Biso   1.000  C
  H117     1.0000 0.62280  0.36900  0.63570  Biso   1.000  H
  H118     1.0000 0.87720  0.86900  0.86430  Biso   1.000  H
  H119     1.0000 0.37720  0.63100  0.36430  Biso   1.000  H
  H120     1.0000 0.12280  0.13100  0.13570  Biso   1.000  H
  C153     1.0000 0.86580  0.47320  0.44300  Biso   1.000  C
  C154     1.0000 0.63420  0.97320  0.05700  Biso   1.000  C
  C155     1.0000 0.13420  0.52680  0.55700  Biso   1.000  C
  C156     1.0000 0.36580  0.02680  0.94300  Biso   1.000  C
  H121     1.0000 0.88150  0.51020  0.44620  Biso   1.000  H
  H122     1.0000 0.61850  0.01020  0.05380  Biso   1.000  H
  H123     1.0000 0.11850  0.48980  0.55380  Biso   1.000  H
  H124     1.0000 0.38150  0.98980  0.94620  Biso   1.000  H
  C157     1.0000 0.03910  0.09710  0.51360  Biso   1.000  C
  C158     1.0000 0.46090  0.59710  0.98640  Biso   1.000  C
  C159     1.0000 0.96090  0.90290  0.48640  Biso   1.000  C
  C160     1.0000 0.53910  0.40290  0.01360  Biso   1.000  C
  H125     1.0000 0.04310  0.08490  0.55500  Biso   1.000  H
  H126     1.0000 0.45690  0.58490  0.94500  Biso   1.000  H
  H127     1.0000 0.95690  0.91510  0.44500  Biso   1.000  H
  H128     1.0000 0.54310  0.41510  0.05500  Biso   1.000  H
  C161     1.0000 0.69870  0.38780  0.56880  Biso   1.000  C
  C162     1.0000 0.80130  0.88780  0.93120  Biso   1.000  C
  C163     1.0000 0.30130  0.61220  0.43120  Biso   1.000  C
  C164     1.0000 0.19870  0.11220  0.06880  Biso   1.000  C
  H129     1.0000 0.69950  0.42590  0.57460  Biso   1.000  H
  H130     1.0000 0.80050  0.92590  0.92540  Biso   1.000  H
  H131     1.0000 0.30050  0.57410  0.42540  Biso   1.000  H
  H132     1.0000 0.19950  0.07410  0.07460  Biso   1.000  H
  C165     1.0000 0.10600  0.99480  0.24160  Biso   1.000  C
  C166     1.0000 0.39400  0.49480  0.25840  Biso   1.000  C
  C167     1.0000 0.89400  0.00520  0.75840  Biso   1.000  C
  C168     1.0000 0.60600  0.50520  0.74160  Biso   1.000  C
  H133     1.0000 0.11520  0.97630  0.20480  Biso   1.000  H
  H134     1.0000 0.38480  0.47630  0.29520  Biso   1.000  H
  H135     1.0000 0.88480  0.02370  0.79520  Biso   1.000  H
  H136     1.0000 0.61520  0.52370  0.70480  Biso   1.000  H
  C169     1.0000 0.76750  0.32900  0.06900  Biso   1.000  C
  C170     1.0000 0.73250  0.82900  0.43100  Biso   1.000  C
  C171     1.0000 0.23250  0.67100  0.93100  Biso   1.000  C
  C172     1.0000 0.26750  0.17100  0.56900  Biso   1.000  C
  C173     1.0000 0.90200  0.45510  0.11280  Biso   1.000  C
  C174     1.0000 0.59800  0.95510  0.38720  Biso   1.000  C
  C175     1.0000 0.09800  0.54490  0.88720  Biso   1.000  C
  C176     1.0000 0.40200  0.04490  0.61280  Biso   1.000  C
  H137     1.0000 0.92680  0.48490  0.09400  Biso   1.000  H
  H138     1.0000 0.57320  0.98490  0.40600  Biso   1.000  H
  H139     1.0000 0.07320  0.51510  0.90600  Biso   1.000  H
  H140     1.0000 0.42680  0.01510  0.59400  Biso   1.000  H
  C177     1.0000 0.85440  0.41570  0.07620  Biso   1.000  C
  C178     1.0000 0.64560  0.91570  0.42380  Biso   1.000  C
  C179     1.0000 0.14560  0.58430  0.92380  Biso   1.000  C
  C180     1.0000 0.35440  0.08430  0.57620  Biso   1.000  C
  H141     1.0000 0.84550  0.42070  0.03300  Biso   1.000  H
  H142     1.0000 0.65450  0.92070  0.46700  Biso   1.000  H
  H143     1.0000 0.15450  0.57930  0.96700  Biso   1.000  H
  H144     1.0000 0.34550  0.07930  0.53300  Biso   1.000  H
  C181     1.0000 0.71050  0.24070  0.07840  Biso   1.000  C
  C182     1.0000 0.78950  0.74070  0.42160  Biso   1.000  C
  C183     1.0000 0.28950  0.75930  0.92160  Biso   1.000  C
  C184     1.0000 0.21050  0.25930  0.57840  Biso   1.000  C
  H145     1.0000 0.69810  0.21070  0.10310  Biso   1.000  H
  H146     1.0000 0.80190  0.71070  0.39690  Biso   1.000  H
  H147     1.0000 0.30190  0.78930  0.89690  Biso   1.000  H
  H148     1.0000 0.19810  0.28930  0.60310  Biso   1.000  H
  C185     1.0000 0.91090  0.44900  0.17570  Biso   1.000  C
  C186     1.0000 0.58910  0.94900  0.32430  Biso   1.000  C
  C187     1.0000 0.08910  0.55100  0.82430  Biso   1.000  C
  C188     1.0000 0.41090  0.05100  0.67570  Biso   1.000  C
  H149     1.0000 0.93680  0.47650  0.20110  Biso   1.000  H
  H150     1.0000 0.56320  0.97650  0.29890  Biso   1.000  H
  H151     1.0000 0.06320  0.52350  0.79890  Biso   1.000  H
  H152     1.0000 0.43680  0.02350  0.70110  Biso   1.000  H
  C189     1.0000 0.74110  0.33160  0.00620  Biso   1.000  C
  C190     1.0000 0.75890  0.83160  0.49380  Biso   1.000  C
  C191     1.0000 0.25890  0.66840  0.99380  Biso   1.000  C
  C192     1.0000 0.24110  0.16840  0.50620  Biso   1.000  C
  H153     1.0000 0.74830  0.36350  0.98310  Biso   1.000  H
  H154     1.0000 0.75170  0.86350  0.51690  Biso   1.000  H
  H155     1.0000 0.25170  0.63650  0.01690  Biso   1.000  H
  H156     1.0000 0.24830  0.13650  0.48310  Biso   1.000  H
  C193     1.0000 0.70340  0.28490  0.97840  Biso   1.000  C
  C194     1.0000 0.79660  0.78490  0.52160  Biso   1.000  C
  C195     1.0000 0.29660  0.71510  0.02160  Biso   1.000  C
  C196     1.0000 0.20340  0.21510  0.47840  Biso   1.000  C
  H157     1.0000 0.69110  0.28350  0.93510  Biso   1.000  H
  H158     1.0000 0.80890  0.78350  0.56490  Biso   1.000  H
  H159     1.0000 0.30890  0.71650  0.06490  Biso   1.000  H
  H160     1.0000 0.19110  0.21650  0.43510  Biso   1.000  H
  C197     1.0000 0.68420  0.24080  0.01480  Biso   1.000  C
  C198     1.0000 0.81580  0.74080  0.48520  Biso   1.000  C
  C199     1.0000 0.31580  0.75920  0.98520  Biso   1.000  C
  C200     1.0000 0.18420  0.25920  0.51480  Biso   1.000  C
  H161     1.0000 0.65370  0.21100  0.99680  Biso   1.000  H
  H162     1.0000 0.84630  0.71100  0.50320  Biso   1.000  H
  H163     1.0000 0.34630  0.78900  0.00320  Biso   1.000  H
  H164     1.0000 0.15370  0.28900  0.49680  Biso   1.000  H
  O189     1.0000 0.98930  0.24840  0.17730  Biso   1.000  O
  O190     1.0000 0.51070  0.74840  0.32270  Biso   1.000  O
  O191     1.0000 0.01070  0.75160  0.82270  Biso   1.000  O
  O192     1.0000 0.48930  0.25160  0.67730  Biso   1.000  O
  O193     1.0000 0.30650  0.39790  0.01890  Biso   1.000  O
  O194     1.0000 0.19350  0.89790  0.48110  Biso   1.000  O
  O195     1.0000 0.69350  0.60210  0.98110  Biso   1.000  O
  O196     1.0000 0.80650  0.10210  0.51890  Biso   1.000  O
