data_image0
_cell_length_a       30.8976
_cell_length_b       16.0853
_cell_length_c       20.92
_cell_angle_alpha    90
_cell_angle_beta     124.48
_cell_angle_gamma    90

_symmetry_space_group_name_H-M    "P 1"
_symmetry_int_tables_number       1

loop_
  _symmetry_equiv_pos_as_xyz
  'x, y, z'

loop_
  _atom_site_label
  _atom_site_occupancy
  _atom_site_fract_x
  _atom_site_fract_y
  _atom_site_fract_z
  _atom_site_thermal_displace_type
  _atom_site_B_iso_or_equiv
  _atom_site_type_symbol
  Cu1      1.0000 0.51297  0.00373  0.95022  Biso   1.000  Cu
  Cu2      1.0000 0.01297  0.50373  0.95022  Biso   1.000  Cu
  Cu3      1.0000 0.48703  0.00373  0.54978  Biso   1.000  Cu
  Cu4      1.0000 0.98703  0.50373  0.54978  Biso   1.000  Cu
  Cu5      1.0000 0.48703  0.99627  0.04978  Biso   1.000  Cu
  Cu6      1.0000 0.98703  0.49627  0.04978  Biso   1.000  Cu
  Cu7      1.0000 0.51297  0.99627  0.45022  Biso   1.000  Cu
  Cu8      1.0000 0.01297  0.49627  0.45022  Biso   1.000  Cu
  Cu9      1.0000 0.69834  0.75846  0.45244  Biso   1.000  Cu
  Cu10     1.0000 0.19834  0.25846  0.45244  Biso   1.000  Cu
  Cu11     1.0000 0.30166  0.75846  0.04756  Biso   1.000  Cu
  Cu12     1.0000 0.80166  0.25846  0.04756  Biso   1.000  Cu
  Cu13     1.0000 0.30166  0.24154  0.54756  Biso   1.000  Cu
  Cu14     1.0000 0.80166  0.74154  0.54756  Biso   1.000  Cu
  Cu15     1.0000 0.69834  0.24154  0.95244  Biso   1.000  Cu
  Cu16     1.0000 0.19834  0.74154  0.95244  Biso   1.000  Cu
  O1       1.0000 0.56660  0.08060  0.02740  Biso   1.000  O
  O2       1.0000 0.06660  0.58060  0.02740  Biso   1.000  O
  O3       1.0000 0.43340  0.08060  0.47260  Biso   1.000  O
  O4       1.0000 0.93340  0.58060  0.47260  Biso   1.000  O
  O5       1.0000 0.43340  0.91940  0.97260  Biso   1.000  O
  O6       1.0000 0.93340  0.41940  0.97260  Biso   1.000  O
  O7       1.0000 0.56660  0.91940  0.52740  Biso   1.000  O
  O8       1.0000 0.06660  0.41940  0.52740  Biso   1.000  O
  O9       1.0000 0.54491  0.07420  0.11230  Biso   1.000  O
  O10      1.0000 0.04491  0.57420  0.11230  Biso   1.000  O
  O11      1.0000 0.45509  0.07420  0.38770  Biso   1.000  O
  O12      1.0000 0.95509  0.57420  0.38770  Biso   1.000  O
  O13      1.0000 0.45509  0.92580  0.88770  Biso   1.000  O
  O14      1.0000 0.95509  0.42580  0.88770  Biso   1.000  O
  O15      1.0000 0.54491  0.92580  0.61230  Biso   1.000  O
  O16      1.0000 0.04491  0.42580  0.61230  Biso   1.000  O
  O17      1.0000 0.74060  0.31550  0.28940  Biso   1.000  O
  O18      1.0000 0.24060  0.81550  0.28940  Biso   1.000  O
  O19      1.0000 0.25940  0.31550  0.21060  Biso   1.000  O
  O20      1.0000 0.75940  0.81550  0.21060  Biso   1.000  O
  O21      1.0000 0.25940  0.68450  0.71060  Biso   1.000  O
  O22      1.0000 0.75940  0.18450  0.71060  Biso   1.000  O
  O23      1.0000 0.74060  0.68450  0.78940  Biso   1.000  O
  O24      1.0000 0.24060  0.18450  0.78940  Biso   1.000  O
  O25      1.0000 0.70420  0.65990  0.40160  Biso   1.000  O
  O26      1.0000 0.20420  0.15990  0.40160  Biso   1.000  O
  O27      1.0000 0.29580  0.65990  0.09840  Biso   1.000  O
  O28      1.0000 0.79580  0.15990  0.09840  Biso   1.000  O
  O29      1.0000 0.29580  0.34010  0.59840  Biso   1.000  O
  O30      1.0000 0.79580  0.84010  0.59840  Biso   1.000  O
  O31      1.0000 0.70420  0.34010  0.90160  Biso   1.000  O
  O32      1.0000 0.20420  0.84010  0.90160  Biso   1.000  O
  O33      1.0000 0.79220  0.64550  0.48270  Biso   1.000  O
  O34      1.0000 0.29220  0.14550  0.48270  Biso   1.000  O
  O35      1.0000 0.20780  0.64550  0.01730  Biso   1.000  O
  O36      1.0000 0.70780  0.14550  0.01730  Biso   1.000  O
  O37      1.0000 0.20780  0.35450  0.51730  Biso   1.000  O
  O38      1.0000 0.70780  0.85450  0.51730  Biso   1.000  O
  O39      1.0000 0.79220  0.35450  0.98270  Biso   1.000  O
  O40      1.0000 0.29220  0.85450  0.98270  Biso   1.000  O
  O41      1.0000 0.46280  0.09590  0.90200  Biso   1.000  O
  O42      1.0000 0.96280  0.59590  0.90200  Biso   1.000  O
  O43      1.0000 0.53720  0.09590  0.59800  Biso   1.000  O
  O44      1.0000 0.03720  0.59590  0.59800  Biso   1.000  O
  O45      1.0000 0.53720  0.90410  0.09800  Biso   1.000  O
  O46      1.0000 0.03720  0.40410  0.09800  Biso   1.000  O
  O47      1.0000 0.46280  0.90410  0.40200  Biso   1.000  O
  O48      1.0000 0.96280  0.40410  0.40200  Biso   1.000  O
  O49      1.0000 0.29120  0.37820  0.77550  Biso   1.000  O
  O50      1.0000 0.79120  0.87820  0.77550  Biso   1.000  O
  O51      1.0000 0.70880  0.37820  0.72450  Biso   1.000  O
  O52      1.0000 0.20880  0.87820  0.72450  Biso   1.000  O
  O53      1.0000 0.70880  0.62180  0.22450  Biso   1.000  O
  O54      1.0000 0.20880  0.12180  0.22450  Biso   1.000  O
  O55      1.0000 0.29120  0.62180  0.27550  Biso   1.000  O
  O56      1.0000 0.79120  0.12180  0.27550  Biso   1.000  O
  O57      1.0000 0.29810  0.68160  0.97200  Biso   1.000  O
  O58      1.0000 0.79810  0.18160  0.97200  Biso   1.000  O
  O59      1.0000 0.70190  0.68160  0.52800  Biso   1.000  O
  O60      1.0000 0.20190  0.18160  0.52800  Biso   1.000  O
  O61      1.0000 0.70190  0.31840  0.02800  Biso   1.000  O
  O62      1.0000 0.20190  0.81840  0.02800  Biso   1.000  O
  O63      1.0000 0.29810  0.31840  0.47200  Biso   1.000  O
  O64      1.0000 0.79810  0.81840  0.47200  Biso   1.000  O
  O65      1.0000 0.21100  0.66510  0.89140  Biso   1.000  O
  O66      1.0000 0.71100  0.16510  0.89140  Biso   1.000  O
  O67      1.0000 0.78900  0.66510  0.60860  Biso   1.000  O
  O68      1.0000 0.28900  0.16510  0.60860  Biso   1.000  O
  O69      1.0000 0.78900  0.33490  0.10860  Biso   1.000  O
  O70      1.0000 0.28900  0.83490  0.10860  Biso   1.000  O
  O71      1.0000 0.21100  0.33490  0.39140  Biso   1.000  O
  O72      1.0000 0.71100  0.83490  0.39140  Biso   1.000  O
  O73      1.0000 0.53889  0.00610  0.87430  Biso   1.000  O
  O74      1.0000 0.03889  0.50610  0.87430  Biso   1.000  O
  O75      1.0000 0.46111  0.00610  0.62570  Biso   1.000  O
  O76      1.0000 0.96111  0.50610  0.62570  Biso   1.000  O
  O77      1.0000 0.46111  0.99390  0.12570  Biso   1.000  O
  O78      1.0000 0.96111  0.49390  0.12570  Biso   1.000  O
  O79      1.0000 0.53889  0.99390  0.37430  Biso   1.000  O
  O80      1.0000 0.03889  0.49390  0.37430  Biso   1.000  O
  N1       1.0000 0.60660  0.98670  0.86170  Biso   1.000  N
  N2       1.0000 0.10660  0.48670  0.86170  Biso   1.000  N
  N3       1.0000 0.39340  0.98670  0.63830  Biso   1.000  N
  N4       1.0000 0.89340  0.48670  0.63830  Biso   1.000  N
  N5       1.0000 0.39340  0.01330  0.13830  Biso   1.000  N
  N6       1.0000 0.89340  0.51330  0.13830  Biso   1.000  N
  N7       1.0000 0.60660  0.01330  0.36170  Biso   1.000  N
  N8       1.0000 0.10660  0.51330  0.36170  Biso   1.000  N
  C1       1.0000 0.57270  0.10010  0.09020  Biso   1.000  C
  C2       1.0000 0.07270  0.60010  0.09020  Biso   1.000  C
  C3       1.0000 0.42730  0.10010  0.40980  Biso   1.000  C
  C4       1.0000 0.92730  0.60010  0.40980  Biso   1.000  C
  C5       1.0000 0.42730  0.89990  0.90980  Biso   1.000  C
  C6       1.0000 0.92730  0.39990  0.90980  Biso   1.000  C
  C7       1.0000 0.57270  0.89990  0.59020  Biso   1.000  C
  C8       1.0000 0.07270  0.39990  0.59020  Biso   1.000  C
  C9       1.0000 0.61500  0.15990  0.14120  Biso   1.000  C
  C10      1.0000 0.11500  0.65990  0.14120  Biso   1.000  C
  C11      1.0000 0.38500  0.15990  0.35880  Biso   1.000  C
  C12      1.0000 0.88500  0.65990  0.35880  Biso   1.000  C
  C13      1.0000 0.38500  0.84010  0.85880  Biso   1.000  C
  C14      1.0000 0.88500  0.34010  0.85880  Biso   1.000  C
  C15      1.0000 0.61500  0.84010  0.64120  Biso   1.000  C
  C16      1.0000 0.11500  0.34010  0.64120  Biso   1.000  C
  C17      1.0000 0.64980  0.18880  0.12390  Biso   1.000  C
  C18      1.0000 0.14980  0.68880  0.12390  Biso   1.000  C
  C19      1.0000 0.35020  0.18880  0.37610  Biso   1.000  C
  C20      1.0000 0.85020  0.68880  0.37610  Biso   1.000  C
  C21      1.0000 0.35020  0.81120  0.87610  Biso   1.000  C
  C22      1.0000 0.85020  0.31120  0.87610  Biso   1.000  C
  C23      1.0000 0.64980  0.81120  0.62390  Biso   1.000  C
  C24      1.0000 0.14980  0.31120  0.62390  Biso   1.000  C
  H1       1.0000 0.64550  0.17180  0.07710  Biso   1.000  H
  H2       1.0000 0.14550  0.67180  0.07710  Biso   1.000  H
  H3       1.0000 0.35450  0.17180  0.42290  Biso   1.000  H
  H4       1.0000 0.85450  0.67180  0.42290  Biso   1.000  H
  H5       1.0000 0.35450  0.82820  0.92290  Biso   1.000  H
  H6       1.0000 0.85450  0.32820  0.92290  Biso   1.000  H
  H7       1.0000 0.64550  0.82820  0.57710  Biso   1.000  H
  H8       1.0000 0.14550  0.32820  0.57710  Biso   1.000  H
  C25      1.0000 0.69030  0.24160  0.17350  Biso   1.000  C
  C26      1.0000 0.19030  0.74160  0.17350  Biso   1.000  C
  C27      1.0000 0.30970  0.24160  0.32650  Biso   1.000  C
  C28      1.0000 0.80970  0.74160  0.32650  Biso   1.000  C
  C29      1.0000 0.30970  0.75840  0.82650  Biso   1.000  C
  C30      1.0000 0.80970  0.25840  0.82650  Biso   1.000  C
  C31      1.0000 0.69030  0.75840  0.67350  Biso   1.000  C
  C32      1.0000 0.19030  0.25840  0.67350  Biso   1.000  C
  H9       1.0000 0.71390  0.26020  0.16110  Biso   1.000  H
  H10      1.0000 0.21390  0.76020  0.16110  Biso   1.000  H
  H11      1.0000 0.28610  0.26020  0.33890  Biso   1.000  H
  H12      1.0000 0.78610  0.76020  0.33890  Biso   1.000  H
  H13      1.0000 0.28610  0.73980  0.83890  Biso   1.000  H
  H14      1.0000 0.78610  0.23980  0.83890  Biso   1.000  H
  H15      1.0000 0.71390  0.73980  0.66110  Biso   1.000  H
  H16      1.0000 0.21390  0.23980  0.66110  Biso   1.000  H
  C33      1.0000 0.69680  0.26750  0.24100  Biso   1.000  C
  C34      1.0000 0.19680  0.76750  0.24100  Biso   1.000  C
  C35      1.0000 0.30320  0.26750  0.25900  Biso   1.000  C
  C36      1.0000 0.80320  0.76750  0.25900  Biso   1.000  C
  C37      1.0000 0.30320  0.73250  0.75900  Biso   1.000  C
  C38      1.0000 0.80320  0.23250  0.75900  Biso   1.000  C
  C39      1.0000 0.69680  0.73250  0.74100  Biso   1.000  C
  C40      1.0000 0.19680  0.23250  0.74100  Biso   1.000  C
  C41      1.0000 0.66300  0.24200  0.25910  Biso   1.000  C
  C42      1.0000 0.16300  0.74200  0.25910  Biso   1.000  C
  C43      1.0000 0.33700  0.24200  0.24090  Biso   1.000  C
  C44      1.0000 0.83700  0.74200  0.24090  Biso   1.000  C
  C45      1.0000 0.33700  0.75800  0.74090  Biso   1.000  C
  C46      1.0000 0.83700  0.25800  0.74090  Biso   1.000  C
  C47      1.0000 0.66300  0.75800  0.75910  Biso   1.000  C
  C48      1.0000 0.16300  0.25800  0.75910  Biso   1.000  C
  H17      1.0000 0.66720  0.26130  0.30520  Biso   1.000  H
  H18      1.0000 0.16720  0.76130  0.30520  Biso   1.000  H
  H19      1.0000 0.33280  0.26130  0.19480  Biso   1.000  H
  H20      1.0000 0.83280  0.76130  0.19480  Biso   1.000  H
  H21      1.0000 0.33280  0.73870  0.69480  Biso   1.000  H
  H22      1.0000 0.83280  0.23870  0.69480  Biso   1.000  H
  H23      1.0000 0.66720  0.73870  0.80520  Biso   1.000  H
  H24      1.0000 0.16720  0.23870  0.80520  Biso   1.000  H
  C49      1.0000 0.62180  0.18680  0.20950  Biso   1.000  C
  C50      1.0000 0.12180  0.68680  0.20950  Biso   1.000  C
  C51      1.0000 0.37820  0.18680  0.29050  Biso   1.000  C
  C52      1.0000 0.87820  0.68680  0.29050  Biso   1.000  C
  C53      1.0000 0.37820  0.81320  0.79050  Biso   1.000  C
  C54      1.0000 0.87820  0.31320  0.79050  Biso   1.000  C
  C55      1.0000 0.62180  0.81320  0.70950  Biso   1.000  C
  C56      1.0000 0.12180  0.31320  0.70950  Biso   1.000  C
  H25      1.0000 0.59870  0.16800  0.22270  Biso   1.000  H
  H26      1.0000 0.09870  0.66800  0.22270  Biso   1.000  H
  H27      1.0000 0.40130  0.16800  0.27730  Biso   1.000  H
  H28      1.0000 0.90130  0.66800  0.27730  Biso   1.000  H
  H29      1.0000 0.40130  0.83200  0.77730  Biso   1.000  H
  H30      1.0000 0.90130  0.33200  0.77730  Biso   1.000  H
  H31      1.0000 0.59870  0.83200  0.72270  Biso   1.000  H
  H32      1.0000 0.09870  0.33200  0.72270  Biso   1.000  H
  C57      1.0000 0.73800  0.38930  0.32150  Biso   1.000  C
  C58      1.0000 0.23800  0.88930  0.32150  Biso   1.000  C
  C59      1.0000 0.26200  0.38930  0.17850  Biso   1.000  C
  C60      1.0000 0.76200  0.88930  0.17850  Biso   1.000  C
  C61      1.0000 0.26200  0.61070  0.67850  Biso   1.000  C
  C62      1.0000 0.76200  0.11070  0.67850  Biso   1.000  C
  C63      1.0000 0.73800  0.61070  0.82150  Biso   1.000  C
  C64      1.0000 0.23800  0.11070  0.82150  Biso   1.000  C
  C65      1.0000 0.78580  0.42420  0.37390  Biso   1.000  C
  C66      1.0000 0.28580  0.92420  0.37390  Biso   1.000  C
  C67      1.0000 0.21420  0.42420  0.12610  Biso   1.000  C
  C68      1.0000 0.71420  0.92420  0.12610  Biso   1.000  C
  C69      1.0000 0.21420  0.57580  0.62610  Biso   1.000  C
  C70      1.0000 0.71420  0.07580  0.62610  Biso   1.000  C
  C71      1.0000 0.78580  0.57580  0.87390  Biso   1.000  C
  C72      1.0000 0.28580  0.07580  0.87390  Biso   1.000  C
  H33      1.0000 0.81700  0.39660  0.38690  Biso   1.000  H
  H34      1.0000 0.31700  0.89660  0.38690  Biso   1.000  H
  H35      1.0000 0.18300  0.39660  0.11310  Biso   1.000  H
  H36      1.0000 0.68300  0.89660  0.11310  Biso   1.000  H
  H37      1.0000 0.18300  0.60340  0.61310  Biso   1.000  H
  H38      1.0000 0.68300  0.10340  0.61310  Biso   1.000  H
  H39      1.0000 0.81700  0.60340  0.88690  Biso   1.000  H
  H40      1.0000 0.31700  0.10340  0.88690  Biso   1.000  H
  C73      1.0000 0.78910  0.49990  0.40830  Biso   1.000  C
  C74      1.0000 0.28910  0.99990  0.40830  Biso   1.000  C
  C75      1.0000 0.21090  0.49990  0.09170  Biso   1.000  C
  C76      1.0000 0.71090  0.99990  0.09170  Biso   1.000  C
  C77      1.0000 0.21090  0.50010  0.59170  Biso   1.000  C
  C78      1.0000 0.71090  0.00010  0.59170  Biso   1.000  C
  C79      1.0000 0.78910  0.50010  0.90830  Biso   1.000  C
  C80      1.0000 0.28910  0.00010  0.90830  Biso   1.000  C
  H41      1.0000 0.82240  0.52330  0.44590  Biso   1.000  H
  H42      1.0000 0.32240  0.02330  0.44590  Biso   1.000  H
  H43      1.0000 0.17760  0.52330  0.05410  Biso   1.000  H
  H44      1.0000 0.67760  0.02330  0.05410  Biso   1.000  H
  H45      1.0000 0.17760  0.47670  0.55410  Biso   1.000  H
  H46      1.0000 0.67760  0.97670  0.55410  Biso   1.000  H
  H47      1.0000 0.82240  0.47670  0.94590  Biso   1.000  H
  H48      1.0000 0.32240  0.97670  0.94590  Biso   1.000  H
  C81      1.0000 0.74310  0.54140  0.38740  Biso   1.000  C
  C82      1.0000 0.24310  0.04140  0.38740  Biso   1.000  C
  C83      1.0000 0.25690  0.54140  0.11260  Biso   1.000  C
  C84      1.0000 0.75690  0.04140  0.11260  Biso   1.000  C
  C85      1.0000 0.25690  0.45860  0.61260  Biso   1.000  C
  C86      1.0000 0.75690  0.95860  0.61260  Biso   1.000  C
  C87      1.0000 0.74310  0.45860  0.88740  Biso   1.000  C
  C88      1.0000 0.24310  0.95860  0.88740  Biso   1.000  C
  C89      1.0000 0.69520  0.50580  0.33240  Biso   1.000  C
  C90      1.0000 0.19520  0.00580  0.33240  Biso   1.000  C
  C91      1.0000 0.30480  0.50580  0.16760  Biso   1.000  C
  C92      1.0000 0.80480  0.00580  0.16760  Biso   1.000  C
  C93      1.0000 0.30480  0.49420  0.66760  Biso   1.000  C
  C94      1.0000 0.80480  0.99420  0.66760  Biso   1.000  C
  C95      1.0000 0.69520  0.49420  0.83240  Biso   1.000  C
  C96      1.0000 0.19520  0.99420  0.83240  Biso   1.000  C
  H49      1.0000 0.66370  0.53360  0.31750  Biso   1.000  H
  H50      1.0000 0.16370  0.03360  0.31750  Biso   1.000  H
  H51      1.0000 0.33630  0.53360  0.18250  Biso   1.000  H
  H52      1.0000 0.83630  0.03360  0.18250  Biso   1.000  H
  H53      1.0000 0.33630  0.46640  0.68250  Biso   1.000  H
  H54      1.0000 0.83630  0.96640  0.68250  Biso   1.000  H
  H55      1.0000 0.66370  0.46640  0.81750  Biso   1.000  H
  H56      1.0000 0.16370  0.96640  0.81750  Biso   1.000  H
  C97      1.0000 0.69270  0.43030  0.29880  Biso   1.000  C
  C98      1.0000 0.19270  0.93030  0.29880  Biso   1.000  C
  C99      1.0000 0.30730  0.43030  0.20120  Biso   1.000  C
  C100     1.0000 0.80730  0.93030  0.20120  Biso   1.000  C
  C101     1.0000 0.30730  0.56970  0.70120  Biso   1.000  C
  C102     1.0000 0.80730  0.06970  0.70120  Biso   1.000  C
  C103     1.0000 0.69270  0.56970  0.79880  Biso   1.000  C
  C104     1.0000 0.19270  0.06970  0.79880  Biso   1.000  C
  H57      1.0000 0.65960  0.40690  0.26020  Biso   1.000  H
  H58      1.0000 0.15960  0.90690  0.26020  Biso   1.000  H
  H59      1.0000 0.34040  0.40690  0.23980  Biso   1.000  H
  H60      1.0000 0.84040  0.90690  0.23980  Biso   1.000  H
  H61      1.0000 0.34040  0.59310  0.73980  Biso   1.000  H
  H62      1.0000 0.84040  0.09310  0.73980  Biso   1.000  H
  H63      1.0000 0.65960  0.59310  0.76020  Biso   1.000  H
  H64      1.0000 0.15960  0.09310  0.76020  Biso   1.000  H
  C105     1.0000 0.74680  0.62290  0.42740  Biso   1.000  C
  C106     1.0000 0.24680  0.12290  0.42740  Biso   1.000  C
  C107     1.0000 0.25320  0.62290  0.07260  Biso   1.000  C
  C108     1.0000 0.75320  0.12290  0.07260  Biso   1.000  C
  C109     1.0000 0.25320  0.37710  0.57260  Biso   1.000  C
  C110     1.0000 0.75320  0.87710  0.57260  Biso   1.000  C
  C111     1.0000 0.74680  0.37710  0.92740  Biso   1.000  C
  C112     1.0000 0.24680  0.87710  0.92740  Biso   1.000  C
  O81      1.0000 0.44210  0.09050  0.98930  Biso   1.000  O
  O82      1.0000 0.94210  0.59050  0.98930  Biso   1.000  O
  O83      1.0000 0.55790  0.09050  0.51070  Biso   1.000  O
  O84      1.0000 0.05790  0.59050  0.51070  Biso   1.000  O
  O85      1.0000 0.55790  0.90950  0.01070  Biso   1.000  O
  O86      1.0000 0.05790  0.40950  0.01070  Biso   1.000  O
  O87      1.0000 0.44210  0.90950  0.48930  Biso   1.000  O
  O88      1.0000 0.94210  0.40950  0.48930  Biso   1.000  O
  C113     1.0000 0.40130  0.19150  0.89180  Biso   1.000  C
  C114     1.0000 0.90130  0.69150  0.89180  Biso   1.000  C
  C115     1.0000 0.59870  0.19150  0.60820  Biso   1.000  C
  C116     1.0000 0.09870  0.69150  0.60820  Biso   1.000  C
  C117     1.0000 0.59870  0.80850  0.10820  Biso   1.000  C
  C118     1.0000 0.09870  0.30850  0.10820  Biso   1.000  C
  C119     1.0000 0.40130  0.80850  0.39180  Biso   1.000  C
  C120     1.0000 0.90130  0.30850  0.39180  Biso   1.000  C
  C121     1.0000 0.38370  0.23610  0.93030  Biso   1.000  C
  C122     1.0000 0.88370  0.73610  0.93030  Biso   1.000  C
  C123     1.0000 0.61630  0.23610  0.56970  Biso   1.000  C
  C124     1.0000 0.11630  0.73610  0.56970  Biso   1.000  C
  C125     1.0000 0.61630  0.76390  0.06970  Biso   1.000  C
  C126     1.0000 0.11630  0.26390  0.06970  Biso   1.000  C
  C127     1.0000 0.38370  0.76390  0.43030  Biso   1.000  C
  C128     1.0000 0.88370  0.26390  0.43030  Biso   1.000  C
  H65      1.0000 0.39660  0.22190  0.98230  Biso   1.000  H
  H66      1.0000 0.89660  0.72190  0.98230  Biso   1.000  H
  H67      1.0000 0.60340  0.22190  0.51770  Biso   1.000  H
  H68      1.0000 0.10340  0.72190  0.51770  Biso   1.000  H
  H69      1.0000 0.60340  0.77810  0.01770  Biso   1.000  H
  H70      1.0000 0.10340  0.27810  0.01770  Biso   1.000  H
  H71      1.0000 0.39660  0.77810  0.48230  Biso   1.000  H
  H72      1.0000 0.89660  0.27810  0.48230  Biso   1.000  H
  C129     1.0000 0.34850  0.29950  0.89500  Biso   1.000  C
  C130     1.0000 0.84850  0.79950  0.89500  Biso   1.000  C
  C131     1.0000 0.65150  0.29950  0.60500  Biso   1.000  C
  C132     1.0000 0.15150  0.79950  0.60500  Biso   1.000  C
  C133     1.0000 0.65150  0.70050  0.10500  Biso   1.000  C
  C134     1.0000 0.15150  0.20050  0.10500  Biso   1.000  C
  C135     1.0000 0.34850  0.70050  0.39500  Biso   1.000  C
  C136     1.0000 0.84850  0.20050  0.39500  Biso   1.000  C
  H73      1.0000 0.33740  0.32980  0.92220  Biso   1.000  H
  H74      1.0000 0.83740  0.82980  0.92220  Biso   1.000  H
  H75      1.0000 0.66260  0.32980  0.57780  Biso   1.000  H
  H76      1.0000 0.16260  0.82980  0.57780  Biso   1.000  H
  H77      1.0000 0.66260  0.67020  0.07780  Biso   1.000  H
  H78      1.0000 0.16260  0.17020  0.07780  Biso   1.000  H
  H79      1.0000 0.33740  0.67020  0.42220  Biso   1.000  H
  H80      1.0000 0.83740  0.17020  0.42220  Biso   1.000  H
  C137     1.0000 0.32890  0.31920  0.81750  Biso   1.000  C
  C138     1.0000 0.82890  0.81920  0.81750  Biso   1.000  C
  C139     1.0000 0.67110  0.31920  0.68250  Biso   1.000  C
  C140     1.0000 0.17110  0.81920  0.68250  Biso   1.000  C
  C141     1.0000 0.67110  0.68080  0.18250  Biso   1.000  C
  C142     1.0000 0.17110  0.18080  0.18250  Biso   1.000  C
  C143     1.0000 0.32890  0.68080  0.31750  Biso   1.000  C
  C144     1.0000 0.82890  0.18080  0.31750  Biso   1.000  C
  C145     1.0000 0.34740  0.27810  0.77990  Biso   1.000  C
  C146     1.0000 0.84740  0.77810  0.77990  Biso   1.000  C
  C147     1.0000 0.65260  0.27810  0.72010  Biso   1.000  C
  C148     1.0000 0.15260  0.77810  0.72010  Biso   1.000  C
  C149     1.0000 0.65260  0.72190  0.22010  Biso   1.000  C
  C150     1.0000 0.15260  0.22190  0.22010  Biso   1.000  C
  C151     1.0000 0.34740  0.72190  0.27990  Biso   1.000  C
  C152     1.0000 0.84740  0.22190  0.27990  Biso   1.000  C
  H81      1.0000 0.33580  0.29390  0.72880  Biso   1.000  H
  H82      1.0000 0.83580  0.79390  0.72880  Biso   1.000  H
  H83      1.0000 0.66420  0.29390  0.77120  Biso   1.000  H
  H84      1.0000 0.16420  0.79390  0.77120  Biso   1.000  H
  H85      1.0000 0.66420  0.70610  0.27120  Biso   1.000  H
  H86      1.0000 0.16420  0.20610  0.27120  Biso   1.000  H
  H87      1.0000 0.33580  0.70610  0.22880  Biso   1.000  H
  H88      1.0000 0.83580  0.20610  0.22880  Biso   1.000  H
  C153     1.0000 0.38260  0.21370  0.81660  Biso   1.000  C
  C154     1.0000 0.88260  0.71370  0.81660  Biso   1.000  C
  C155     1.0000 0.61740  0.21370  0.68340  Biso   1.000  C
  C156     1.0000 0.11740  0.71370  0.68340  Biso   1.000  C
  C157     1.0000 0.61740  0.78630  0.18340  Biso   1.000  C
  C158     1.0000 0.11740  0.28630  0.18340  Biso   1.000  C
  C159     1.0000 0.38260  0.78630  0.31660  Biso   1.000  C
  C160     1.0000 0.88260  0.28630  0.31660  Biso   1.000  C
  H89      1.0000 0.39430  0.18410  0.78960  Biso   1.000  H
  H90      1.0000 0.89430  0.68410  0.78960  Biso   1.000  H
  H91      1.0000 0.60570  0.18410  0.71040  Biso   1.000  H
  H92      1.0000 0.10570  0.68410  0.71040  Biso   1.000  H
  H93      1.0000 0.60570  0.81590  0.21040  Biso   1.000  H
  H94      1.0000 0.10570  0.31590  0.21040  Biso   1.000  H
  H95      1.0000 0.39430  0.81590  0.28960  Biso   1.000  H
  H96      1.0000 0.89430  0.31590  0.28960  Biso   1.000  H
  C161     1.0000 0.28510  0.44470  0.81250  Biso   1.000  C
  C162     1.0000 0.78510  0.94470  0.81250  Biso   1.000  C
  C163     1.0000 0.71490  0.44470  0.68750  Biso   1.000  C
  C164     1.0000 0.21490  0.94470  0.68750  Biso   1.000  C
  C165     1.0000 0.71490  0.55530  0.18750  Biso   1.000  C
  C166     1.0000 0.21490  0.05530  0.18750  Biso   1.000  C
  C167     1.0000 0.28510  0.55530  0.31250  Biso   1.000  C
  C168     1.0000 0.78510  0.05530  0.31250  Biso   1.000  C
  C169     1.0000 0.32720  0.49000  0.87190  Biso   1.000  C
  C170     1.0000 0.82720  0.99000  0.87190  Biso   1.000  C
  C171     1.0000 0.67280  0.49000  0.62810  Biso   1.000  C
  C172     1.0000 0.17280  0.99000  0.62810  Biso   1.000  C
  C173     1.0000 0.67280  0.51000  0.12810  Biso   1.000  C
  C174     1.0000 0.17280  0.01000  0.12810  Biso   1.000  C
  C175     1.0000 0.32720  0.51000  0.37190  Biso   1.000  C
  C176     1.0000 0.82720  0.01000  0.37190  Biso   1.000  C
  H97      1.0000 0.36230  0.47570  0.89030  Biso   1.000  H
  H98      1.0000 0.86230  0.97570  0.89030  Biso   1.000  H
  H99      1.0000 0.63770  0.47570  0.60970  Biso   1.000  H
  H100     1.0000 0.13770  0.97570  0.60970  Biso   1.000  H
  H101     1.0000 0.63770  0.52430  0.10970  Biso   1.000  H
  H102     1.0000 0.13770  0.02430  0.10970  Biso   1.000  H
  H103     1.0000 0.36230  0.52430  0.39030  Biso   1.000  H
  H104     1.0000 0.86230  0.02430  0.39030  Biso   1.000  H
  C177     1.0000 0.31710  0.55530  0.90320  Biso   1.000  C
  C178     1.0000 0.81710  0.05530  0.90320  Biso   1.000  C
  C179     1.0000 0.68290  0.55530  0.59680  Biso   1.000  C
  C180     1.0000 0.18290  0.05530  0.59680  Biso   1.000  C
  C181     1.0000 0.68290  0.44470  0.09680  Biso   1.000  C
  C182     1.0000 0.18290  0.94470  0.09680  Biso   1.000  C
  C183     1.0000 0.31710  0.44470  0.40320  Biso   1.000  C
  C184     1.0000 0.81710  0.94470  0.40320  Biso   1.000  C
  H105     1.0000 0.34560  0.58510  0.94520  Biso   1.000  H
  H106     1.0000 0.84560  0.08510  0.94520  Biso   1.000  H
  H107     1.0000 0.65440  0.58510  0.55480  Biso   1.000  H
  H108     1.0000 0.15440  0.08510  0.55480  Biso   1.000  H
  H109     1.0000 0.65440  0.41490  0.05480  Biso   1.000  H
  H110     1.0000 0.15440  0.91490  0.05480  Biso   1.000  H
  H111     1.0000 0.34560  0.41490  0.44520  Biso   1.000  H
  H112     1.0000 0.84560  0.91490  0.44520  Biso   1.000  H
  C185     1.0000 0.26600  0.57940  0.87530  Biso   1.000  C
  C186     1.0000 0.76600  0.07940  0.87530  Biso   1.000  C
  C187     1.0000 0.73400  0.57940  0.62470  Biso   1.000  C
  C188     1.0000 0.23400  0.07940  0.62470  Biso   1.000  C
  C189     1.0000 0.73400  0.42060  0.12470  Biso   1.000  C
  C190     1.0000 0.23400  0.92060  0.12470  Biso   1.000  C
  C191     1.0000 0.26600  0.42060  0.37530  Biso   1.000  C
  C192     1.0000 0.76600  0.92060  0.37530  Biso   1.000  C
  C193     1.0000 0.22530  0.53660  0.81480  Biso   1.000  C
  C194     1.0000 0.72530  0.03660  0.81480  Biso   1.000  C
  C195     1.0000 0.77470  0.53660  0.68520  Biso   1.000  C
  C196     1.0000 0.27470  0.03660  0.68520  Biso   1.000  C
  C197     1.0000 0.77470  0.46340  0.18520  Biso   1.000  C
  C198     1.0000 0.27470  0.96340  0.18520  Biso   1.000  C
  C199     1.0000 0.22530  0.46340  0.31480  Biso   1.000  C
  C200     1.0000 0.72530  0.96340  0.31480  Biso   1.000  C
  H113     1.0000 0.19040  0.55420  0.79360  Biso   1.000  H
  H114     1.0000 0.69040  0.05420  0.79360  Biso   1.000  H
  H115     1.0000 0.80960  0.55420  0.70640  Biso   1.000  H
  H116     1.0000 0.30960  0.05420  0.70640  Biso   1.000  H
  H117     1.0000 0.80960  0.44580  0.20640  Biso   1.000  H
  H118     1.0000 0.30960  0.94580  0.20640  Biso   1.000  H
  H119     1.0000 0.19040  0.44580  0.29360  Biso   1.000  H
  H120     1.0000 0.69040  0.94580  0.29360  Biso   1.000  H
  C201     1.0000 0.23400  0.46740  0.78310  Biso   1.000  C
  C202     1.0000 0.73400  0.96740  0.78310  Biso   1.000  C
  C203     1.0000 0.76600  0.46740  0.71690  Biso   1.000  C
  C204     1.0000 0.26600  0.96740  0.71690  Biso   1.000  C
  C205     1.0000 0.76600  0.53260  0.21690  Biso   1.000  C
  C206     1.0000 0.26600  0.03260  0.21690  Biso   1.000  C
  C207     1.0000 0.23400  0.53260  0.28310  Biso   1.000  C
  C208     1.0000 0.73400  0.03260  0.28310  Biso   1.000  C
  H121     1.0000 0.20530  0.43670  0.74220  Biso   1.000  H
  H122     1.0000 0.70530  0.93670  0.74220  Biso   1.000  H
  H123     1.0000 0.79470  0.43670  0.75780  Biso   1.000  H
  H124     1.0000 0.29470  0.93670  0.75780  Biso   1.000  H
  H125     1.0000 0.79470  0.56330  0.25780  Biso   1.000  H
  H126     1.0000 0.29470  0.06330  0.25780  Biso   1.000  H
  H127     1.0000 0.20530  0.56330  0.24220  Biso   1.000  H
  H128     1.0000 0.70530  0.06330  0.24220  Biso   1.000  H
  C209     1.0000 0.25750  0.64740  0.91550  Biso   1.000  C
  C210     1.0000 0.75750  0.14740  0.91550  Biso   1.000  C
  C211     1.0000 0.74250  0.64740  0.58450  Biso   1.000  C
  C212     1.0000 0.24250  0.14740  0.58450  Biso   1.000  C
  C213     1.0000 0.74250  0.35260  0.08450  Biso   1.000  C
  C214     1.0000 0.24250  0.85260  0.08450  Biso   1.000  C
  C215     1.0000 0.25750  0.35260  0.41550  Biso   1.000  C
  C216     1.0000 0.75750  0.85260  0.41550  Biso   1.000  C
  C217     1.0000 0.58100  0.97760  0.89530  Biso   1.000  C
  C218     1.0000 0.08100  0.47760  0.89530  Biso   1.000  C
  C219     1.0000 0.41900  0.97760  0.60470  Biso   1.000  C
  C220     1.0000 0.91900  0.47760  0.60470  Biso   1.000  C
  C221     1.0000 0.41900  0.02240  0.10470  Biso   1.000  C
  C222     1.0000 0.91900  0.52240  0.10470  Biso   1.000  C
  C223     1.0000 0.58100  0.02240  0.39530  Biso   1.000  C
  C224     1.0000 0.08100  0.52240  0.39530  Biso   1.000  C
  H129     1.0000 0.59800  0.94480  0.94110  Biso   1.000  H
  H130     1.0000 0.09800  0.44480  0.94110  Biso   1.000  H
  H131     1.0000 0.40200  0.94480  0.55890  Biso   1.000  H
  H132     1.0000 0.90200  0.44480  0.55890  Biso   1.000  H
  H133     1.0000 0.40200  0.05520  0.05890  Biso   1.000  H
  H134     1.0000 0.90200  0.55520  0.05890  Biso   1.000  H
  H135     1.0000 0.59800  0.05520  0.44110  Biso   1.000  H
  H136     1.0000 0.09800  0.55520  0.44110  Biso   1.000  H
  C225     1.0000 0.58500  0.03410  0.79130  Biso   1.000  C
  C226     1.0000 0.08500  0.53410  0.79130  Biso   1.000  C
  C227     1.0000 0.41500  0.03410  0.70870  Biso   1.000  C
  C228     1.0000 0.91500  0.53410  0.70870  Biso   1.000  C
  C229     1.0000 0.41500  0.96590  0.20870  Biso   1.000  C
  C230     1.0000 0.91500  0.46590  0.20870  Biso   1.000  C
  C231     1.0000 0.58500  0.96590  0.29130  Biso   1.000  C
  C232     1.0000 0.08500  0.46590  0.29130  Biso   1.000  C
  H137     1.0000 0.55030  0.05540  0.77440  Biso   1.000  H
  H138     1.0000 0.05030  0.55540  0.77440  Biso   1.000  H
  H139     1.0000 0.44970  0.05540  0.72560  Biso   1.000  H
  H140     1.0000 0.94970  0.55540  0.72560  Biso   1.000  H
  H141     1.0000 0.44970  0.94460  0.22560  Biso   1.000  H
  H142     1.0000 0.94970  0.44460  0.22560  Biso   1.000  H
  H143     1.0000 0.55030  0.94460  0.27440  Biso   1.000  H
  H144     1.0000 0.05030  0.44460  0.27440  Biso   1.000  H
  H145     1.0000 0.58160  0.99830  0.75080  Biso   1.000  H
  H146     1.0000 0.08160  0.49830  0.75080  Biso   1.000  H
  H147     1.0000 0.41840  0.99830  0.74920  Biso   1.000  H
  H148     1.0000 0.91840  0.49830  0.74920  Biso   1.000  H
  H149     1.0000 0.41840  0.00170  0.24920  Biso   1.000  H
  H150     1.0000 0.91840  0.50170  0.24920  Biso   1.000  H
  H151     1.0000 0.58160  0.00170  0.25080  Biso   1.000  H
  H152     1.0000 0.08160  0.50170  0.25080  Biso   1.000  H
  H153     1.0000 0.60840  0.08070  0.80090  Biso   1.000  H
  H154     1.0000 0.10840  0.58070  0.80090  Biso   1.000  H
  H155     1.0000 0.39160  0.08070  0.69910  Biso   1.000  H
  H156     1.0000 0.89160  0.58070  0.69910  Biso   1.000  H
  H157     1.0000 0.39160  0.91930  0.19910  Biso   1.000  H
  H158     1.0000 0.89160  0.41930  0.19910  Biso   1.000  H
  H159     1.0000 0.60840  0.91930  0.30090  Biso   1.000  H
  H160     1.0000 0.10840  0.41930  0.30090  Biso   1.000  H
  C233     1.0000 0.65800  0.95250  0.89360  Biso   1.000  C
  C234     1.0000 0.15800  0.45250  0.89360  Biso   1.000  C
  C235     1.0000 0.34200  0.95250  0.60640  Biso   1.000  C
  C236     1.0000 0.84200  0.45250  0.60640  Biso   1.000  C
  C237     1.0000 0.34200  0.04750  0.10640  Biso   1.000  C
  C238     1.0000 0.84200  0.54750  0.10640  Biso   1.000  C
  C239     1.0000 0.65800  0.04750  0.39360  Biso   1.000  C
  C240     1.0000 0.15800  0.54750  0.39360  Biso   1.000  C
  H161     1.0000 0.66930  0.92140  0.94090  Biso   1.000  H
  H162     1.0000 0.16930  0.42140  0.94090  Biso   1.000  H
  H163     1.0000 0.33070  0.92140  0.55910  Biso   1.000  H
  H164     1.0000 0.83070  0.42140  0.55910  Biso   1.000  H
  H165     1.0000 0.33070  0.07860  0.05910  Biso   1.000  H
  H166     1.0000 0.83070  0.57860  0.05910  Biso   1.000  H
  H167     1.0000 0.66930  0.07860  0.44090  Biso   1.000  H
  H168     1.0000 0.16930  0.57860  0.44090  Biso   1.000  H
  H169     1.0000 0.68290  0.99770  0.90600  Biso   1.000  H
  H170     1.0000 0.18290  0.49770  0.90600  Biso   1.000  H
  H171     1.0000 0.31710  0.99770  0.59400  Biso   1.000  H
  H172     1.0000 0.81710  0.49770  0.59400  Biso   1.000  H
  H173     1.0000 0.31710  0.00230  0.09400  Biso   1.000  H
  H174     1.0000 0.81710  0.50230  0.09400  Biso   1.000  H
  H175     1.0000 0.68290  0.00230  0.40600  Biso   1.000  H
  H176     1.0000 0.18290  0.50230  0.40600  Biso   1.000  H
  H177     1.0000 0.65680  0.91520  0.85560  Biso   1.000  H
  H178     1.0000 0.15680  0.41520  0.85560  Biso   1.000  H
  H179     1.0000 0.34320  0.91520  0.64440  Biso   1.000  H
  H180     1.0000 0.84320  0.41520  0.64440  Biso   1.000  H
  H181     1.0000 0.34320  0.08480  0.14440  Biso   1.000  H
  H182     1.0000 0.84320  0.58480  0.14440  Biso   1.000  H
  H183     1.0000 0.65680  0.08480  0.35560  Biso   1.000  H
  H184     1.0000 0.15680  0.58480  0.35560  Biso   1.000  H
  C241     1.0000 0.43820  0.12040  0.93070  Biso   1.000  C
  C242     1.0000 0.93820  0.62040  0.93070  Biso   1.000  C
  C243     1.0000 0.56180  0.12040  0.56930  Biso   1.000  C
  C244     1.0000 0.06180  0.62040  0.56930  Biso   1.000  C
  C245     1.0000 0.56180  0.87960  0.06930  Biso   1.000  C
  C246     1.0000 0.06180  0.37960  0.06930  Biso   1.000  C
  C247     1.0000 0.43820  0.87960  0.43070  Biso   1.000  C
  C248     1.0000 0.93820  0.37960  0.43070  Biso   1.000  C
  O89      1.0000 0.61440  0.75160  0.39820  Biso   1.000  O
  O90      1.0000 0.11440  0.25160  0.39820  Biso   1.000  O
  O91      1.0000 0.38560  0.75160  0.10180  Biso   1.000  O
  O92      1.0000 0.88560  0.25160  0.10180  Biso   1.000  O
  O93      1.0000 0.38560  0.24840  0.60180  Biso   1.000  O
  O94      1.0000 0.88560  0.74840  0.60180  Biso   1.000  O
  O95      1.0000 0.61440  0.24840  0.89820  Biso   1.000  O
  O96      1.0000 0.11440  0.74840  0.89820  Biso   1.000  O
  H185     1.0000 0.59670  0.70580  0.36450  Biso   1.000  H
  H186     1.0000 0.09670  0.20580  0.36450  Biso   1.000  H
  H187     1.0000 0.40330  0.70580  0.13550  Biso   1.000  H
  H188     1.0000 0.90330  0.20580  0.13550  Biso   1.000  H
  H189     1.0000 0.40330  0.29420  0.63550  Biso   1.000  H
  H190     1.0000 0.90330  0.79420  0.63550  Biso   1.000  H
  H191     1.0000 0.59670  0.29420  0.86450  Biso   1.000  H
  H192     1.0000 0.09670  0.79420  0.86450  Biso   1.000  H
  C249     1.0000 0.58300  0.80760  0.40720  Biso   1.000  C
  C250     1.0000 0.08300  0.30760  0.40720  Biso   1.000  C
  C251     1.0000 0.41700  0.80760  0.09280  Biso   1.000  C
  C252     1.0000 0.91700  0.30760  0.09280  Biso   1.000  C
  C253     1.0000 0.41700  0.19240  0.59280  Biso   1.000  C
  C254     1.0000 0.91700  0.69240  0.59280  Biso   1.000  C
  C255     1.0000 0.58300  0.19240  0.90720  Biso   1.000  C
  C256     1.0000 0.08300  0.69240  0.90720  Biso   1.000  C
  H193     1.0000 0.58480  0.86290  0.38820  Biso   1.000  H
  H194     1.0000 0.08480  0.36290  0.38820  Biso   1.000  H
  H195     1.0000 0.41520  0.86290  0.11180  Biso   1.000  H
  H196     1.0000 0.91520  0.36290  0.11180  Biso   1.000  H
  H197     1.0000 0.41520  0.13710  0.61180  Biso   1.000  H
  H198     1.0000 0.91520  0.63710  0.61180  Biso   1.000  H
  H199     1.0000 0.58480  0.13710  0.88820  Biso   1.000  H
  H200     1.0000 0.08480  0.63710  0.88820  Biso   1.000  H
  H201     1.0000 0.59800  0.81300  0.46320  Biso   1.000  H
  H202     1.0000 0.09800  0.31300  0.46320  Biso   1.000  H
  H203     1.0000 0.40200  0.81300  0.03680  Biso   1.000  H
  H204     1.0000 0.90200  0.31300  0.03680  Biso   1.000  H
  H205     1.0000 0.40200  0.18700  0.53680  Biso   1.000  H
  H206     1.0000 0.90200  0.68700  0.53680  Biso   1.000  H
  H207     1.0000 0.59800  0.18700  0.96320  Biso   1.000  H
  H208     1.0000 0.09800  0.68700  0.96320  Biso   1.000  H
  C257     1.0000 0.52690  0.78330  0.36620  Biso   1.000  C
  C258     1.0000 0.02690  0.28330  0.36620  Biso   1.000  C
  C259     1.0000 0.47310  0.78330  0.13380  Biso   1.000  C
  C260     1.0000 0.97310  0.28330  0.13380  Biso   1.000  C
  C261     1.0000 0.47310  0.21670  0.63380  Biso   1.000  C
  C262     1.0000 0.97310  0.71670  0.63380  Biso   1.000  C
  C263     1.0000 0.52690  0.21670  0.86620  Biso   1.000  C
  C264     1.0000 0.02690  0.71670  0.86620  Biso   1.000  C
  H209     1.0000 0.50780  0.82610  0.37420  Biso   1.000  H
  H210     1.0000 0.00780  0.32610  0.37420  Biso   1.000  H
  H211     1.0000 0.49220  0.82610  0.12580  Biso   1.000  H
  H212     1.0000 0.99220  0.32610  0.12580  Biso   1.000  H
  H213     1.0000 0.49220  0.17390  0.62580  Biso   1.000  H
  H214     1.0000 0.99220  0.67390  0.62580  Biso   1.000  H
  H215     1.0000 0.50780  0.17390  0.87420  Biso   1.000  H
  H216     1.0000 0.00780  0.67390  0.87420  Biso   1.000  H
  H217     1.0000 0.52430  0.73010  0.38680  Biso   1.000  H
  H218     1.0000 0.02430  0.23010  0.38680  Biso   1.000  H
  H219     1.0000 0.47570  0.73010  0.11320  Biso   1.000  H
  H220     1.0000 0.97570  0.23010  0.11320  Biso   1.000  H
  H221     1.0000 0.47570  0.26990  0.61320  Biso   1.000  H
  H222     1.0000 0.97570  0.76990  0.61320  Biso   1.000  H
  H223     1.0000 0.52430  0.26990  0.88680  Biso   1.000  H
  H224     1.0000 0.02430  0.76990  0.88680  Biso   1.000  H
  H225     1.0000 0.51150  0.77750  0.31070  Biso   1.000  H
  H226     1.0000 0.01150  0.27750  0.31070  Biso   1.000  H
  H227     1.0000 0.48850  0.77750  0.18930  Biso   1.000  H
  H228     1.0000 0.98850  0.27750  0.18930  Biso   1.000  H
  H229     1.0000 0.48850  0.22250  0.68930  Biso   1.000  H
  H230     1.0000 0.98850  0.72250  0.68930  Biso   1.000  H
  H231     1.0000 0.51150  0.22250  0.81070  Biso   1.000  H
  H232     1.0000 0.01150  0.72250  0.81070  Biso   1.000  H
  O97      1.0000 0.61440  0.76730  0.37710  Biso   1.000  O
  O98      1.0000 0.11440  0.26730  0.37710  Biso   1.000  O
  O99      1.0000 0.38560  0.76730  0.12290  Biso   1.000  O
  O100     1.0000 0.88560  0.26730  0.12290  Biso   1.000  O
  O101     1.0000 0.38560  0.23270  0.62290  Biso   1.000  O
  O102     1.0000 0.88560  0.73270  0.62290  Biso   1.000  O
  O103     1.0000 0.61440  0.23270  0.87710  Biso   1.000  O
  O104     1.0000 0.11440  0.73270  0.87710  Biso   1.000  O
  H233     1.0000 0.59980  0.81060  0.33960  Biso   1.000  H
  H234     1.0000 0.09980  0.31060  0.33960  Biso   1.000  H
  H235     1.0000 0.40020  0.81060  0.16040  Biso   1.000  H
  H236     1.0000 0.90020  0.31060  0.16040  Biso   1.000  H
  H237     1.0000 0.40020  0.18940  0.66040  Biso   1.000  H
  H238     1.0000 0.90020  0.68940  0.66040  Biso   1.000  H
  H239     1.0000 0.59980  0.18940  0.83960  Biso   1.000  H
  H240     1.0000 0.09980  0.68940  0.83960  Biso   1.000  H
  C265     1.0000 0.57580  0.70730  0.37970  Biso   1.000  C
  C266     1.0000 0.07580  0.20730  0.37970  Biso   1.000  C
  C267     1.0000 0.42420  0.70730  0.12030  Biso   1.000  C
  C268     1.0000 0.92420  0.20730  0.12030  Biso   1.000  C
  C269     1.0000 0.42420  0.29270  0.62030  Biso   1.000  C
  C270     1.0000 0.92420  0.79270  0.62030  Biso   1.000  C
  C271     1.0000 0.57580  0.29270  0.87970  Biso   1.000  C
  C272     1.0000 0.07580  0.79270  0.87970  Biso   1.000  C
  H241     1.0000 0.56240  0.66870  0.33550  Biso   1.000  H
  H242     1.0000 0.06240  0.16870  0.33550  Biso   1.000  H
  H243     1.0000 0.43760  0.66870  0.16450  Biso   1.000  H
  H244     1.0000 0.93760  0.16870  0.16450  Biso   1.000  H
  H245     1.0000 0.43760  0.33130  0.66450  Biso   1.000  H
  H246     1.0000 0.93760  0.83130  0.66450  Biso   1.000  H
  H247     1.0000 0.56240  0.33130  0.83550  Biso   1.000  H
  H248     1.0000 0.06240  0.83130  0.83550  Biso   1.000  H
  H249     1.0000 0.59750  0.67350  0.42730  Biso   1.000  H
  H250     1.0000 0.09750  0.17350  0.42730  Biso   1.000  H
  H251     1.0000 0.40250  0.67350  0.07270  Biso   1.000  H
  H252     1.0000 0.90250  0.17350  0.07270  Biso   1.000  H
  H253     1.0000 0.40250  0.32650  0.57270  Biso   1.000  H
  H254     1.0000 0.90250  0.82650  0.57270  Biso   1.000  H
  H255     1.0000 0.59750  0.32650  0.92730  Biso   1.000  H
  H256     1.0000 0.09750  0.82650  0.92730  Biso   1.000  H
  C273     1.0000 0.54060  0.72840  0.37860  Biso   1.000  C
  C274     1.0000 0.04060  0.22840  0.37860  Biso   1.000  C
  C275     1.0000 0.45940  0.72840  0.12140  Biso   1.000  C
  C276     1.0000 0.95940  0.22840  0.12140  Biso   1.000  C
  C277     1.0000 0.45940  0.27160  0.62140  Biso   1.000  C
  C278     1.0000 0.95940  0.77160  0.62140  Biso   1.000  C
  C279     1.0000 0.54060  0.27160  0.87860  Biso   1.000  C
  C280     1.0000 0.04060  0.77160  0.87860  Biso   1.000  C
  H257     1.0000 0.52140  0.67970  0.37840  Biso   1.000  H
  H258     1.0000 0.02140  0.17970  0.37840  Biso   1.000  H
  H259     1.0000 0.47860  0.67970  0.12160  Biso   1.000  H
  H260     1.0000 0.97860  0.17970  0.12160  Biso   1.000  H
  H261     1.0000 0.47860  0.32030  0.62160  Biso   1.000  H
  H262     1.0000 0.97860  0.82030  0.62160  Biso   1.000  H
  H263     1.0000 0.52140  0.32030  0.87840  Biso   1.000  H
  H264     1.0000 0.02140  0.82030  0.87840  Biso   1.000  H
  H265     1.0000 0.51750  0.76160  0.33190  Biso   1.000  H
  H266     1.0000 0.01750  0.26160  0.33190  Biso   1.000  H
  H267     1.0000 0.48250  0.76160  0.16810  Biso   1.000  H
  H268     1.0000 0.98250  0.26160  0.16810  Biso   1.000  H
  H269     1.0000 0.48250  0.23840  0.66810  Biso   1.000  H
  H270     1.0000 0.98250  0.73840  0.66810  Biso   1.000  H
  H271     1.0000 0.51750  0.23840  0.83190  Biso   1.000  H
  H272     1.0000 0.01750  0.73840  0.83190  Biso   1.000  H
  H273     1.0000 0.55230  0.76220  0.42470  Biso   1.000  H
  H274     1.0000 0.05230  0.26220  0.42470  Biso   1.000  H
  H275     1.0000 0.44770  0.76220  0.07530  Biso   1.000  H
  H276     1.0000 0.94770  0.26220  0.07530  Biso   1.000  H
  H277     1.0000 0.44770  0.23780  0.57530  Biso   1.000  H
  H278     1.0000 0.94770  0.73780  0.57530  Biso   1.000  H
  H279     1.0000 0.55230  0.23780  0.92470  Biso   1.000  H
  H280     1.0000 0.05230  0.73780  0.92470  Biso   1.000  H
