data_image0
_cell_length_a       20.3962
_cell_length_b       20.3962
_cell_length_c       18.8438
_cell_angle_alpha    90
_cell_angle_beta     90
_cell_angle_gamma    90

_symmetry_space_group_name_H-M    "P 1"
_symmetry_int_tables_number       1

loop_
  _symmetry_equiv_pos_as_xyz
  'x, y, z'

loop_
  _atom_site_label
  _atom_site_occupancy
  _atom_site_fract_x
  _atom_site_fract_y
  _atom_site_fract_z
  _atom_site_thermal_displace_type
  _atom_site_B_iso_or_equiv
  _atom_site_type_symbol
  Gd1      1.0000 0.08782  0.22586  0.00000  Biso   1.000  Gd
  Gd2      1.0000 0.77414  0.08782  0.00000  Biso   1.000  Gd
  Gd3      1.0000 0.22586  0.91218  0.00000  Biso   1.000  Gd
  Gd4      1.0000 0.58782  0.72586  0.50000  Biso   1.000  Gd
  Gd5      1.0000 0.27414  0.58782  0.50000  Biso   1.000  Gd
  Gd6      1.0000 0.72586  0.41218  0.50000  Biso   1.000  Gd
  Gd7      1.0000 0.91218  0.77414  0.00000  Biso   1.000  Gd
  Gd8      1.0000 0.41218  0.27414  0.50000  Biso   1.000  Gd
  Gd9      1.0000 0.00000  0.00000  0.73285  Biso   1.000  Gd
  Gd10     1.0000 0.50000  0.50000  0.23285  Biso   1.000  Gd
  Gd11     1.0000 0.00000  0.00000  0.26715  Biso   1.000  Gd
  Gd12     1.0000 0.50000  0.50000  0.76715  Biso   1.000  Gd
  Cu1      1.0000 0.04173  0.10902  0.87149  Biso   1.000  Cu
  Cu2      1.0000 0.89098  0.04173  0.87149  Biso   1.000  Cu
  Cu3      1.0000 0.10902  0.95827  0.87149  Biso   1.000  Cu
  Cu4      1.0000 0.54173  0.60902  0.37149  Biso   1.000  Cu
  Cu5      1.0000 0.39098  0.54173  0.37149  Biso   1.000  Cu
  Cu6      1.0000 0.60902  0.45827  0.37149  Biso   1.000  Cu
  Cu7      1.0000 0.95827  0.89098  0.87149  Biso   1.000  Cu
  Cu8      1.0000 0.45827  0.39098  0.37149  Biso   1.000  Cu
  Cu9      1.0000 0.95827  0.89098  0.12851  Biso   1.000  Cu
  Cu10     1.0000 0.10902  0.95827  0.12851  Biso   1.000  Cu
  Cu11     1.0000 0.89098  0.04173  0.12851  Biso   1.000  Cu
  Cu12     1.0000 0.45827  0.39098  0.62851  Biso   1.000  Cu
  Cu13     1.0000 0.60902  0.45827  0.62851  Biso   1.000  Cu
  Cu14     1.0000 0.39098  0.54173  0.62851  Biso   1.000  Cu
  Cu15     1.0000 0.04173  0.10902  0.12851  Biso   1.000  Cu
  Cu16     1.0000 0.54173  0.60902  0.62851  Biso   1.000  Cu
  Cu17     1.0000 0.15147  0.06707  0.00000  Biso   1.000  Cu
  Cu18     1.0000 0.93293  0.15147  0.00000  Biso   1.000  Cu
  Cu19     1.0000 0.06707  0.84853  0.00000  Biso   1.000  Cu
  Cu20     1.0000 0.65147  0.56707  0.50000  Biso   1.000  Cu
  Cu21     1.0000 0.43293  0.65147  0.50000  Biso   1.000  Cu
  Cu22     1.0000 0.56707  0.34853  0.50000  Biso   1.000  Cu
  Cu23     1.0000 0.84853  0.93293  0.00000  Biso   1.000  Cu
  Cu24     1.0000 0.34853  0.43293  0.50000  Biso   1.000  Cu
  Cu25     1.0000 0.00000  0.50000  0.92391  Biso   1.000  Cu
  Cu26     1.0000 0.50000  0.00000  0.92391  Biso   1.000  Cu
  Cu27     1.0000 0.50000  0.00000  0.42391  Biso   1.000  Cu
  Cu28     1.0000 0.00000  0.50000  0.42391  Biso   1.000  Cu
  Cu29     1.0000 0.00000  0.50000  0.07609  Biso   1.000  Cu
  Cu30     1.0000 0.50000  0.00000  0.07609  Biso   1.000  Cu
  Cu31     1.0000 0.50000  0.00000  0.57609  Biso   1.000  Cu
  Cu32     1.0000 0.00000  0.50000  0.57609  Biso   1.000  Cu
  Cl1      1.0000 0.00000  0.00000  0.00000  Biso   1.000  Cl
  Cl2      1.0000 0.50000  0.50000  0.50000  Biso   1.000  Cl
  O1       1.0000 0.00000  0.00000  0.06500  Biso   1.000  O
  O2       1.0000 0.50000  0.50000  0.56500  Biso   1.000  O
  O3       1.0000 0.00000  0.00000  0.93500  Biso   1.000  O
  O4       1.0000 0.50000  0.50000  0.43500  Biso   1.000  O
  O5       1.0000 0.04410  0.01950  0.96020  Biso   1.000  O
  O6       1.0000 0.98050  0.04410  0.96020  Biso   1.000  O
  O7       1.0000 0.01950  0.95590  0.96020  Biso   1.000  O
  O8       1.0000 0.54410  0.51950  0.46020  Biso   1.000  O
  O9       1.0000 0.48050  0.54410  0.46020  Biso   1.000  O
  O10      1.0000 0.51950  0.45590  0.46020  Biso   1.000  O
  O11      1.0000 0.95590  0.98050  0.96020  Biso   1.000  O
  O12      1.0000 0.45590  0.48050  0.46020  Biso   1.000  O
  O13      1.0000 0.95590  0.98050  0.03980  Biso   1.000  O
  O14      1.0000 0.01950  0.95590  0.03980  Biso   1.000  O
  O15      1.0000 0.98050  0.04410  0.03980  Biso   1.000  O
  O16      1.0000 0.45590  0.48050  0.53980  Biso   1.000  O
  O17      1.0000 0.51950  0.45590  0.53980  Biso   1.000  O
  O18      1.0000 0.48050  0.54410  0.53980  Biso   1.000  O
  O19      1.0000 0.04410  0.01950  0.03980  Biso   1.000  O
  O20      1.0000 0.54410  0.51950  0.53980  Biso   1.000  O
  O21      1.0000 0.08451  0.03686  0.81739  Biso   1.000  O
  O22      1.0000 0.96314  0.08451  0.81739  Biso   1.000  O
  O23      1.0000 0.03686  0.91549  0.81739  Biso   1.000  O
  O24      1.0000 0.58451  0.53686  0.31739  Biso   1.000  O
  O25      1.0000 0.46314  0.58451  0.31739  Biso   1.000  O
  O26      1.0000 0.53686  0.41549  0.31739  Biso   1.000  O
  O27      1.0000 0.91549  0.96314  0.81739  Biso   1.000  O
  O28      1.0000 0.41549  0.46314  0.31739  Biso   1.000  O
  O29      1.0000 0.91549  0.96314  0.18261  Biso   1.000  O
  O30      1.0000 0.03686  0.91549  0.18261  Biso   1.000  O
  O31      1.0000 0.96314  0.08451  0.18261  Biso   1.000  O
  O32      1.0000 0.41549  0.46314  0.68261  Biso   1.000  O
  O33      1.0000 0.53686  0.41549  0.68261  Biso   1.000  O
  O34      1.0000 0.46314  0.58451  0.68261  Biso   1.000  O
  O35      1.0000 0.08451  0.03686  0.18261  Biso   1.000  O
  O36      1.0000 0.58451  0.53686  0.68261  Biso   1.000  O
  H1       1.0000 0.12260  0.05370  0.79160  Biso   1.000  H
  H2       1.0000 0.94630  0.12260  0.79160  Biso   1.000  H
  H3       1.0000 0.05370  0.87740  0.79160  Biso   1.000  H
  H4       1.0000 0.62260  0.55370  0.29160  Biso   1.000  H
  H5       1.0000 0.44630  0.62260  0.29160  Biso   1.000  H
  H6       1.0000 0.55370  0.37740  0.29160  Biso   1.000  H
  H7       1.0000 0.87740  0.94630  0.79160  Biso   1.000  H
  H8       1.0000 0.37740  0.44630  0.29160  Biso   1.000  H
  H9       1.0000 0.87740  0.94630  0.20840  Biso   1.000  H
  H10      1.0000 0.05370  0.87740  0.20840  Biso   1.000  H
  H11      1.0000 0.94630  0.12260  0.20840  Biso   1.000  H
  H12      1.0000 0.37740  0.44630  0.70840  Biso   1.000  H
  H13      1.0000 0.55370  0.37740  0.70840  Biso   1.000  H
  H14      1.0000 0.44630  0.62260  0.70840  Biso   1.000  H
  H15      1.0000 0.12260  0.05370  0.20840  Biso   1.000  H
  H16      1.0000 0.62260  0.55370  0.70840  Biso   1.000  H
  O37      1.0000 0.11781  0.12848  0.92996  Biso   1.000  O
  O38      1.0000 0.87152  0.11781  0.92996  Biso   1.000  O
  O39      1.0000 0.12848  0.88219  0.92996  Biso   1.000  O
  O40      1.0000 0.61781  0.62848  0.42996  Biso   1.000  O
  O41      1.0000 0.37152  0.61781  0.42996  Biso   1.000  O
  O42      1.0000 0.62848  0.38219  0.42996  Biso   1.000  O
  O43      1.0000 0.88219  0.87152  0.92996  Biso   1.000  O
  O44      1.0000 0.38219  0.37152  0.42996  Biso   1.000  O
  O45      1.0000 0.88219  0.87152  0.07004  Biso   1.000  O
  O46      1.0000 0.12848  0.88219  0.07004  Biso   1.000  O
  O47      1.0000 0.87152  0.11781  0.07004  Biso   1.000  O
  O48      1.0000 0.38219  0.37152  0.57004  Biso   1.000  O
  O49      1.0000 0.62848  0.38219  0.57004  Biso   1.000  O
  O50      1.0000 0.37152  0.61781  0.57004  Biso   1.000  O
  O51      1.0000 0.11781  0.12848  0.07004  Biso   1.000  O
  O52      1.0000 0.61781  0.62848  0.57004  Biso   1.000  O
  H17      1.0000 0.15400  0.14070  0.89840  Biso   1.000  H
  H18      1.0000 0.85930  0.15400  0.89840  Biso   1.000  H
  H19      1.0000 0.14070  0.84600  0.89840  Biso   1.000  H
  H20      1.0000 0.65400  0.64070  0.39840  Biso   1.000  H
  H21      1.0000 0.35930  0.65400  0.39840  Biso   1.000  H
  H22      1.0000 0.64070  0.34600  0.39840  Biso   1.000  H
  H23      1.0000 0.84600  0.85930  0.89840  Biso   1.000  H
  H24      1.0000 0.34600  0.35930  0.39840  Biso   1.000  H
  H25      1.0000 0.84600  0.85930  0.10160  Biso   1.000  H
  H26      1.0000 0.14070  0.84600  0.10160  Biso   1.000  H
  H27      1.0000 0.85930  0.15400  0.10160  Biso   1.000  H
  H28      1.0000 0.34600  0.35930  0.60160  Biso   1.000  H
  H29      1.0000 0.64070  0.34600  0.60160  Biso   1.000  H
  H30      1.0000 0.35930  0.65400  0.60160  Biso   1.000  H
  H31      1.0000 0.15400  0.14070  0.10160  Biso   1.000  H
  H32      1.0000 0.65400  0.64070  0.60160  Biso   1.000  H
  O53      1.0000 0.99776  0.17736  0.92936  Biso   1.000  O
  O54      1.0000 0.82264  0.99776  0.92936  Biso   1.000  O
  O55      1.0000 0.17736  0.00224  0.92936  Biso   1.000  O
  O56      1.0000 0.49776  0.67736  0.42936  Biso   1.000  O
  O57      1.0000 0.32264  0.49776  0.42936  Biso   1.000  O
  O58      1.0000 0.67736  0.50224  0.42936  Biso   1.000  O
  O59      1.0000 0.00224  0.82264  0.92936  Biso   1.000  O
  O60      1.0000 0.50224  0.32264  0.42936  Biso   1.000  O
  O61      1.0000 0.00224  0.82264  0.07064  Biso   1.000  O
  O62      1.0000 0.17736  0.00224  0.07064  Biso   1.000  O
  O63      1.0000 0.82264  0.99776  0.07064  Biso   1.000  O
  O64      1.0000 0.50224  0.32264  0.57064  Biso   1.000  O
  O65      1.0000 0.67736  0.50224  0.57064  Biso   1.000  O
  O66      1.0000 0.32264  0.49776  0.57064  Biso   1.000  O
  O67      1.0000 0.99776  0.17736  0.07064  Biso   1.000  O
  O68      1.0000 0.49776  0.67736  0.57064  Biso   1.000  O
  H33      1.0000 0.97900  0.21080  0.89810  Biso   1.000  H
  H34      1.0000 0.78920  0.97900  0.89810  Biso   1.000  H
  H35      1.0000 0.21080  0.02100  0.89810  Biso   1.000  H
  H36      1.0000 0.47900  0.71080  0.39810  Biso   1.000  H
  H37      1.0000 0.28920  0.47900  0.39810  Biso   1.000  H
  H38      1.0000 0.71080  0.52100  0.39810  Biso   1.000  H
  H39      1.0000 0.02100  0.78920  0.89810  Biso   1.000  H
  H40      1.0000 0.52100  0.28920  0.39810  Biso   1.000  H
  H41      1.0000 0.02100  0.78920  0.10190  Biso   1.000  H
  H42      1.0000 0.21080  0.02100  0.10190  Biso   1.000  H
  H43      1.0000 0.78920  0.97900  0.10190  Biso   1.000  H
  H44      1.0000 0.52100  0.28920  0.60190  Biso   1.000  H
  H45      1.0000 0.71080  0.52100  0.60190  Biso   1.000  H
  H46      1.0000 0.28920  0.47900  0.60190  Biso   1.000  H
  H47      1.0000 0.97900  0.21080  0.10190  Biso   1.000  H
  H48      1.0000 0.47900  0.71080  0.60190  Biso   1.000  H
  O69      1.0000 0.02540  0.44100  0.00000  Biso   1.000  O
  O70      1.0000 0.55900  0.02540  0.00000  Biso   1.000  O
  O71      1.0000 0.44100  0.97460  0.00000  Biso   1.000  O
  O72      1.0000 0.52540  0.94100  0.50000  Biso   1.000  O
  O73      1.0000 0.05900  0.52540  0.50000  Biso   1.000  O
  O74      1.0000 0.94100  0.47460  0.50000  Biso   1.000  O
  O75      1.0000 0.97460  0.55900  0.00000  Biso   1.000  O
  O76      1.0000 0.47460  0.05900  0.50000  Biso   1.000  O
  H49      1.0000 0.06620  0.43290  0.00000  Biso   1.000  H
  H50      1.0000 0.56710  0.06620  0.00000  Biso   1.000  H
  H51      1.0000 0.43290  0.93380  0.00000  Biso   1.000  H
  H52      1.0000 0.56620  0.93290  0.50000  Biso   1.000  H
  H53      1.0000 0.06710  0.56620  0.50000  Biso   1.000  H
  H54      1.0000 0.93290  0.43380  0.50000  Biso   1.000  H
  H55      1.0000 0.93380  0.56710  0.00000  Biso   1.000  H
  H56      1.0000 0.43380  0.06710  0.50000  Biso   1.000  H
  O77      1.0000 0.99900  0.30800  0.00000  Biso   1.000  O
  O78      1.0000 0.69200  0.99900  0.00000  Biso   1.000  O
  O79      1.0000 0.30800  0.00100  0.00000  Biso   1.000  O
  O80      1.0000 0.49900  0.80800  0.50000  Biso   1.000  O
  O81      1.0000 0.19200  0.49900  0.50000  Biso   1.000  O
  O82      1.0000 0.80800  0.50100  0.50000  Biso   1.000  O
  O83      1.0000 0.00100  0.69200  0.00000  Biso   1.000  O
  O84      1.0000 0.50100  0.19200  0.50000  Biso   1.000  O
  H57      1.0000 0.95520  0.30330  0.00000  Biso   1.000  H
  H58      1.0000 0.69670  0.95520  0.00000  Biso   1.000  H
  H59      1.0000 0.30330  0.04480  0.00000  Biso   1.000  H
  H60      1.0000 0.45520  0.80330  0.50000  Biso   1.000  H
  H61      1.0000 0.19670  0.45520  0.50000  Biso   1.000  H
  H62      1.0000 0.80330  0.54480  0.50000  Biso   1.000  H
  H63      1.0000 0.04480  0.69670  0.00000  Biso   1.000  H
  H64      1.0000 0.54480  0.19670  0.50000  Biso   1.000  H
  H65      1.0000 0.01140  0.35030  0.00000  Biso   1.000  H
  H66      1.0000 0.64970  0.01140  0.00000  Biso   1.000  H
  H67      1.0000 0.35030  0.98860  0.00000  Biso   1.000  H
  H68      1.0000 0.51140  0.85030  0.50000  Biso   1.000  H
  H69      1.0000 0.14970  0.51140  0.50000  Biso   1.000  H
  H70      1.0000 0.85030  0.48860  0.50000  Biso   1.000  H
  H71      1.0000 0.98860  0.64970  0.00000  Biso   1.000  H
  H72      1.0000 0.48860  0.14970  0.50000  Biso   1.000  H
  O85      1.0000 0.13220  0.34020  0.00000  Biso   1.000  O
  O86      1.0000 0.65980  0.13220  0.00000  Biso   1.000  O
  O87      1.0000 0.34020  0.86780  0.00000  Biso   1.000  O
  O88      1.0000 0.63220  0.84020  0.50000  Biso   1.000  O
  O89      1.0000 0.15980  0.63220  0.50000  Biso   1.000  O
  O90      1.0000 0.84020  0.36780  0.50000  Biso   1.000  O
  O91      1.0000 0.86780  0.65980  0.00000  Biso   1.000  O
  O92      1.0000 0.36780  0.15980  0.50000  Biso   1.000  O
  H73      1.0000 0.15450  0.35570  0.03690  Biso   1.000  H
  H74      1.0000 0.64430  0.15450  0.03690  Biso   1.000  H
  H75      1.0000 0.35570  0.84550  0.03690  Biso   1.000  H
  H76      1.0000 0.65450  0.85570  0.53690  Biso   1.000  H
  H77      1.0000 0.14430  0.65450  0.53690  Biso   1.000  H
  H78      1.0000 0.85570  0.34550  0.53690  Biso   1.000  H
  H79      1.0000 0.84550  0.64430  0.03690  Biso   1.000  H
  H80      1.0000 0.34550  0.14430  0.53690  Biso   1.000  H
  H81      1.0000 0.84550  0.64430  0.96310  Biso   1.000  H
  H82      1.0000 0.35570  0.84550  0.96310  Biso   1.000  H
  H83      1.0000 0.64430  0.15450  0.96310  Biso   1.000  H
  H84      1.0000 0.34550  0.14430  0.46310  Biso   1.000  H
  H85      1.0000 0.85570  0.34550  0.46310  Biso   1.000  H
  H86      1.0000 0.14430  0.65450  0.46310  Biso   1.000  H
  H87      1.0000 0.15450  0.35570  0.96310  Biso   1.000  H
  H88      1.0000 0.65450  0.85570  0.46310  Biso   1.000  H
  O93      1.0000 0.10400  0.95800  0.68800  Biso   1.000  O
  O94      1.0000 0.04200  0.10400  0.68800  Biso   1.000  O
  O95      1.0000 0.95800  0.89600  0.68800  Biso   1.000  O
  O96      1.0000 0.60400  0.45800  0.18800  Biso   1.000  O
  O97      1.0000 0.54200  0.60400  0.18800  Biso   1.000  O
  O98      1.0000 0.45800  0.39600  0.18800  Biso   1.000  O
  O99      1.0000 0.89600  0.04200  0.68800  Biso   1.000  O
  O100     1.0000 0.39600  0.54200  0.18800  Biso   1.000  O
  O101     1.0000 0.89600  0.04200  0.31200  Biso   1.000  O
  O102     1.0000 0.95800  0.89600  0.31200  Biso   1.000  O
  O103     1.0000 0.04200  0.10400  0.31200  Biso   1.000  O
  O104     1.0000 0.39600  0.54200  0.81200  Biso   1.000  O
  O105     1.0000 0.45800  0.39600  0.81200  Biso   1.000  O
  O106     1.0000 0.54200  0.60400  0.81200  Biso   1.000  O
  O107     1.0000 0.10400  0.95800  0.31200  Biso   1.000  O
  O108     1.0000 0.60400  0.45800  0.81200  Biso   1.000  O
  H89      1.0000 0.12680  0.98450  0.66350  Biso   1.000  H
  H90      1.0000 0.01550  0.12680  0.66350  Biso   1.000  H
  H91      1.0000 0.98450  0.87320  0.66350  Biso   1.000  H
  H92      1.0000 0.62680  0.48450  0.16350  Biso   1.000  H
  H93      1.0000 0.51550  0.62680  0.16350  Biso   1.000  H
  H94      1.0000 0.48450  0.37320  0.16350  Biso   1.000  H
  H95      1.0000 0.87320  0.01550  0.66350  Biso   1.000  H
  H96      1.0000 0.37320  0.51550  0.16350  Biso   1.000  H
  H97      1.0000 0.87320  0.01550  0.33650  Biso   1.000  H
  H98      1.0000 0.98450  0.87320  0.33650  Biso   1.000  H
  H99      1.0000 0.01550  0.12680  0.33650  Biso   1.000  H
  H100     1.0000 0.37320  0.51550  0.83650  Biso   1.000  H
  H101     1.0000 0.48450  0.37320  0.83650  Biso   1.000  H
  H102     1.0000 0.51550  0.62680  0.83650  Biso   1.000  H
  H103     1.0000 0.12680  0.98450  0.33650  Biso   1.000  H
  H104     1.0000 0.62680  0.48450  0.83650  Biso   1.000  H
  H105     1.0000 0.10340  0.91930  0.67120  Biso   1.000  H
  H106     1.0000 0.08070  0.10340  0.67120  Biso   1.000  H
  H107     1.0000 0.91930  0.89660  0.67120  Biso   1.000  H
  H108     1.0000 0.60340  0.41930  0.17120  Biso   1.000  H
  H109     1.0000 0.58070  0.60340  0.17120  Biso   1.000  H
  H110     1.0000 0.41930  0.39660  0.17120  Biso   1.000  H
  H111     1.0000 0.89660  0.08070  0.67120  Biso   1.000  H
  H112     1.0000 0.39660  0.58070  0.17120  Biso   1.000  H
  H113     1.0000 0.89660  0.08070  0.32880  Biso   1.000  H
  H114     1.0000 0.91930  0.89660  0.32880  Biso   1.000  H
  H115     1.0000 0.08070  0.10340  0.32880  Biso   1.000  H
  H116     1.0000 0.39660  0.58070  0.82880  Biso   1.000  H
  H117     1.0000 0.41930  0.39660  0.82880  Biso   1.000  H
  H118     1.0000 0.58070  0.60340  0.82880  Biso   1.000  H
  H119     1.0000 0.10340  0.91930  0.32880  Biso   1.000  H
  H120     1.0000 0.60340  0.41930  0.82880  Biso   1.000  H
  O109     1.0000 0.00000  0.00000  0.60160  Biso   1.000  O
  O110     1.0000 0.50000  0.50000  0.10160  Biso   1.000  O
  O111     1.0000 0.00000  0.00000  0.39840  Biso   1.000  O
  O112     1.0000 0.50000  0.50000  0.89840  Biso   1.000  O
  H121     1.0000 0.98600  0.96330  0.58660  Biso   1.000  H
  H122     1.0000 0.03670  0.98600  0.58660  Biso   1.000  H
  H123     1.0000 0.96330  0.01400  0.58660  Biso   1.000  H
  H124     1.0000 0.48600  0.46330  0.08660  Biso   1.000  H
  H125     1.0000 0.53670  0.48600  0.08660  Biso   1.000  H
  H126     1.0000 0.46330  0.51400  0.08660  Biso   1.000  H
  H127     1.0000 0.01400  0.03670  0.58660  Biso   1.000  H
  H128     1.0000 0.51400  0.53670  0.08660  Biso   1.000  H
  H129     1.0000 0.01400  0.03670  0.41340  Biso   1.000  H
  H130     1.0000 0.96330  0.01400  0.41340  Biso   1.000  H
  H131     1.0000 0.03670  0.98600  0.41340  Biso   1.000  H
  H132     1.0000 0.51400  0.53670  0.91340  Biso   1.000  H
  H133     1.0000 0.46330  0.51400  0.91340  Biso   1.000  H
  H134     1.0000 0.53670  0.48600  0.91340  Biso   1.000  H
  H135     1.0000 0.98600  0.96330  0.41340  Biso   1.000  H
  H136     1.0000 0.48600  0.46330  0.91340  Biso   1.000  H
  C1       1.0000 0.08930  0.24400  0.81610  Biso   1.000  C
  C2       1.0000 0.75600  0.08930  0.81610  Biso   1.000  C
  C3       1.0000 0.24400  0.91070  0.81610  Biso   1.000  C
  C4       1.0000 0.58930  0.74400  0.31610  Biso   1.000  C
  C5       1.0000 0.25600  0.58930  0.31610  Biso   1.000  C
  C6       1.0000 0.74400  0.41070  0.31610  Biso   1.000  C
  C7       1.0000 0.91070  0.75600  0.81610  Biso   1.000  C
  C8       1.0000 0.41070  0.25600  0.31610  Biso   1.000  C
  C9       1.0000 0.91070  0.75600  0.18390  Biso   1.000  C
  C10      1.0000 0.24400  0.91070  0.18390  Biso   1.000  C
  C11      1.0000 0.75600  0.08930  0.18390  Biso   1.000  C
  C12      1.0000 0.41070  0.25600  0.68390  Biso   1.000  C
  C13      1.0000 0.74400  0.41070  0.68390  Biso   1.000  C
  C14      1.0000 0.25600  0.58930  0.68390  Biso   1.000  C
  C15      1.0000 0.08930  0.24400  0.18390  Biso   1.000  C
  C16      1.0000 0.58930  0.74400  0.68390  Biso   1.000  C
  C17      1.0000 0.08230  0.29670  0.75910  Biso   1.000  C
  C18      1.0000 0.70330  0.08230  0.75910  Biso   1.000  C
  C19      1.0000 0.29670  0.91770  0.75910  Biso   1.000  C
  C20      1.0000 0.58230  0.79670  0.25910  Biso   1.000  C
  C21      1.0000 0.20330  0.58230  0.25910  Biso   1.000  C
  C22      1.0000 0.79670  0.41770  0.25910  Biso   1.000  C
  C23      1.0000 0.91770  0.70330  0.75910  Biso   1.000  C
  C24      1.0000 0.41770  0.20330  0.25910  Biso   1.000  C
  C25      1.0000 0.91770  0.70330  0.24090  Biso   1.000  C
  C26      1.0000 0.29670  0.91770  0.24090  Biso   1.000  C
  C27      1.0000 0.70330  0.08230  0.24090  Biso   1.000  C
  C28      1.0000 0.41770  0.20330  0.74090  Biso   1.000  C
  C29      1.0000 0.79670  0.41770  0.74090  Biso   1.000  C
  C30      1.0000 0.20330  0.58230  0.74090  Biso   1.000  C
  C31      1.0000 0.08230  0.29670  0.24090  Biso   1.000  C
  C32      1.0000 0.58230  0.79670  0.74090  Biso   1.000  C
  H137     1.0000 0.12110  0.29670  0.72930  Biso   1.000  H
  H138     1.0000 0.70330  0.12110  0.72930  Biso   1.000  H
  H139     1.0000 0.29670  0.87890  0.72930  Biso   1.000  H
  H140     1.0000 0.62110  0.79670  0.22930  Biso   1.000  H
  H141     1.0000 0.20330  0.62110  0.22930  Biso   1.000  H
  H142     1.0000 0.79670  0.37890  0.22930  Biso   1.000  H
  H143     1.0000 0.87890  0.70330  0.72930  Biso   1.000  H
  H144     1.0000 0.37890  0.20330  0.22930  Biso   1.000  H
  H145     1.0000 0.87890  0.70330  0.27070  Biso   1.000  H
  H146     1.0000 0.29670  0.87890  0.27070  Biso   1.000  H
  H147     1.0000 0.70330  0.12110  0.27070  Biso   1.000  H
  H148     1.0000 0.37890  0.20330  0.77070  Biso   1.000  H
  H149     1.0000 0.79670  0.37890  0.77070  Biso   1.000  H
  H150     1.0000 0.20330  0.62110  0.77070  Biso   1.000  H
  H151     1.0000 0.12110  0.29670  0.27070  Biso   1.000  H
  H152     1.0000 0.62110  0.79670  0.77070  Biso   1.000  H
  H153     1.0000 0.04480  0.28660  0.72940  Biso   1.000  H
  H154     1.0000 0.71340  0.04480  0.72940  Biso   1.000  H
  H155     1.0000 0.28660  0.95520  0.72940  Biso   1.000  H
  H156     1.0000 0.54480  0.78660  0.22940  Biso   1.000  H
  H157     1.0000 0.21340  0.54480  0.22940  Biso   1.000  H
  H158     1.0000 0.78660  0.45520  0.22940  Biso   1.000  H
  H159     1.0000 0.95520  0.71340  0.72940  Biso   1.000  H
  H160     1.0000 0.45520  0.21340  0.22940  Biso   1.000  H
  H161     1.0000 0.95520  0.71340  0.27060  Biso   1.000  H
  H162     1.0000 0.28660  0.95520  0.27060  Biso   1.000  H
  H163     1.0000 0.71340  0.04480  0.27060  Biso   1.000  H
  H164     1.0000 0.45520  0.21340  0.77060  Biso   1.000  H
  H165     1.0000 0.78660  0.45520  0.77060  Biso   1.000  H
  H166     1.0000 0.21340  0.54480  0.77060  Biso   1.000  H
  H167     1.0000 0.04480  0.28660  0.27060  Biso   1.000  H
  H168     1.0000 0.54480  0.78660  0.77060  Biso   1.000  H
  N1       1.0000 0.07380  0.36090  0.79010  Biso   1.000  N
  N2       1.0000 0.63910  0.07380  0.79010  Biso   1.000  N
  N3       1.0000 0.36090  0.92620  0.79010  Biso   1.000  N
  N4       1.0000 0.57380  0.86090  0.29010  Biso   1.000  N
  N5       1.0000 0.13910  0.57380  0.29010  Biso   1.000  N
  N6       1.0000 0.86090  0.42620  0.29010  Biso   1.000  N
  N7       1.0000 0.92620  0.63910  0.79010  Biso   1.000  N
  N8       1.0000 0.42620  0.13910  0.29010  Biso   1.000  N
  N9       1.0000 0.92620  0.63910  0.20990  Biso   1.000  N
  N10      1.0000 0.36090  0.92620  0.20990  Biso   1.000  N
  N11      1.0000 0.63910  0.07380  0.20990  Biso   1.000  N
  N12      1.0000 0.42620  0.13910  0.70990  Biso   1.000  N
  N13      1.0000 0.86090  0.42620  0.70990  Biso   1.000  N
  N14      1.0000 0.13910  0.57380  0.70990  Biso   1.000  N
  N15      1.0000 0.07380  0.36090  0.20990  Biso   1.000  N
  N16      1.0000 0.57380  0.86090  0.70990  Biso   1.000  N
  N17      1.0000 0.10950  0.41300  0.76950  Biso   1.000  N
  N18      1.0000 0.58700  0.10950  0.76950  Biso   1.000  N
  N19      1.0000 0.41300  0.89050  0.76950  Biso   1.000  N
  N20      1.0000 0.60950  0.91300  0.26950  Biso   1.000  N
  N21      1.0000 0.08700  0.60950  0.26950  Biso   1.000  N
  N22      1.0000 0.91300  0.39050  0.26950  Biso   1.000  N
  N23      1.0000 0.89050  0.58700  0.76950  Biso   1.000  N
  N24      1.0000 0.39050  0.08700  0.26950  Biso   1.000  N
  N25      1.0000 0.89050  0.58700  0.23050  Biso   1.000  N
  N26      1.0000 0.41300  0.89050  0.23050  Biso   1.000  N
  N27      1.0000 0.58700  0.10950  0.23050  Biso   1.000  N
  N28      1.0000 0.39050  0.08700  0.73050  Biso   1.000  N
  N29      1.0000 0.91300  0.39050  0.73050  Biso   1.000  N
  N30      1.0000 0.08700  0.60950  0.73050  Biso   1.000  N
  N31      1.0000 0.10950  0.41300  0.23050  Biso   1.000  N
  N32      1.0000 0.60950  0.91300  0.73050  Biso   1.000  N
  N33      1.0000 0.08920  0.46220  0.80690  Biso   1.000  N
  N34      1.0000 0.53780  0.08920  0.80690  Biso   1.000  N
  N35      1.0000 0.46220  0.91080  0.80690  Biso   1.000  N
  N36      1.0000 0.58920  0.96220  0.30690  Biso   1.000  N
  N37      1.0000 0.03780  0.58920  0.30690  Biso   1.000  N
  N38      1.0000 0.96220  0.41080  0.30690  Biso   1.000  N
  N39      1.0000 0.91080  0.53780  0.80690  Biso   1.000  N
  N40      1.0000 0.41080  0.03780  0.30690  Biso   1.000  N
  N41      1.0000 0.91080  0.53780  0.19310  Biso   1.000  N
  N42      1.0000 0.46220  0.91080  0.19310  Biso   1.000  N
  N43      1.0000 0.53780  0.08920  0.19310  Biso   1.000  N
  N44      1.0000 0.41080  0.03780  0.69310  Biso   1.000  N
  N45      1.0000 0.96220  0.41080  0.69310  Biso   1.000  N
  N46      1.0000 0.03780  0.58920  0.69310  Biso   1.000  N
  N47      1.0000 0.08920  0.46220  0.19310  Biso   1.000  N
  N48      1.0000 0.58920  0.96220  0.69310  Biso   1.000  N
  N49      1.0000 0.04040  0.44270  0.85130  Biso   1.000  N
  N50      1.0000 0.55730  0.04040  0.85130  Biso   1.000  N
  N51      1.0000 0.44270  0.95960  0.85130  Biso   1.000  N
  N52      1.0000 0.54040  0.94270  0.35130  Biso   1.000  N
  N53      1.0000 0.05730  0.54040  0.35130  Biso   1.000  N
  N54      1.0000 0.94270  0.45960  0.35130  Biso   1.000  N
  N55      1.0000 0.95960  0.55730  0.85130  Biso   1.000  N
  N56      1.0000 0.45960  0.05730  0.35130  Biso   1.000  N
  N57      1.0000 0.95960  0.55730  0.14870  Biso   1.000  N
  N58      1.0000 0.44270  0.95960  0.14870  Biso   1.000  N
  N59      1.0000 0.55730  0.04040  0.14870  Biso   1.000  N
  N60      1.0000 0.45960  0.05730  0.64870  Biso   1.000  N
  N61      1.0000 0.94270  0.45960  0.64870  Biso   1.000  N
  N62      1.0000 0.05730  0.54040  0.64870  Biso   1.000  N
  N63      1.0000 0.04040  0.44270  0.14870  Biso   1.000  N
  N64      1.0000 0.54040  0.94270  0.64870  Biso   1.000  N
  C33      1.0000 0.03250  0.38000  0.83990  Biso   1.000  C
  C34      1.0000 0.62000  0.03250  0.83990  Biso   1.000  C
  C35      1.0000 0.38000  0.96750  0.83990  Biso   1.000  C
  C36      1.0000 0.53250  0.88000  0.33990  Biso   1.000  C
  C37      1.0000 0.12000  0.53250  0.33990  Biso   1.000  C
  C38      1.0000 0.88000  0.46750  0.33990  Biso   1.000  C
  C39      1.0000 0.96750  0.62000  0.83990  Biso   1.000  C
  C40      1.0000 0.46750  0.12000  0.33990  Biso   1.000  C
  C41      1.0000 0.96750  0.62000  0.16010  Biso   1.000  C
  C42      1.0000 0.38000  0.96750  0.16010  Biso   1.000  C
  C43      1.0000 0.62000  0.03250  0.16010  Biso   1.000  C
  C44      1.0000 0.46750  0.12000  0.66010  Biso   1.000  C
  C45      1.0000 0.88000  0.46750  0.66010  Biso   1.000  C
  C46      1.0000 0.12000  0.53250  0.66010  Biso   1.000  C
  C47      1.0000 0.03250  0.38000  0.16010  Biso   1.000  C
  C48      1.0000 0.53250  0.88000  0.66010  Biso   1.000  C
  H169     1.0000 0.00250  0.35320  0.86320  Biso   1.000  H
  H170     1.0000 0.64680  0.00250  0.86320  Biso   1.000  H
  H171     1.0000 0.35320  0.99750  0.86320  Biso   1.000  H
  H172     1.0000 0.50250  0.85320  0.36320  Biso   1.000  H
  H173     1.0000 0.14680  0.50250  0.36320  Biso   1.000  H
  H174     1.0000 0.85320  0.49750  0.36320  Biso   1.000  H
  H175     1.0000 0.99750  0.64680  0.86320  Biso   1.000  H
  H176     1.0000 0.49750  0.14680  0.36320  Biso   1.000  H
  H177     1.0000 0.99750  0.64680  0.13680  Biso   1.000  H
  H178     1.0000 0.35320  0.99750  0.13680  Biso   1.000  H
  H179     1.0000 0.64680  0.00250  0.13680  Biso   1.000  H
  H180     1.0000 0.49750  0.14680  0.63680  Biso   1.000  H
  H181     1.0000 0.85320  0.49750  0.63680  Biso   1.000  H
  H182     1.0000 0.14680  0.50250  0.63680  Biso   1.000  H
  H183     1.0000 0.00250  0.35320  0.13680  Biso   1.000  H
  H184     1.0000 0.50250  0.85320  0.63680  Biso   1.000  H
  O113     1.0000 0.10036  0.26194  0.87802  Biso   1.000  O
  O114     1.0000 0.73806  0.10036  0.87802  Biso   1.000  O
  O115     1.0000 0.26194  0.89964  0.87802  Biso   1.000  O
  O116     1.0000 0.60036  0.76194  0.37802  Biso   1.000  O
  O117     1.0000 0.23806  0.60036  0.37802  Biso   1.000  O
  O118     1.0000 0.76194  0.39964  0.37802  Biso   1.000  O
  O119     1.0000 0.89964  0.73806  0.87802  Biso   1.000  O
  O120     1.0000 0.39964  0.23806  0.37802  Biso   1.000  O
  O121     1.0000 0.89964  0.73806  0.12198  Biso   1.000  O
  O122     1.0000 0.26194  0.89964  0.12198  Biso   1.000  O
  O123     1.0000 0.73806  0.10036  0.12198  Biso   1.000  O
  O124     1.0000 0.39964  0.23806  0.62198  Biso   1.000  O
  O125     1.0000 0.76194  0.39964  0.62198  Biso   1.000  O
  O126     1.0000 0.23806  0.60036  0.62198  Biso   1.000  O
  O127     1.0000 0.10036  0.26194  0.12198  Biso   1.000  O
  O128     1.0000 0.60036  0.76194  0.62198  Biso   1.000  O
  O129     1.0000 0.08280  0.18682  0.79370  Biso   1.000  O
  O130     1.0000 0.81318  0.08280  0.79370  Biso   1.000  O
  O131     1.0000 0.18682  0.91720  0.79370  Biso   1.000  O
  O132     1.0000 0.58280  0.68682  0.29370  Biso   1.000  O
  O133     1.0000 0.31318  0.58280  0.29370  Biso   1.000  O
  O134     1.0000 0.68682  0.41720  0.29370  Biso   1.000  O
  O135     1.0000 0.91720  0.81318  0.79370  Biso   1.000  O
  O136     1.0000 0.41720  0.31318  0.29370  Biso   1.000  O
  O137     1.0000 0.91720  0.81318  0.20630  Biso   1.000  O
  O138     1.0000 0.18682  0.91720  0.20630  Biso   1.000  O
  O139     1.0000 0.81318  0.08280  0.20630  Biso   1.000  O
  O140     1.0000 0.41720  0.31318  0.70630  Biso   1.000  O
  O141     1.0000 0.68682  0.41720  0.70630  Biso   1.000  O
  O142     1.0000 0.31318  0.58280  0.70630  Biso   1.000  O
  O143     1.0000 0.08280  0.18682  0.20630  Biso   1.000  O
  O144     1.0000 0.58280  0.68682  0.70630  Biso   1.000  O
  O145     1.0000 0.25260  0.12470  0.00000  Biso   1.000  O
  O146     1.0000 0.87530  0.25260  0.00000  Biso   1.000  O
  O147     1.0000 0.12470  0.74740  0.00000  Biso   1.000  O
  O148     1.0000 0.75260  0.62470  0.50000  Biso   1.000  O
  O149     1.0000 0.37530  0.75260  0.50000  Biso   1.000  O
  O150     1.0000 0.62470  0.24740  0.50000  Biso   1.000  O
  O151     1.0000 0.74740  0.87530  0.00000  Biso   1.000  O
  O152     1.0000 0.24740  0.37530  0.50000  Biso   1.000  O
  O153     1.0000 0.20470  0.22310  0.00000  Biso   1.000  O
  O154     1.0000 0.77690  0.20470  0.00000  Biso   1.000  O
  O155     1.0000 0.22310  0.79530  0.00000  Biso   1.000  O
  O156     1.0000 0.70470  0.72310  0.50000  Biso   1.000  O
  O157     1.0000 0.27690  0.70470  0.50000  Biso   1.000  O
  O158     1.0000 0.72310  0.29530  0.50000  Biso   1.000  O
  O159     1.0000 0.79530  0.77690  0.00000  Biso   1.000  O
  O160     1.0000 0.29530  0.27690  0.50000  Biso   1.000  O
  N65      1.0000 0.44620  0.10990  0.04260  Biso   1.000  N
  N66      1.0000 0.89010  0.44620  0.04260  Biso   1.000  N
  N67      1.0000 0.10990  0.55380  0.04260  Biso   1.000  N
  N68      1.0000 0.94620  0.60990  0.54260  Biso   1.000  N
  N69      1.0000 0.39010  0.94620  0.54260  Biso   1.000  N
  N70      1.0000 0.60990  0.05380  0.54260  Biso   1.000  N
  N71      1.0000 0.55380  0.89010  0.04260  Biso   1.000  N
  N72      1.0000 0.05380  0.39010  0.54260  Biso   1.000  N
  N73      1.0000 0.55380  0.89010  0.95740  Biso   1.000  N
  N74      1.0000 0.10990  0.55380  0.95740  Biso   1.000  N
  N75      1.0000 0.89010  0.44620  0.95740  Biso   1.000  N
  N76      1.0000 0.05380  0.39010  0.45740  Biso   1.000  N
  N77      1.0000 0.60990  0.05380  0.45740  Biso   1.000  N
  N78      1.0000 0.39010  0.94620  0.45740  Biso   1.000  N
  N79      1.0000 0.44620  0.10990  0.95740  Biso   1.000  N
  N80      1.0000 0.94620  0.60990  0.45740  Biso   1.000  N
  C49      1.0000 0.25200  0.18540  0.00000  Biso   1.000  C
  C50      1.0000 0.81460  0.25200  0.00000  Biso   1.000  C
  C51      1.0000 0.18540  0.74800  0.00000  Biso   1.000  C
  C52      1.0000 0.75200  0.68540  0.50000  Biso   1.000  C
  C53      1.0000 0.31460  0.75200  0.50000  Biso   1.000  C
  C54      1.0000 0.68540  0.24800  0.50000  Biso   1.000  C
  C55      1.0000 0.74800  0.81460  0.00000  Biso   1.000  C
  C56      1.0000 0.24800  0.31460  0.50000  Biso   1.000  C
  C57      1.0000 0.31630  0.22150  0.00000  Biso   1.000  C
  C58      1.0000 0.77850  0.31630  0.00000  Biso   1.000  C
  C59      1.0000 0.22150  0.68370  0.00000  Biso   1.000  C
  C60      1.0000 0.81630  0.72150  0.50000  Biso   1.000  C
  C61      1.0000 0.27850  0.81630  0.50000  Biso   1.000  C
  C62      1.0000 0.72150  0.18370  0.50000  Biso   1.000  C
  C63      1.0000 0.68370  0.77850  0.00000  Biso   1.000  C
  C64      1.0000 0.18370  0.27850  0.50000  Biso   1.000  C
  H185     1.0000 0.31820  0.24920  0.04110  Biso   1.000  H
  H186     1.0000 0.75080  0.31820  0.04110  Biso   1.000  H
  H187     1.0000 0.24920  0.68180  0.04110  Biso   1.000  H
  H188     1.0000 0.81820  0.74920  0.54110  Biso   1.000  H
  H189     1.0000 0.25080  0.81820  0.54110  Biso   1.000  H
  H190     1.0000 0.74920  0.18180  0.54110  Biso   1.000  H
  H191     1.0000 0.68180  0.75080  0.04110  Biso   1.000  H
  H192     1.0000 0.18180  0.25080  0.54110  Biso   1.000  H
  H193     1.0000 0.68180  0.75080  0.95890  Biso   1.000  H
  H194     1.0000 0.24920  0.68180  0.95890  Biso   1.000  H
  H195     1.0000 0.75080  0.31820  0.95890  Biso   1.000  H
  H196     1.0000 0.18180  0.25080  0.45890  Biso   1.000  H
  H197     1.0000 0.74920  0.18180  0.45890  Biso   1.000  H
  H198     1.0000 0.25080  0.81820  0.45890  Biso   1.000  H
  H199     1.0000 0.31820  0.24920  0.95890  Biso   1.000  H
  H200     1.0000 0.81820  0.74920  0.45890  Biso   1.000  H
  N81      1.0000 0.37480  0.17850  0.00000  Biso   1.000  N
  N82      1.0000 0.82150  0.37480  0.00000  Biso   1.000  N
  N83      1.0000 0.17850  0.62520  0.00000  Biso   1.000  N
  N84      1.0000 0.87480  0.67850  0.50000  Biso   1.000  N
  N85      1.0000 0.32150  0.87480  0.50000  Biso   1.000  N
  N86      1.0000 0.67850  0.12520  0.50000  Biso   1.000  N
  N87      1.0000 0.62520  0.82150  0.00000  Biso   1.000  N
  N88      1.0000 0.12520  0.32150  0.50000  Biso   1.000  N
  C65      1.0000 0.39610  0.14490  0.06300  Biso   1.000  C
  C66      1.0000 0.85510  0.39610  0.06300  Biso   1.000  C
  C67      1.0000 0.14490  0.60390  0.06300  Biso   1.000  C
  C68      1.0000 0.89610  0.64490  0.56300  Biso   1.000  C
  C69      1.0000 0.35510  0.89610  0.56300  Biso   1.000  C
  C70      1.0000 0.64490  0.10390  0.56300  Biso   1.000  C
  C71      1.0000 0.60390  0.85510  0.06300  Biso   1.000  C
  C72      1.0000 0.10390  0.35510  0.56300  Biso   1.000  C
  C73      1.0000 0.60390  0.85510  0.93700  Biso   1.000  C
  C74      1.0000 0.14490  0.60390  0.93700  Biso   1.000  C
  C75      1.0000 0.85510  0.39610  0.93700  Biso   1.000  C
  C76      1.0000 0.10390  0.35510  0.43700  Biso   1.000  C
  C77      1.0000 0.64490  0.10390  0.43700  Biso   1.000  C
  C78      1.0000 0.35510  0.89610  0.43700  Biso   1.000  C
  C79      1.0000 0.39610  0.14490  0.93700  Biso   1.000  C
  C80      1.0000 0.89610  0.64490  0.43700  Biso   1.000  C
  H201     1.0000 0.37780  0.14950  0.10970  Biso   1.000  H
  H202     1.0000 0.85050  0.37780  0.10970  Biso   1.000  H
  H203     1.0000 0.14950  0.62220  0.10970  Biso   1.000  H
  H204     1.0000 0.87780  0.64950  0.60970  Biso   1.000  H
  H205     1.0000 0.35050  0.87780  0.60970  Biso   1.000  H
  H206     1.0000 0.64950  0.12220  0.60970  Biso   1.000  H
  H207     1.0000 0.62220  0.85050  0.10970  Biso   1.000  H
  H208     1.0000 0.12220  0.35050  0.60970  Biso   1.000  H
  H209     1.0000 0.62220  0.85050  0.89030  Biso   1.000  H
  H210     1.0000 0.14950  0.62220  0.89030  Biso   1.000  H
  H211     1.0000 0.85050  0.37780  0.89030  Biso   1.000  H
  H212     1.0000 0.12220  0.35050  0.39030  Biso   1.000  H
  H213     1.0000 0.64950  0.12220  0.39030  Biso   1.000  H
  H214     1.0000 0.35050  0.87780  0.39030  Biso   1.000  H
  H215     1.0000 0.37780  0.14950  0.89030  Biso   1.000  H
  H216     1.0000 0.87780  0.64950  0.39030  Biso   1.000  H
  N89      1.0000 0.23330  0.11110  0.79190  Biso   1.000  N
  N90      1.0000 0.88890  0.23330  0.79190  Biso   1.000  N
  N91      1.0000 0.11110  0.76670  0.79190  Biso   1.000  N
  N92      1.0000 0.73330  0.61110  0.29190  Biso   1.000  N
  N93      1.0000 0.38890  0.73330  0.29190  Biso   1.000  N
  N94      1.0000 0.61110  0.26670  0.29190  Biso   1.000  N
  N95      1.0000 0.76670  0.88890  0.79190  Biso   1.000  N
  N96      1.0000 0.26670  0.38890  0.29190  Biso   1.000  N
  N97      1.0000 0.76670  0.88890  0.20810  Biso   1.000  N
  N98      1.0000 0.11110  0.76670  0.20810  Biso   1.000  N
  N99      1.0000 0.88890  0.23330  0.20810  Biso   1.000  N
  N100     1.0000 0.26670  0.38890  0.70810  Biso   1.000  N
  N101     1.0000 0.61110  0.26670  0.70810  Biso   1.000  N
  N102     1.0000 0.38890  0.73330  0.70810  Biso   1.000  N
  N103     1.0000 0.23330  0.11110  0.20810  Biso   1.000  N
  N104     1.0000 0.73330  0.61110  0.70810  Biso   1.000  N
  O161     1.0000 0.20020  0.08620  0.74300  Biso   1.000  O
  O162     1.0000 0.91380  0.20020  0.74300  Biso   1.000  O
  O163     1.0000 0.08620  0.79980  0.74300  Biso   1.000  O
  O164     1.0000 0.70020  0.58620  0.24300  Biso   1.000  O
  O165     1.0000 0.41380  0.70020  0.24300  Biso   1.000  O
  O166     1.0000 0.58620  0.29980  0.24300  Biso   1.000  O
  O167     1.0000 0.79980  0.91380  0.74300  Biso   1.000  O
  O168     1.0000 0.29980  0.41380  0.24300  Biso   1.000  O
  O169     1.0000 0.79980  0.91380  0.25700  Biso   1.000  O
  O170     1.0000 0.08620  0.79980  0.25700  Biso   1.000  O
  O171     1.0000 0.91380  0.20020  0.25700  Biso   1.000  O
  O172     1.0000 0.29980  0.41380  0.75700  Biso   1.000  O
  O173     1.0000 0.58620  0.29980  0.75700  Biso   1.000  O
  O174     1.0000 0.41380  0.70020  0.75700  Biso   1.000  O
  O175     1.0000 0.20020  0.08620  0.25700  Biso   1.000  O
  O176     1.0000 0.70020  0.58620  0.75700  Biso   1.000  O
  O177     1.0000 0.26060  0.06550  0.83770  Biso   1.000  O
  O178     1.0000 0.93450  0.26060  0.83770  Biso   1.000  O
  O179     1.0000 0.06550  0.73940  0.83770  Biso   1.000  O
  O180     1.0000 0.76060  0.56550  0.33770  Biso   1.000  O
  O181     1.0000 0.43450  0.76060  0.33770  Biso   1.000  O
  O182     1.0000 0.56550  0.23940  0.33770  Biso   1.000  O
  O183     1.0000 0.73940  0.93450  0.83770  Biso   1.000  O
  O184     1.0000 0.23940  0.43450  0.33770  Biso   1.000  O
  O185     1.0000 0.73940  0.93450  0.16230  Biso   1.000  O
  O186     1.0000 0.06550  0.73940  0.16230  Biso   1.000  O
  O187     1.0000 0.93450  0.26060  0.16230  Biso   1.000  O
  O188     1.0000 0.23940  0.43450  0.66230  Biso   1.000  O
  O189     1.0000 0.56550  0.23940  0.66230  Biso   1.000  O
  O190     1.0000 0.43450  0.76060  0.66230  Biso   1.000  O
  O191     1.0000 0.26060  0.06550  0.16230  Biso   1.000  O
  O192     1.0000 0.76060  0.56550  0.66230  Biso   1.000  O
  O193     1.0000 0.24180  0.16790  0.81670  Biso   1.000  O
  O194     1.0000 0.83210  0.24180  0.81670  Biso   1.000  O
  O195     1.0000 0.16790  0.75820  0.81670  Biso   1.000  O
  O196     1.0000 0.74180  0.66790  0.31670  Biso   1.000  O
  O197     1.0000 0.33210  0.74180  0.31670  Biso   1.000  O
  O198     1.0000 0.66790  0.25820  0.31670  Biso   1.000  O
  O199     1.0000 0.75820  0.83210  0.81670  Biso   1.000  O
  O200     1.0000 0.25820  0.33210  0.31670  Biso   1.000  O
  O201     1.0000 0.75820  0.83210  0.18330  Biso   1.000  O
  O202     1.0000 0.16790  0.75820  0.18330  Biso   1.000  O
  O203     1.0000 0.83210  0.24180  0.18330  Biso   1.000  O
  O204     1.0000 0.25820  0.33210  0.68330  Biso   1.000  O
  O205     1.0000 0.66790  0.25820  0.68330  Biso   1.000  O
  O206     1.0000 0.33210  0.74180  0.68330  Biso   1.000  O
  O207     1.0000 0.24180  0.16790  0.18330  Biso   1.000  O
  O208     1.0000 0.74180  0.66790  0.68330  Biso   1.000  O
  O209     1.0000 0.25410  0.15840  0.74560  Biso   1.000  O
  O210     1.0000 0.84160  0.25410  0.74560  Biso   1.000  O
  O211     1.0000 0.15840  0.74590  0.74560  Biso   1.000  O
  O212     1.0000 0.75410  0.65840  0.24560  Biso   1.000  O
  O213     1.0000 0.34160  0.75410  0.24560  Biso   1.000  O
  O214     1.0000 0.65840  0.24590  0.24560  Biso   1.000  O
  O215     1.0000 0.74590  0.84160  0.74560  Biso   1.000  O
  O216     1.0000 0.24590  0.34160  0.24560  Biso   1.000  O
  O217     1.0000 0.74590  0.84160  0.25440  Biso   1.000  O
  O218     1.0000 0.15840  0.74590  0.25440  Biso   1.000  O
  O219     1.0000 0.84160  0.25410  0.25440  Biso   1.000  O
  O220     1.0000 0.24590  0.34160  0.75440  Biso   1.000  O
  O221     1.0000 0.65840  0.24590  0.75440  Biso   1.000  O
  O222     1.0000 0.34160  0.75410  0.75440  Biso   1.000  O
  O223     1.0000 0.25410  0.15840  0.25440  Biso   1.000  O
  O224     1.0000 0.75410  0.65840  0.75440  Biso   1.000  O
  O225     1.0000 0.24430  0.11960  0.85390  Biso   1.000  O
  O226     1.0000 0.88040  0.24430  0.85390  Biso   1.000  O
  O227     1.0000 0.11960  0.75570  0.85390  Biso   1.000  O
  O228     1.0000 0.74430  0.61960  0.35390  Biso   1.000  O
  O229     1.0000 0.38040  0.74430  0.35390  Biso   1.000  O
  O230     1.0000 0.61960  0.25570  0.35390  Biso   1.000  O
  O231     1.0000 0.75570  0.88040  0.85390  Biso   1.000  O
  O232     1.0000 0.25570  0.38040  0.35390  Biso   1.000  O
  O233     1.0000 0.75570  0.88040  0.14610  Biso   1.000  O
  O234     1.0000 0.11960  0.75570  0.14610  Biso   1.000  O
  O235     1.0000 0.88040  0.24430  0.14610  Biso   1.000  O
  O236     1.0000 0.25570  0.38040  0.64610  Biso   1.000  O
  O237     1.0000 0.61960  0.25570  0.64610  Biso   1.000  O
  O238     1.0000 0.38040  0.74430  0.64610  Biso   1.000  O
  O239     1.0000 0.24430  0.11960  0.14610  Biso   1.000  O
  O240     1.0000 0.74430  0.61960  0.64610  Biso   1.000  O
  O241     1.0000 0.21500  0.05740  0.76490  Biso   1.000  O
  O242     1.0000 0.94260  0.21500  0.76490  Biso   1.000  O
  O243     1.0000 0.05740  0.78500  0.76490  Biso   1.000  O
  O244     1.0000 0.71500  0.55740  0.26490  Biso   1.000  O
  O245     1.0000 0.44260  0.71500  0.26490  Biso   1.000  O
  O246     1.0000 0.55740  0.28500  0.26490  Biso   1.000  O
  O247     1.0000 0.78500  0.94260  0.76490  Biso   1.000  O
  O248     1.0000 0.28500  0.44260  0.26490  Biso   1.000  O
  O249     1.0000 0.78500  0.94260  0.23510  Biso   1.000  O
  O250     1.0000 0.05740  0.78500  0.23510  Biso   1.000  O
  O251     1.0000 0.94260  0.21500  0.23510  Biso   1.000  O
  O252     1.0000 0.28500  0.44260  0.73510  Biso   1.000  O
  O253     1.0000 0.55740  0.28500  0.73510  Biso   1.000  O
  O254     1.0000 0.44260  0.71500  0.73510  Biso   1.000  O
  O255     1.0000 0.21500  0.05740  0.23510  Biso   1.000  O
  O256     1.0000 0.71500  0.55740  0.73510  Biso   1.000  O
  N105     1.0000 0.37200  0.56800  0.00000  Biso   1.000  N
  N106     1.0000 0.43200  0.37200  0.00000  Biso   1.000  N
  N107     1.0000 0.56800  0.62800  0.00000  Biso   1.000  N
  N108     1.0000 0.87200  0.06800  0.50000  Biso   1.000  N
  N109     1.0000 0.93200  0.87200  0.50000  Biso   1.000  N
  N110     1.0000 0.06800  0.12800  0.50000  Biso   1.000  N
  N111     1.0000 0.62800  0.43200  0.00000  Biso   1.000  N
  N112     1.0000 0.12800  0.93200  0.50000  Biso   1.000  N
  O257     1.0000 0.39700  0.51300  0.00000  Biso   1.000  O
  O258     1.0000 0.48700  0.39700  0.00000  Biso   1.000  O
  O259     1.0000 0.51300  0.60300  0.00000  Biso   1.000  O
  O260     1.0000 0.89700  0.01300  0.50000  Biso   1.000  O
  O261     1.0000 0.98700  0.89700  0.50000  Biso   1.000  O
  O262     1.0000 0.01300  0.10300  0.50000  Biso   1.000  O
  O263     1.0000 0.60300  0.48700  0.00000  Biso   1.000  O
  O264     1.0000 0.10300  0.98700  0.50000  Biso   1.000  O
  O265     1.0000 0.35600  0.60100  0.94700  Biso   1.000  O
  O266     1.0000 0.39900  0.35600  0.94700  Biso   1.000  O
  O267     1.0000 0.60100  0.64400  0.94700  Biso   1.000  O
  O268     1.0000 0.85600  0.10100  0.44700  Biso   1.000  O
  O269     1.0000 0.89900  0.85600  0.44700  Biso   1.000  O
  O270     1.0000 0.10100  0.14400  0.44700  Biso   1.000  O
  O271     1.0000 0.64400  0.39900  0.94700  Biso   1.000  O
  O272     1.0000 0.14400  0.89900  0.44700  Biso   1.000  O
  O273     1.0000 0.64400  0.39900  0.05300  Biso   1.000  O
  O274     1.0000 0.60100  0.64400  0.05300  Biso   1.000  O
  O275     1.0000 0.39900  0.35600  0.05300  Biso   1.000  O
  O276     1.0000 0.14400  0.89900  0.55300  Biso   1.000  O
  O277     1.0000 0.10100  0.14400  0.55300  Biso   1.000  O
  O278     1.0000 0.89900  0.85600  0.55300  Biso   1.000  O
  O279     1.0000 0.35600  0.60100  0.05300  Biso   1.000  O
  O280     1.0000 0.85600  0.10100  0.55300  Biso   1.000  O
  O281     1.0000 0.21930  0.38420  0.09800  Biso   1.000  O
  O282     1.0000 0.61580  0.21930  0.09800  Biso   1.000  O
  O283     1.0000 0.38420  0.78070  0.09800  Biso   1.000  O
  O284     1.0000 0.71930  0.88420  0.59800  Biso   1.000  O
  O285     1.0000 0.11580  0.71930  0.59800  Biso   1.000  O
  O286     1.0000 0.88420  0.28070  0.59800  Biso   1.000  O
  O287     1.0000 0.78070  0.61580  0.09800  Biso   1.000  O
  O288     1.0000 0.28070  0.11580  0.59800  Biso   1.000  O
  O289     1.0000 0.78070  0.61580  0.90200  Biso   1.000  O
  O290     1.0000 0.38420  0.78070  0.90200  Biso   1.000  O
  O291     1.0000 0.61580  0.21930  0.90200  Biso   1.000  O
  O292     1.0000 0.28070  0.11580  0.40200  Biso   1.000  O
  O293     1.0000 0.88420  0.28070  0.40200  Biso   1.000  O
  O294     1.0000 0.11580  0.71930  0.40200  Biso   1.000  O
  O295     1.0000 0.21930  0.38420  0.90200  Biso   1.000  O
  O296     1.0000 0.71930  0.88420  0.40200  Biso   1.000  O
  H217     1.0000 0.20190  0.39740  0.13650  Biso   1.000  H
  H218     1.0000 0.60260  0.20190  0.13650  Biso   1.000  H
  H219     1.0000 0.39740  0.79810  0.13650  Biso   1.000  H
  H220     1.0000 0.70190  0.89740  0.63650  Biso   1.000  H
  H221     1.0000 0.10260  0.70190  0.63650  Biso   1.000  H
  H222     1.0000 0.89740  0.29810  0.63650  Biso   1.000  H
  H223     1.0000 0.79810  0.60260  0.13650  Biso   1.000  H
  H224     1.0000 0.29810  0.10260  0.63650  Biso   1.000  H
  H225     1.0000 0.79810  0.60260  0.86350  Biso   1.000  H
  H226     1.0000 0.39740  0.79810  0.86350  Biso   1.000  H
  H227     1.0000 0.60260  0.20190  0.86350  Biso   1.000  H
  H228     1.0000 0.29810  0.10260  0.36350  Biso   1.000  H
  H229     1.0000 0.89740  0.29810  0.36350  Biso   1.000  H
  H230     1.0000 0.10260  0.70190  0.36350  Biso   1.000  H
  H231     1.0000 0.20190  0.39740  0.86350  Biso   1.000  H
  H232     1.0000 0.70190  0.89740  0.36350  Biso   1.000  H
  H233     1.0000 0.24480  0.35230  0.10670  Biso   1.000  H
  H234     1.0000 0.64770  0.24480  0.10670  Biso   1.000  H
  H235     1.0000 0.35230  0.75520  0.10670  Biso   1.000  H
  H236     1.0000 0.74480  0.85230  0.60670  Biso   1.000  H
  H237     1.0000 0.14770  0.74480  0.60670  Biso   1.000  H
  H238     1.0000 0.85230  0.25520  0.60670  Biso   1.000  H
  H239     1.0000 0.75520  0.64770  0.10670  Biso   1.000  H
  H240     1.0000 0.25520  0.14770  0.60670  Biso   1.000  H
  H241     1.0000 0.75520  0.64770  0.89330  Biso   1.000  H
  H242     1.0000 0.35230  0.75520  0.89330  Biso   1.000  H
  H243     1.0000 0.64770  0.24480  0.89330  Biso   1.000  H
  H244     1.0000 0.25520  0.14770  0.39330  Biso   1.000  H
  H245     1.0000 0.85230  0.25520  0.39330  Biso   1.000  H
  H246     1.0000 0.14770  0.74480  0.39330  Biso   1.000  H
  H247     1.0000 0.24480  0.35230  0.89330  Biso   1.000  H
  H248     1.0000 0.74480  0.85230  0.39330  Biso   1.000  H
