data_image0
_cell_length_a       20.462
_cell_length_b       20.462
_cell_length_c       18.9592
_cell_angle_alpha    90
_cell_angle_beta     90
_cell_angle_gamma    90

_symmetry_space_group_name_H-M    "P 1"
_symmetry_int_tables_number       1

loop_
  _symmetry_equiv_pos_as_xyz
  'x, y, z'

loop_
  _atom_site_label
  _atom_site_occupancy
  _atom_site_fract_x
  _atom_site_fract_y
  _atom_site_fract_z
  _atom_site_thermal_displace_type
  _atom_site_B_iso_or_equiv
  _atom_site_type_symbol
  Cl1      1.0000 0.00000  0.00000  0.00000  Biso   1.000  Cl
  Cl2      1.0000 0.50000  0.50000  0.50000  Biso   1.000  Cl
  N1       1.0000 0.23530  0.11170  0.79630  Biso   1.000  N
  N2       1.0000 0.88830  0.23530  0.79630  Biso   1.000  N
  N3       1.0000 0.11170  0.76470  0.79630  Biso   1.000  N
  N4       1.0000 0.73530  0.61170  0.29630  Biso   1.000  N
  N5       1.0000 0.38830  0.73530  0.29630  Biso   1.000  N
  N6       1.0000 0.61170  0.26470  0.29630  Biso   1.000  N
  N7       1.0000 0.76470  0.88830  0.79630  Biso   1.000  N
  N8       1.0000 0.26470  0.38830  0.29630  Biso   1.000  N
  N9       1.0000 0.76470  0.88830  0.20370  Biso   1.000  N
  N10      1.0000 0.11170  0.76470  0.20370  Biso   1.000  N
  N11      1.0000 0.88830  0.23530  0.20370  Biso   1.000  N
  N12      1.0000 0.26470  0.38830  0.70370  Biso   1.000  N
  N13      1.0000 0.61170  0.26470  0.70370  Biso   1.000  N
  N14      1.0000 0.38830  0.73530  0.70370  Biso   1.000  N
  N15      1.0000 0.23530  0.11170  0.20370  Biso   1.000  N
  N16      1.0000 0.73530  0.61170  0.70370  Biso   1.000  N
  O1       1.0000 0.20340  0.08710  0.74440  Biso   1.000  O
  O2       1.0000 0.91290  0.20340  0.74440  Biso   1.000  O
  O3       1.0000 0.08710  0.79660  0.74440  Biso   1.000  O
  O4       1.0000 0.70340  0.58710  0.24440  Biso   1.000  O
  O5       1.0000 0.41290  0.70340  0.24440  Biso   1.000  O
  O6       1.0000 0.58710  0.29660  0.24440  Biso   1.000  O
  O7       1.0000 0.79660  0.91290  0.74440  Biso   1.000  O
  O8       1.0000 0.29660  0.41290  0.24440  Biso   1.000  O
  O9       1.0000 0.79660  0.91290  0.25560  Biso   1.000  O
  O10      1.0000 0.08710  0.79660  0.25560  Biso   1.000  O
  O11      1.0000 0.91290  0.20340  0.25560  Biso   1.000  O
  O12      1.0000 0.29660  0.41290  0.75560  Biso   1.000  O
  O13      1.0000 0.58710  0.29660  0.75560  Biso   1.000  O
  O14      1.0000 0.41290  0.70340  0.75560  Biso   1.000  O
  O15      1.0000 0.20340  0.08710  0.25560  Biso   1.000  O
  O16      1.0000 0.70340  0.58710  0.75560  Biso   1.000  O
  O17      1.0000 0.26080  0.07050  0.84150  Biso   1.000  O
  O18      1.0000 0.92950  0.26080  0.84150  Biso   1.000  O
  O19      1.0000 0.07050  0.73920  0.84150  Biso   1.000  O
  O20      1.0000 0.76080  0.57050  0.34150  Biso   1.000  O
  O21      1.0000 0.42950  0.76080  0.34150  Biso   1.000  O
  O22      1.0000 0.57050  0.23920  0.34150  Biso   1.000  O
  O23      1.0000 0.73920  0.92950  0.84150  Biso   1.000  O
  O24      1.0000 0.23920  0.42950  0.34150  Biso   1.000  O
  O25      1.0000 0.73920  0.92950  0.15850  Biso   1.000  O
  O26      1.0000 0.07050  0.73920  0.15850  Biso   1.000  O
  O27      1.0000 0.92950  0.26080  0.15850  Biso   1.000  O
  O28      1.0000 0.23920  0.42950  0.65850  Biso   1.000  O
  O29      1.0000 0.57050  0.23920  0.65850  Biso   1.000  O
  O30      1.0000 0.42950  0.76080  0.65850  Biso   1.000  O
  O31      1.0000 0.26080  0.07050  0.15850  Biso   1.000  O
  O32      1.0000 0.76080  0.57050  0.65850  Biso   1.000  O
  O33      1.0000 0.24100  0.17220  0.80800  Biso   1.000  O
  O34      1.0000 0.82780  0.24100  0.80800  Biso   1.000  O
  O35      1.0000 0.17220  0.75900  0.80800  Biso   1.000  O
  O36      1.0000 0.74100  0.67220  0.30800  Biso   1.000  O
  O37      1.0000 0.32780  0.74100  0.30800  Biso   1.000  O
  O38      1.0000 0.67220  0.25900  0.30800  Biso   1.000  O
  O39      1.0000 0.75900  0.82780  0.80800  Biso   1.000  O
  O40      1.0000 0.25900  0.32780  0.30800  Biso   1.000  O
  O41      1.0000 0.75900  0.82780  0.19200  Biso   1.000  O
  O42      1.0000 0.17220  0.75900  0.19200  Biso   1.000  O
  O43      1.0000 0.82780  0.24100  0.19200  Biso   1.000  O
  O44      1.0000 0.25900  0.32780  0.69200  Biso   1.000  O
  O45      1.0000 0.67220  0.25900  0.69200  Biso   1.000  O
  O46      1.0000 0.32780  0.74100  0.69200  Biso   1.000  O
  O47      1.0000 0.24100  0.17220  0.19200  Biso   1.000  O
  O48      1.0000 0.74100  0.67220  0.69200  Biso   1.000  O
  O49      1.0000 0.22330  0.38590  0.09720  Biso   1.000  O
  O50      1.0000 0.61410  0.22330  0.09720  Biso   1.000  O
  O51      1.0000 0.38590  0.77670  0.09720  Biso   1.000  O
  O52      1.0000 0.72330  0.88590  0.59720  Biso   1.000  O
  O53      1.0000 0.11410  0.72330  0.59720  Biso   1.000  O
  O54      1.0000 0.88590  0.27670  0.59720  Biso   1.000  O
  O55      1.0000 0.77670  0.61410  0.09720  Biso   1.000  O
  O56      1.0000 0.27670  0.11410  0.59720  Biso   1.000  O
  O57      1.0000 0.77670  0.61410  0.90280  Biso   1.000  O
  O58      1.0000 0.38590  0.77670  0.90280  Biso   1.000  O
  O59      1.0000 0.61410  0.22330  0.90280  Biso   1.000  O
  O60      1.0000 0.27670  0.11410  0.40280  Biso   1.000  O
  O61      1.0000 0.88590  0.27670  0.40280  Biso   1.000  O
  O62      1.0000 0.11410  0.72330  0.40280  Biso   1.000  O
  O63      1.0000 0.22330  0.38590  0.90280  Biso   1.000  O
  O64      1.0000 0.72330  0.88590  0.40280  Biso   1.000  O
  H1       1.0000 0.20590  0.39910  0.13570  Biso   1.000  H
  H2       1.0000 0.60090  0.20590  0.13570  Biso   1.000  H
  H3       1.0000 0.39910  0.79410  0.13570  Biso   1.000  H
  H4       1.0000 0.70590  0.89910  0.63570  Biso   1.000  H
  H5       1.0000 0.10090  0.70590  0.63570  Biso   1.000  H
  H6       1.0000 0.89910  0.29410  0.63570  Biso   1.000  H
  H7       1.0000 0.79410  0.60090  0.13570  Biso   1.000  H
  H8       1.0000 0.29410  0.10090  0.63570  Biso   1.000  H
  H9       1.0000 0.79410  0.60090  0.86430  Biso   1.000  H
  H10      1.0000 0.39910  0.79410  0.86430  Biso   1.000  H
  H11      1.0000 0.60090  0.20590  0.86430  Biso   1.000  H
  H12      1.0000 0.29410  0.10090  0.36430  Biso   1.000  H
  H13      1.0000 0.89910  0.29410  0.36430  Biso   1.000  H
  H14      1.0000 0.10090  0.70590  0.36430  Biso   1.000  H
  H15      1.0000 0.20590  0.39910  0.86430  Biso   1.000  H
  H16      1.0000 0.70590  0.89910  0.36430  Biso   1.000  H
  H17      1.0000 0.24880  0.35400  0.10590  Biso   1.000  H
  H18      1.0000 0.64600  0.24880  0.10590  Biso   1.000  H
  H19      1.0000 0.35400  0.75120  0.10590  Biso   1.000  H
  H20      1.0000 0.74880  0.85400  0.60590  Biso   1.000  H
  H21      1.0000 0.14600  0.74880  0.60590  Biso   1.000  H
  H22      1.0000 0.85400  0.25120  0.60590  Biso   1.000  H
  H23      1.0000 0.75120  0.64600  0.10590  Biso   1.000  H
  H24      1.0000 0.25120  0.14600  0.60590  Biso   1.000  H
  H25      1.0000 0.75120  0.64600  0.89410  Biso   1.000  H
  H26      1.0000 0.35400  0.75120  0.89410  Biso   1.000  H
  H27      1.0000 0.64600  0.24880  0.89410  Biso   1.000  H
  H28      1.0000 0.25120  0.14600  0.39410  Biso   1.000  H
  H29      1.0000 0.85400  0.25120  0.39410  Biso   1.000  H
  H30      1.0000 0.14600  0.74880  0.39410  Biso   1.000  H
  H31      1.0000 0.24880  0.35400  0.89410  Biso   1.000  H
  H32      1.0000 0.74880  0.85400  0.39410  Biso   1.000  H
  Nd1      1.0000 0.08805  0.22788  0.00000  Biso   1.000  Nd
  Nd2      1.0000 0.77212  0.08805  0.00000  Biso   1.000  Nd
  Nd3      1.0000 0.22788  0.91195  0.00000  Biso   1.000  Nd
  Nd4      1.0000 0.58805  0.72788  0.50000  Biso   1.000  Nd
  Nd5      1.0000 0.27212  0.58805  0.50000  Biso   1.000  Nd
  Nd6      1.0000 0.72788  0.41195  0.50000  Biso   1.000  Nd
  Nd7      1.0000 0.91195  0.77212  0.00000  Biso   1.000  Nd
  Nd8      1.0000 0.41195  0.27212  0.50000  Biso   1.000  Nd
  Nd9      1.0000 0.00000  0.00000  0.73189  Biso   1.000  Nd
  Nd10     1.0000 0.50000  0.50000  0.23189  Biso   1.000  Nd
  Nd11     1.0000 0.00000  0.00000  0.26811  Biso   1.000  Nd
  Nd12     1.0000 0.50000  0.50000  0.76811  Biso   1.000  Nd
  Cu1      1.0000 0.04158  0.10950  0.87159  Biso   1.000  Cu
  Cu2      1.0000 0.89050  0.04158  0.87159  Biso   1.000  Cu
  Cu3      1.0000 0.10950  0.95842  0.87159  Biso   1.000  Cu
  Cu4      1.0000 0.54158  0.60950  0.37159  Biso   1.000  Cu
  Cu5      1.0000 0.39050  0.54158  0.37159  Biso   1.000  Cu
  Cu6      1.0000 0.60950  0.45842  0.37159  Biso   1.000  Cu
  Cu7      1.0000 0.95842  0.89050  0.87159  Biso   1.000  Cu
  Cu8      1.0000 0.45842  0.39050  0.37159  Biso   1.000  Cu
  Cu9      1.0000 0.95842  0.89050  0.12841  Biso   1.000  Cu
  Cu10     1.0000 0.10950  0.95842  0.12841  Biso   1.000  Cu
  Cu11     1.0000 0.89050  0.04158  0.12841  Biso   1.000  Cu
  Cu12     1.0000 0.45842  0.39050  0.62841  Biso   1.000  Cu
  Cu13     1.0000 0.60950  0.45842  0.62841  Biso   1.000  Cu
  Cu14     1.0000 0.39050  0.54158  0.62841  Biso   1.000  Cu
  Cu15     1.0000 0.04158  0.10950  0.12841  Biso   1.000  Cu
  Cu16     1.0000 0.54158  0.60950  0.62841  Biso   1.000  Cu
  Cu17     1.0000 0.15149  0.06764  0.00000  Biso   1.000  Cu
  Cu18     1.0000 0.93236  0.15149  0.00000  Biso   1.000  Cu
  Cu19     1.0000 0.06764  0.84851  0.00000  Biso   1.000  Cu
  Cu20     1.0000 0.65149  0.56764  0.50000  Biso   1.000  Cu
  Cu21     1.0000 0.43236  0.65149  0.50000  Biso   1.000  Cu
  Cu22     1.0000 0.56764  0.34851  0.50000  Biso   1.000  Cu
  Cu23     1.0000 0.84851  0.93236  0.00000  Biso   1.000  Cu
  Cu24     1.0000 0.34851  0.43236  0.50000  Biso   1.000  Cu
  Cu25     1.0000 0.00000  0.50000  0.92423  Biso   1.000  Cu
  Cu26     1.0000 0.50000  0.00000  0.92423  Biso   1.000  Cu
  Cu27     1.0000 0.50000  0.00000  0.42423  Biso   1.000  Cu
  Cu28     1.0000 0.00000  0.50000  0.42423  Biso   1.000  Cu
  Cu29     1.0000 0.00000  0.50000  0.07577  Biso   1.000  Cu
  Cu30     1.0000 0.50000  0.00000  0.07577  Biso   1.000  Cu
  Cu31     1.0000 0.50000  0.00000  0.57577  Biso   1.000  Cu
  Cu32     1.0000 0.00000  0.50000  0.57577  Biso   1.000  Cu
  O65      1.0000 0.08490  0.03710  0.81840  Biso   1.000  O
  O66      1.0000 0.96290  0.08490  0.81840  Biso   1.000  O
  O67      1.0000 0.03710  0.91510  0.81840  Biso   1.000  O
  O68      1.0000 0.58490  0.53710  0.31840  Biso   1.000  O
  O69      1.0000 0.46290  0.58490  0.31840  Biso   1.000  O
  O70      1.0000 0.53710  0.41510  0.31840  Biso   1.000  O
  O71      1.0000 0.91510  0.96290  0.81840  Biso   1.000  O
  O72      1.0000 0.41510  0.46290  0.31840  Biso   1.000  O
  O73      1.0000 0.91510  0.96290  0.18160  Biso   1.000  O
  O74      1.0000 0.03710  0.91510  0.18160  Biso   1.000  O
  O75      1.0000 0.96290  0.08490  0.18160  Biso   1.000  O
  O76      1.0000 0.41510  0.46290  0.68160  Biso   1.000  O
  O77      1.0000 0.53710  0.41510  0.68160  Biso   1.000  O
  O78      1.0000 0.46290  0.58490  0.68160  Biso   1.000  O
  O79      1.0000 0.08490  0.03710  0.18160  Biso   1.000  O
  O80      1.0000 0.58490  0.53710  0.68160  Biso   1.000  O
  H33      1.0000 0.12300  0.05400  0.79260  Biso   1.000  H
  H34      1.0000 0.94600  0.12300  0.79260  Biso   1.000  H
  H35      1.0000 0.05400  0.87700  0.79260  Biso   1.000  H
  H36      1.0000 0.62300  0.55400  0.29260  Biso   1.000  H
  H37      1.0000 0.44600  0.62300  0.29260  Biso   1.000  H
  H38      1.0000 0.55400  0.37700  0.29260  Biso   1.000  H
  H39      1.0000 0.87700  0.94600  0.79260  Biso   1.000  H
  H40      1.0000 0.37700  0.44600  0.29260  Biso   1.000  H
  H41      1.0000 0.87700  0.94600  0.20740  Biso   1.000  H
  H42      1.0000 0.05400  0.87700  0.20740  Biso   1.000  H
  H43      1.0000 0.94600  0.12300  0.20740  Biso   1.000  H
  H44      1.0000 0.37700  0.44600  0.70740  Biso   1.000  H
  H45      1.0000 0.55400  0.37700  0.70740  Biso   1.000  H
  H46      1.0000 0.44600  0.62300  0.70740  Biso   1.000  H
  H47      1.0000 0.12300  0.05400  0.20740  Biso   1.000  H
  H48      1.0000 0.62300  0.55400  0.70740  Biso   1.000  H
  O81      1.0000 0.11780  0.12830  0.92930  Biso   1.000  O
  O82      1.0000 0.87170  0.11780  0.92930  Biso   1.000  O
  O83      1.0000 0.12830  0.88220  0.92930  Biso   1.000  O
  O84      1.0000 0.61780  0.62830  0.42930  Biso   1.000  O
  O85      1.0000 0.37170  0.61780  0.42930  Biso   1.000  O
  O86      1.0000 0.62830  0.38220  0.42930  Biso   1.000  O
  O87      1.0000 0.88220  0.87170  0.92930  Biso   1.000  O
  O88      1.0000 0.38220  0.37170  0.42930  Biso   1.000  O
  O89      1.0000 0.88220  0.87170  0.07070  Biso   1.000  O
  O90      1.0000 0.12830  0.88220  0.07070  Biso   1.000  O
  O91      1.0000 0.87170  0.11780  0.07070  Biso   1.000  O
  O92      1.0000 0.38220  0.37170  0.57070  Biso   1.000  O
  O93      1.0000 0.62830  0.38220  0.57070  Biso   1.000  O
  O94      1.0000 0.37170  0.61780  0.57070  Biso   1.000  O
  O95      1.0000 0.11780  0.12830  0.07070  Biso   1.000  O
  O96      1.0000 0.61780  0.62830  0.57070  Biso   1.000  O
  H49      1.0000 0.15400  0.14050  0.89770  Biso   1.000  H
  H50      1.0000 0.85950  0.15400  0.89770  Biso   1.000  H
  H51      1.0000 0.14050  0.84600  0.89770  Biso   1.000  H
  H52      1.0000 0.65400  0.64050  0.39770  Biso   1.000  H
  H53      1.0000 0.35950  0.65400  0.39770  Biso   1.000  H
  H54      1.0000 0.64050  0.34600  0.39770  Biso   1.000  H
  H55      1.0000 0.84600  0.85950  0.89770  Biso   1.000  H
  H56      1.0000 0.34600  0.35950  0.39770  Biso   1.000  H
  H57      1.0000 0.84600  0.85950  0.10230  Biso   1.000  H
  H58      1.0000 0.14050  0.84600  0.10230  Biso   1.000  H
  H59      1.0000 0.85950  0.15400  0.10230  Biso   1.000  H
  H60      1.0000 0.34600  0.35950  0.60230  Biso   1.000  H
  H61      1.0000 0.64050  0.34600  0.60230  Biso   1.000  H
  H62      1.0000 0.35950  0.65400  0.60230  Biso   1.000  H
  H63      1.0000 0.15400  0.14050  0.10230  Biso   1.000  H
  H64      1.0000 0.65400  0.64050  0.60230  Biso   1.000  H
  O97      1.0000 0.99710  0.17770  0.92930  Biso   1.000  O
  O98      1.0000 0.82230  0.99710  0.92930  Biso   1.000  O
  O99      1.0000 0.17770  0.00290  0.92930  Biso   1.000  O
  O100     1.0000 0.49710  0.67770  0.42930  Biso   1.000  O
  O101     1.0000 0.32230  0.49710  0.42930  Biso   1.000  O
  O102     1.0000 0.67770  0.50290  0.42930  Biso   1.000  O
  O103     1.0000 0.00290  0.82230  0.92930  Biso   1.000  O
  O104     1.0000 0.50290  0.32230  0.42930  Biso   1.000  O
  O105     1.0000 0.00290  0.82230  0.07070  Biso   1.000  O
  O106     1.0000 0.17770  0.00290  0.07070  Biso   1.000  O
  O107     1.0000 0.82230  0.99710  0.07070  Biso   1.000  O
  O108     1.0000 0.50290  0.32230  0.57070  Biso   1.000  O
  O109     1.0000 0.67770  0.50290  0.57070  Biso   1.000  O
  O110     1.0000 0.32230  0.49710  0.57070  Biso   1.000  O
  O111     1.0000 0.99710  0.17770  0.07070  Biso   1.000  O
  O112     1.0000 0.49710  0.67770  0.57070  Biso   1.000  O
  H65      1.0000 0.97830  0.21120  0.89800  Biso   1.000  H
  H66      1.0000 0.78880  0.97830  0.89800  Biso   1.000  H
  H67      1.0000 0.21120  0.02170  0.89800  Biso   1.000  H
  H68      1.0000 0.47830  0.71120  0.39800  Biso   1.000  H
  H69      1.0000 0.28880  0.47830  0.39800  Biso   1.000  H
  H70      1.0000 0.71120  0.52170  0.39800  Biso   1.000  H
  H71      1.0000 0.02170  0.78880  0.89800  Biso   1.000  H
  H72      1.0000 0.52170  0.28880  0.39800  Biso   1.000  H
  H73      1.0000 0.02170  0.78880  0.10200  Biso   1.000  H
  H74      1.0000 0.21120  0.02170  0.10200  Biso   1.000  H
  H75      1.0000 0.78880  0.97830  0.10200  Biso   1.000  H
  H76      1.0000 0.52170  0.28880  0.60200  Biso   1.000  H
  H77      1.0000 0.71120  0.52170  0.60200  Biso   1.000  H
  H78      1.0000 0.28880  0.47830  0.60200  Biso   1.000  H
  H79      1.0000 0.97830  0.21120  0.10200  Biso   1.000  H
  H80      1.0000 0.47830  0.71120  0.60200  Biso   1.000  H
  O113     1.0000 0.02500  0.44170  0.00000  Biso   1.000  O
  O114     1.0000 0.55830  0.02500  0.00000  Biso   1.000  O
  O115     1.0000 0.44170  0.97500  0.00000  Biso   1.000  O
  O116     1.0000 0.52500  0.94170  0.50000  Biso   1.000  O
  O117     1.0000 0.05830  0.52500  0.50000  Biso   1.000  O
  O118     1.0000 0.94170  0.47500  0.50000  Biso   1.000  O
  O119     1.0000 0.97500  0.55830  0.00000  Biso   1.000  O
  O120     1.0000 0.47500  0.05830  0.50000  Biso   1.000  O
  H81      1.0000 0.06590  0.43360  0.00000  Biso   1.000  H
  H82      1.0000 0.56640  0.06590  0.00000  Biso   1.000  H
  H83      1.0000 0.43360  0.93410  0.00000  Biso   1.000  H
  H84      1.0000 0.56590  0.93360  0.50000  Biso   1.000  H
  H85      1.0000 0.06640  0.56590  0.50000  Biso   1.000  H
  H86      1.0000 0.93360  0.43410  0.50000  Biso   1.000  H
  H87      1.0000 0.93410  0.56640  0.00000  Biso   1.000  H
  H88      1.0000 0.43410  0.06640  0.50000  Biso   1.000  H
  O121     1.0000 0.99710  0.31030  0.00000  Biso   1.000  O
  O122     1.0000 0.68970  0.99710  0.00000  Biso   1.000  O
  O123     1.0000 0.31030  0.00290  0.00000  Biso   1.000  O
  O124     1.0000 0.49710  0.81030  0.50000  Biso   1.000  O
  O125     1.0000 0.18970  0.49710  0.50000  Biso   1.000  O
  O126     1.0000 0.81030  0.50290  0.50000  Biso   1.000  O
  O127     1.0000 0.00290  0.68970  0.00000  Biso   1.000  O
  O128     1.0000 0.50290  0.18970  0.50000  Biso   1.000  O
  H89      1.0000 0.95320  0.30560  0.00000  Biso   1.000  H
  H90      1.0000 0.69440  0.95320  0.00000  Biso   1.000  H
  H91      1.0000 0.30560  0.04680  0.00000  Biso   1.000  H
  H92      1.0000 0.45320  0.80560  0.50000  Biso   1.000  H
  H93      1.0000 0.19440  0.45320  0.50000  Biso   1.000  H
  H94      1.0000 0.80560  0.54680  0.50000  Biso   1.000  H
  H95      1.0000 0.04680  0.69440  0.00000  Biso   1.000  H
  H96      1.0000 0.54680  0.19440  0.50000  Biso   1.000  H
  H97      1.0000 0.00940  0.35260  0.00000  Biso   1.000  H
  H98      1.0000 0.64740  0.00940  0.00000  Biso   1.000  H
  H99      1.0000 0.35260  0.99060  0.00000  Biso   1.000  H
  H100     1.0000 0.50940  0.85260  0.50000  Biso   1.000  H
  H101     1.0000 0.14740  0.50940  0.50000  Biso   1.000  H
  H102     1.0000 0.85260  0.49060  0.50000  Biso   1.000  H
  H103     1.0000 0.99060  0.64740  0.00000  Biso   1.000  H
  H104     1.0000 0.49060  0.14740  0.50000  Biso   1.000  H
  O129     1.0000 0.13380  0.34420  0.00000  Biso   1.000  O
  O130     1.0000 0.65580  0.13380  0.00000  Biso   1.000  O
  O131     1.0000 0.34420  0.86620  0.00000  Biso   1.000  O
  O132     1.0000 0.63380  0.84420  0.50000  Biso   1.000  O
  O133     1.0000 0.15580  0.63380  0.50000  Biso   1.000  O
  O134     1.0000 0.84420  0.36620  0.50000  Biso   1.000  O
  O135     1.0000 0.86620  0.65580  0.00000  Biso   1.000  O
  O136     1.0000 0.36620  0.15580  0.50000  Biso   1.000  O
  H105     1.0000 0.15620  0.35980  0.03690  Biso   1.000  H
  H106     1.0000 0.64020  0.15620  0.03690  Biso   1.000  H
  H107     1.0000 0.35980  0.84380  0.03690  Biso   1.000  H
  H108     1.0000 0.65620  0.85980  0.53690  Biso   1.000  H
  H109     1.0000 0.14020  0.65620  0.53690  Biso   1.000  H
  H110     1.0000 0.85980  0.34380  0.53690  Biso   1.000  H
  H111     1.0000 0.84380  0.64020  0.03690  Biso   1.000  H
  H112     1.0000 0.34380  0.14020  0.53690  Biso   1.000  H
  H113     1.0000 0.84380  0.64020  0.96310  Biso   1.000  H
  H114     1.0000 0.35980  0.84380  0.96310  Biso   1.000  H
  H115     1.0000 0.64020  0.15620  0.96310  Biso   1.000  H
  H116     1.0000 0.34380  0.14020  0.46310  Biso   1.000  H
  H117     1.0000 0.85980  0.34380  0.46310  Biso   1.000  H
  H118     1.0000 0.14020  0.65620  0.46310  Biso   1.000  H
  H119     1.0000 0.15620  0.35980  0.96310  Biso   1.000  H
  H120     1.0000 0.65620  0.85980  0.46310  Biso   1.000  H
  O137     1.0000 0.10650  0.95780  0.68680  Biso   1.000  O
  O138     1.0000 0.04220  0.10650  0.68680  Biso   1.000  O
  O139     1.0000 0.95780  0.89350  0.68680  Biso   1.000  O
  O140     1.0000 0.60650  0.45780  0.18680  Biso   1.000  O
  O141     1.0000 0.54220  0.60650  0.18680  Biso   1.000  O
  O142     1.0000 0.45780  0.39350  0.18680  Biso   1.000  O
  O143     1.0000 0.89350  0.04220  0.68680  Biso   1.000  O
  O144     1.0000 0.39350  0.54220  0.18680  Biso   1.000  O
  O145     1.0000 0.89350  0.04220  0.31320  Biso   1.000  O
  O146     1.0000 0.95780  0.89350  0.31320  Biso   1.000  O
  O147     1.0000 0.04220  0.10650  0.31320  Biso   1.000  O
  O148     1.0000 0.39350  0.54220  0.81320  Biso   1.000  O
  O149     1.0000 0.45780  0.39350  0.81320  Biso   1.000  O
  O150     1.0000 0.54220  0.60650  0.81320  Biso   1.000  O
  O151     1.0000 0.10650  0.95780  0.31320  Biso   1.000  O
  O152     1.0000 0.60650  0.45780  0.81320  Biso   1.000  O
  H121     1.0000 0.12940  0.98430  0.66230  Biso   1.000  H
  H122     1.0000 0.01570  0.12940  0.66230  Biso   1.000  H
  H123     1.0000 0.98430  0.87060  0.66230  Biso   1.000  H
  H124     1.0000 0.62940  0.48430  0.16230  Biso   1.000  H
  H125     1.0000 0.51570  0.62940  0.16230  Biso   1.000  H
  H126     1.0000 0.48430  0.37060  0.16230  Biso   1.000  H
  H127     1.0000 0.87060  0.01570  0.66230  Biso   1.000  H
  H128     1.0000 0.37060  0.51570  0.16230  Biso   1.000  H
  H129     1.0000 0.87060  0.01570  0.33770  Biso   1.000  H
  H130     1.0000 0.98430  0.87060  0.33770  Biso   1.000  H
  H131     1.0000 0.01570  0.12940  0.33770  Biso   1.000  H
  H132     1.0000 0.37060  0.51570  0.83770  Biso   1.000  H
  H133     1.0000 0.48430  0.37060  0.83770  Biso   1.000  H
  H134     1.0000 0.51570  0.62940  0.83770  Biso   1.000  H
  H135     1.0000 0.12940  0.98430  0.33770  Biso   1.000  H
  H136     1.0000 0.62940  0.48430  0.83770  Biso   1.000  H
  H137     1.0000 0.10600  0.91910  0.67000  Biso   1.000  H
  H138     1.0000 0.08090  0.10600  0.67000  Biso   1.000  H
  H139     1.0000 0.91910  0.89400  0.67000  Biso   1.000  H
  H140     1.0000 0.60600  0.41910  0.17000  Biso   1.000  H
  H141     1.0000 0.58090  0.60600  0.17000  Biso   1.000  H
  H142     1.0000 0.41910  0.39400  0.17000  Biso   1.000  H
  H143     1.0000 0.89400  0.08090  0.67000  Biso   1.000  H
  H144     1.0000 0.39400  0.58090  0.17000  Biso   1.000  H
  H145     1.0000 0.89400  0.08090  0.33000  Biso   1.000  H
  H146     1.0000 0.91910  0.89400  0.33000  Biso   1.000  H
  H147     1.0000 0.08090  0.10600  0.33000  Biso   1.000  H
  H148     1.0000 0.39400  0.58090  0.83000  Biso   1.000  H
  H149     1.0000 0.41910  0.39400  0.83000  Biso   1.000  H
  H150     1.0000 0.58090  0.60600  0.83000  Biso   1.000  H
  H151     1.0000 0.10600  0.91910  0.33000  Biso   1.000  H
  H152     1.0000 0.60600  0.41910  0.83000  Biso   1.000  H
  O153     1.0000 0.00000  0.00000  0.60070  Biso   1.000  O
  O154     1.0000 0.50000  0.50000  0.10070  Biso   1.000  O
  O155     1.0000 0.00000  0.00000  0.39930  Biso   1.000  O
  O156     1.0000 0.50000  0.50000  0.89930  Biso   1.000  O
  H153     1.0000 0.98600  0.96330  0.58560  Biso   1.000  H
  H154     1.0000 0.03670  0.98600  0.58560  Biso   1.000  H
  H155     1.0000 0.96330  0.01400  0.58560  Biso   1.000  H
  H156     1.0000 0.48600  0.46330  0.08560  Biso   1.000  H
  H157     1.0000 0.53670  0.48600  0.08560  Biso   1.000  H
  H158     1.0000 0.46330  0.51400  0.08560  Biso   1.000  H
  H159     1.0000 0.01400  0.03670  0.58560  Biso   1.000  H
  H160     1.0000 0.51400  0.53670  0.08560  Biso   1.000  H
  H161     1.0000 0.01400  0.03670  0.41440  Biso   1.000  H
  H162     1.0000 0.96330  0.01400  0.41440  Biso   1.000  H
  H163     1.0000 0.03670  0.98600  0.41440  Biso   1.000  H
  H164     1.0000 0.51400  0.53670  0.91440  Biso   1.000  H
  H165     1.0000 0.46330  0.51400  0.91440  Biso   1.000  H
  H166     1.0000 0.53670  0.48600  0.91440  Biso   1.000  H
  H167     1.0000 0.98600  0.96330  0.41440  Biso   1.000  H
  H168     1.0000 0.48600  0.46330  0.91440  Biso   1.000  H
  C1       1.0000 0.08780  0.24530  0.81510  Biso   1.000  C
  C2       1.0000 0.75470  0.08780  0.81510  Biso   1.000  C
  C3       1.0000 0.24530  0.91220  0.81510  Biso   1.000  C
  C4       1.0000 0.58780  0.74530  0.31510  Biso   1.000  C
  C5       1.0000 0.25470  0.58780  0.31510  Biso   1.000  C
  C6       1.0000 0.74530  0.41220  0.31510  Biso   1.000  C
  C7       1.0000 0.91220  0.75470  0.81510  Biso   1.000  C
  C8       1.0000 0.41220  0.25470  0.31510  Biso   1.000  C
  C9       1.0000 0.91220  0.75470  0.18490  Biso   1.000  C
  C10      1.0000 0.24530  0.91220  0.18490  Biso   1.000  C
  C11      1.0000 0.75470  0.08780  0.18490  Biso   1.000  C
  C12      1.0000 0.41220  0.25470  0.68490  Biso   1.000  C
  C13      1.0000 0.74530  0.41220  0.68490  Biso   1.000  C
  C14      1.0000 0.25470  0.58780  0.68490  Biso   1.000  C
  C15      1.0000 0.08780  0.24530  0.18490  Biso   1.000  C
  C16      1.0000 0.58780  0.74530  0.68490  Biso   1.000  C
  C17      1.0000 0.07910  0.29720  0.75880  Biso   1.000  C
  C18      1.0000 0.70280  0.07910  0.75880  Biso   1.000  C
  C19      1.0000 0.29720  0.92090  0.75880  Biso   1.000  C
  C20      1.0000 0.57910  0.79720  0.25880  Biso   1.000  C
  C21      1.0000 0.20280  0.57910  0.25880  Biso   1.000  C
  C22      1.0000 0.79720  0.42090  0.25880  Biso   1.000  C
  C23      1.0000 0.92090  0.70280  0.75880  Biso   1.000  C
  C24      1.0000 0.42090  0.20280  0.25880  Biso   1.000  C
  C25      1.0000 0.92090  0.70280  0.24120  Biso   1.000  C
  C26      1.0000 0.29720  0.92090  0.24120  Biso   1.000  C
  C27      1.0000 0.70280  0.07910  0.24120  Biso   1.000  C
  C28      1.0000 0.42090  0.20280  0.74120  Biso   1.000  C
  C29      1.0000 0.79720  0.42090  0.74120  Biso   1.000  C
  C30      1.0000 0.20280  0.57910  0.74120  Biso   1.000  C
  C31      1.0000 0.07910  0.29720  0.24120  Biso   1.000  C
  C32      1.0000 0.57910  0.79720  0.74120  Biso   1.000  C
  H169     1.0000 0.11690  0.29730  0.72790  Biso   1.000  H
  H170     1.0000 0.70270  0.11690  0.72790  Biso   1.000  H
  H171     1.0000 0.29730  0.88310  0.72790  Biso   1.000  H
  H172     1.0000 0.61690  0.79730  0.22790  Biso   1.000  H
  H173     1.0000 0.20270  0.61690  0.22790  Biso   1.000  H
  H174     1.0000 0.79730  0.38310  0.22790  Biso   1.000  H
  H175     1.0000 0.88310  0.70270  0.72790  Biso   1.000  H
  H176     1.0000 0.38310  0.20270  0.22790  Biso   1.000  H
  H177     1.0000 0.88310  0.70270  0.27210  Biso   1.000  H
  H178     1.0000 0.29730  0.88310  0.27210  Biso   1.000  H
  H179     1.0000 0.70270  0.11690  0.27210  Biso   1.000  H
  H180     1.0000 0.38310  0.20270  0.77210  Biso   1.000  H
  H181     1.0000 0.79730  0.38310  0.77210  Biso   1.000  H
  H182     1.0000 0.20270  0.61690  0.77210  Biso   1.000  H
  H183     1.0000 0.11690  0.29730  0.27210  Biso   1.000  H
  H184     1.0000 0.61690  0.79730  0.77210  Biso   1.000  H
  H185     1.0000 0.04100  0.28690  0.73040  Biso   1.000  H
  H186     1.0000 0.71310  0.04100  0.73040  Biso   1.000  H
  H187     1.0000 0.28690  0.95900  0.73040  Biso   1.000  H
  H188     1.0000 0.54100  0.78690  0.23040  Biso   1.000  H
  H189     1.0000 0.21310  0.54100  0.23040  Biso   1.000  H
  H190     1.0000 0.78690  0.45900  0.23040  Biso   1.000  H
  H191     1.0000 0.95900  0.71310  0.73040  Biso   1.000  H
  H192     1.0000 0.45900  0.21310  0.23040  Biso   1.000  H
  H193     1.0000 0.95900  0.71310  0.26960  Biso   1.000  H
  H194     1.0000 0.28690  0.95900  0.26960  Biso   1.000  H
  H195     1.0000 0.71310  0.04100  0.26960  Biso   1.000  H
  H196     1.0000 0.45900  0.21310  0.76960  Biso   1.000  H
  H197     1.0000 0.78690  0.45900  0.76960  Biso   1.000  H
  H198     1.0000 0.21310  0.54100  0.76960  Biso   1.000  H
  H199     1.0000 0.04100  0.28690  0.26960  Biso   1.000  H
  H200     1.0000 0.54100  0.78690  0.76960  Biso   1.000  H
  N17      1.0000 0.07120  0.36140  0.78990  Biso   1.000  N
  N18      1.0000 0.63860  0.07120  0.78990  Biso   1.000  N
  N19      1.0000 0.36140  0.92880  0.78990  Biso   1.000  N
  N20      1.0000 0.57120  0.86140  0.28990  Biso   1.000  N
  N21      1.0000 0.13860  0.57120  0.28990  Biso   1.000  N
  N22      1.0000 0.86140  0.42880  0.28990  Biso   1.000  N
  N23      1.0000 0.92880  0.63860  0.78990  Biso   1.000  N
  N24      1.0000 0.42880  0.13860  0.28990  Biso   1.000  N
  N25      1.0000 0.92880  0.63860  0.21010  Biso   1.000  N
  N26      1.0000 0.36140  0.92880  0.21010  Biso   1.000  N
  N27      1.0000 0.63860  0.07120  0.21010  Biso   1.000  N
  N28      1.0000 0.42880  0.13860  0.71010  Biso   1.000  N
  N29      1.0000 0.86140  0.42880  0.71010  Biso   1.000  N
  N30      1.0000 0.13860  0.57120  0.71010  Biso   1.000  N
  N31      1.0000 0.07120  0.36140  0.21010  Biso   1.000  N
  N32      1.0000 0.57120  0.86140  0.71010  Biso   1.000  N
  N33      1.0000 0.10730  0.41220  0.77030  Biso   1.000  N
  N34      1.0000 0.58780  0.10730  0.77030  Biso   1.000  N
  N35      1.0000 0.41220  0.89270  0.77030  Biso   1.000  N
  N36      1.0000 0.60730  0.91220  0.27030  Biso   1.000  N
  N37      1.0000 0.08780  0.60730  0.27030  Biso   1.000  N
  N38      1.0000 0.91220  0.39270  0.27030  Biso   1.000  N
  N39      1.0000 0.89270  0.58780  0.77030  Biso   1.000  N
  N40      1.0000 0.39270  0.08780  0.27030  Biso   1.000  N
  N41      1.0000 0.89270  0.58780  0.22970  Biso   1.000  N
  N42      1.0000 0.41220  0.89270  0.22970  Biso   1.000  N
  N43      1.0000 0.58780  0.10730  0.22970  Biso   1.000  N
  N44      1.0000 0.39270  0.08780  0.72970  Biso   1.000  N
  N45      1.0000 0.91220  0.39270  0.72970  Biso   1.000  N
  N46      1.0000 0.08780  0.60730  0.72970  Biso   1.000  N
  N47      1.0000 0.10730  0.41220  0.22970  Biso   1.000  N
  N48      1.0000 0.60730  0.91220  0.72970  Biso   1.000  N
  N49      1.0000 0.08720  0.46120  0.80730  Biso   1.000  N
  N50      1.0000 0.53880  0.08720  0.80730  Biso   1.000  N
  N51      1.0000 0.46120  0.91280  0.80730  Biso   1.000  N
  N52      1.0000 0.58720  0.96120  0.30730  Biso   1.000  N
  N53      1.0000 0.03880  0.58720  0.30730  Biso   1.000  N
  N54      1.0000 0.96120  0.41280  0.30730  Biso   1.000  N
  N55      1.0000 0.91280  0.53880  0.80730  Biso   1.000  N
  N56      1.0000 0.41280  0.03880  0.30730  Biso   1.000  N
  N57      1.0000 0.91280  0.53880  0.19270  Biso   1.000  N
  N58      1.0000 0.46120  0.91280  0.19270  Biso   1.000  N
  N59      1.0000 0.53880  0.08720  0.19270  Biso   1.000  N
  N60      1.0000 0.41280  0.03880  0.69270  Biso   1.000  N
  N61      1.0000 0.96120  0.41280  0.69270  Biso   1.000  N
  N62      1.0000 0.03880  0.58720  0.69270  Biso   1.000  N
  N63      1.0000 0.08720  0.46120  0.19270  Biso   1.000  N
  N64      1.0000 0.58720  0.96120  0.69270  Biso   1.000  N
  N65      1.0000 0.03990  0.44260  0.85160  Biso   1.000  N
  N66      1.0000 0.55740  0.03990  0.85160  Biso   1.000  N
  N67      1.0000 0.44260  0.96010  0.85160  Biso   1.000  N
  N68      1.0000 0.53990  0.94260  0.35160  Biso   1.000  N
  N69      1.0000 0.05740  0.53990  0.35160  Biso   1.000  N
  N70      1.0000 0.94260  0.46010  0.35160  Biso   1.000  N
  N71      1.0000 0.96010  0.55740  0.85160  Biso   1.000  N
  N72      1.0000 0.46010  0.05740  0.35160  Biso   1.000  N
  N73      1.0000 0.96010  0.55740  0.14840  Biso   1.000  N
  N74      1.0000 0.44260  0.96010  0.14840  Biso   1.000  N
  N75      1.0000 0.55740  0.03990  0.14840  Biso   1.000  N
  N76      1.0000 0.46010  0.05740  0.64840  Biso   1.000  N
  N77      1.0000 0.94260  0.46010  0.64840  Biso   1.000  N
  N78      1.0000 0.05740  0.53990  0.64840  Biso   1.000  N
  N79      1.0000 0.03990  0.44260  0.14840  Biso   1.000  N
  N80      1.0000 0.53990  0.94260  0.64840  Biso   1.000  N
  C33      1.0000 0.03110  0.38010  0.83870  Biso   1.000  C
  C34      1.0000 0.61990  0.03110  0.83870  Biso   1.000  C
  C35      1.0000 0.38010  0.96890  0.83870  Biso   1.000  C
  C36      1.0000 0.53110  0.88010  0.33870  Biso   1.000  C
  C37      1.0000 0.11990  0.53110  0.33870  Biso   1.000  C
  C38      1.0000 0.88010  0.46890  0.33870  Biso   1.000  C
  C39      1.0000 0.96890  0.61990  0.83870  Biso   1.000  C
  C40      1.0000 0.46890  0.11990  0.33870  Biso   1.000  C
  C41      1.0000 0.96890  0.61990  0.16130  Biso   1.000  C
  C42      1.0000 0.38010  0.96890  0.16130  Biso   1.000  C
  C43      1.0000 0.61990  0.03110  0.16130  Biso   1.000  C
  C44      1.0000 0.46890  0.11990  0.66130  Biso   1.000  C
  C45      1.0000 0.88010  0.46890  0.66130  Biso   1.000  C
  C46      1.0000 0.11990  0.53110  0.66130  Biso   1.000  C
  C47      1.0000 0.03110  0.38010  0.16130  Biso   1.000  C
  C48      1.0000 0.53110  0.88010  0.66130  Biso   1.000  C
  H201     1.0000 0.00070  0.35350  0.86110  Biso   1.000  H
  H202     1.0000 0.64650  0.00070  0.86110  Biso   1.000  H
  H203     1.0000 0.35350  0.99930  0.86110  Biso   1.000  H
  H204     1.0000 0.50070  0.85350  0.36110  Biso   1.000  H
  H205     1.0000 0.14650  0.50070  0.36110  Biso   1.000  H
  H206     1.0000 0.85350  0.49930  0.36110  Biso   1.000  H
  H207     1.0000 0.99930  0.64650  0.86110  Biso   1.000  H
  H208     1.0000 0.49930  0.14650  0.36110  Biso   1.000  H
  H209     1.0000 0.99930  0.64650  0.13890  Biso   1.000  H
  H210     1.0000 0.35350  0.99930  0.13890  Biso   1.000  H
  H211     1.0000 0.64650  0.00070  0.13890  Biso   1.000  H
  H212     1.0000 0.49930  0.14650  0.63890  Biso   1.000  H
  H213     1.0000 0.85350  0.49930  0.63890  Biso   1.000  H
  H214     1.0000 0.14650  0.50070  0.63890  Biso   1.000  H
  H215     1.0000 0.00070  0.35350  0.13890  Biso   1.000  H
  H216     1.0000 0.50070  0.85350  0.63890  Biso   1.000  H
  O157     1.0000 0.10020  0.26320  0.87610  Biso   1.000  O
  O158     1.0000 0.73680  0.10020  0.87610  Biso   1.000  O
  O159     1.0000 0.26320  0.89980  0.87610  Biso   1.000  O
  O160     1.0000 0.60020  0.76320  0.37610  Biso   1.000  O
  O161     1.0000 0.23680  0.60020  0.37610  Biso   1.000  O
  O162     1.0000 0.76320  0.39980  0.37610  Biso   1.000  O
  O163     1.0000 0.89980  0.73680  0.87610  Biso   1.000  O
  O164     1.0000 0.39980  0.23680  0.37610  Biso   1.000  O
  O165     1.0000 0.89980  0.73680  0.12390  Biso   1.000  O
  O166     1.0000 0.26320  0.89980  0.12390  Biso   1.000  O
  O167     1.0000 0.73680  0.10020  0.12390  Biso   1.000  O
  O168     1.0000 0.39980  0.23680  0.62390  Biso   1.000  O
  O169     1.0000 0.76320  0.39980  0.62390  Biso   1.000  O
  O170     1.0000 0.23680  0.60020  0.62390  Biso   1.000  O
  O171     1.0000 0.10020  0.26320  0.12390  Biso   1.000  O
  O172     1.0000 0.60020  0.76320  0.62390  Biso   1.000  O
  O173     1.0000 0.08140  0.18780  0.79300  Biso   1.000  O
  O174     1.0000 0.81220  0.08140  0.79300  Biso   1.000  O
  O175     1.0000 0.18780  0.91860  0.79300  Biso   1.000  O
  O176     1.0000 0.58140  0.68780  0.29300  Biso   1.000  O
  O177     1.0000 0.31220  0.58140  0.29300  Biso   1.000  O
  O178     1.0000 0.68780  0.41860  0.29300  Biso   1.000  O
  O179     1.0000 0.91860  0.81220  0.79300  Biso   1.000  O
  O180     1.0000 0.41860  0.31220  0.29300  Biso   1.000  O
  O181     1.0000 0.91860  0.81220  0.20700  Biso   1.000  O
  O182     1.0000 0.18780  0.91860  0.20700  Biso   1.000  O
  O183     1.0000 0.81220  0.08140  0.20700  Biso   1.000  O
  O184     1.0000 0.41860  0.31220  0.70700  Biso   1.000  O
  O185     1.0000 0.68780  0.41860  0.70700  Biso   1.000  O
  O186     1.0000 0.31220  0.58140  0.70700  Biso   1.000  O
  O187     1.0000 0.08140  0.18780  0.20700  Biso   1.000  O
  O188     1.0000 0.58140  0.68780  0.70700  Biso   1.000  O
  O189     1.0000 0.25340  0.12480  0.00000  Biso   1.000  O
  O190     1.0000 0.87520  0.25340  0.00000  Biso   1.000  O
  O191     1.0000 0.12480  0.74660  0.00000  Biso   1.000  O
  O192     1.0000 0.75340  0.62480  0.50000  Biso   1.000  O
  O193     1.0000 0.37520  0.75340  0.50000  Biso   1.000  O
  O194     1.0000 0.62480  0.24660  0.50000  Biso   1.000  O
  O195     1.0000 0.74660  0.87520  0.00000  Biso   1.000  O
  O196     1.0000 0.24660  0.37520  0.50000  Biso   1.000  O
  O197     1.0000 0.20690  0.22370  0.00000  Biso   1.000  O
  O198     1.0000 0.77630  0.20690  0.00000  Biso   1.000  O
  O199     1.0000 0.22370  0.79310  0.00000  Biso   1.000  O
  O200     1.0000 0.70690  0.72370  0.50000  Biso   1.000  O
  O201     1.0000 0.27630  0.70690  0.50000  Biso   1.000  O
  O202     1.0000 0.72370  0.29310  0.50000  Biso   1.000  O
  O203     1.0000 0.79310  0.77630  0.00000  Biso   1.000  O
  O204     1.0000 0.29310  0.27630  0.50000  Biso   1.000  O
  N81      1.0000 0.44670  0.11020  0.03910  Biso   1.000  N
  N82      1.0000 0.88980  0.44670  0.03910  Biso   1.000  N
  N83      1.0000 0.11020  0.55330  0.03910  Biso   1.000  N
  N84      1.0000 0.94670  0.61020  0.53910  Biso   1.000  N
  N85      1.0000 0.38980  0.94670  0.53910  Biso   1.000  N
  N86      1.0000 0.61020  0.05330  0.53910  Biso   1.000  N
  N87      1.0000 0.55330  0.88980  0.03910  Biso   1.000  N
  N88      1.0000 0.05330  0.38980  0.53910  Biso   1.000  N
  N89      1.0000 0.55330  0.88980  0.96090  Biso   1.000  N
  N90      1.0000 0.11020  0.55330  0.96090  Biso   1.000  N
  N91      1.0000 0.88980  0.44670  0.96090  Biso   1.000  N
  N92      1.0000 0.05330  0.38980  0.46090  Biso   1.000  N
  N93      1.0000 0.61020  0.05330  0.46090  Biso   1.000  N
  N94      1.0000 0.38980  0.94670  0.46090  Biso   1.000  N
  N95      1.0000 0.44670  0.11020  0.96090  Biso   1.000  N
  N96      1.0000 0.94670  0.61020  0.46090  Biso   1.000  N
  C49      1.0000 0.25400  0.18490  0.00000  Biso   1.000  C
  C50      1.0000 0.81510  0.25400  0.00000  Biso   1.000  C
  C51      1.0000 0.18490  0.74600  0.00000  Biso   1.000  C
  C52      1.0000 0.75400  0.68490  0.50000  Biso   1.000  C
  C53      1.0000 0.31510  0.75400  0.50000  Biso   1.000  C
  C54      1.0000 0.68490  0.24600  0.50000  Biso   1.000  C
  C55      1.0000 0.74600  0.81510  0.00000  Biso   1.000  C
  C56      1.0000 0.24600  0.31510  0.50000  Biso   1.000  C
  C57      1.0000 0.31640  0.22080  0.00000  Biso   1.000  C
  C58      1.0000 0.77920  0.31640  0.00000  Biso   1.000  C
  C59      1.0000 0.22080  0.68360  0.00000  Biso   1.000  C
  C60      1.0000 0.81640  0.72080  0.50000  Biso   1.000  C
  C61      1.0000 0.27920  0.81640  0.50000  Biso   1.000  C
  C62      1.0000 0.72080  0.18360  0.50000  Biso   1.000  C
  C63      1.0000 0.68360  0.77920  0.00000  Biso   1.000  C
  C64      1.0000 0.18360  0.27920  0.50000  Biso   1.000  C
  H217     1.0000 0.31830  0.24860  0.04110  Biso   1.000  H
  H218     1.0000 0.75140  0.31830  0.04110  Biso   1.000  H
  H219     1.0000 0.24860  0.68170  0.04110  Biso   1.000  H
  H220     1.0000 0.81830  0.74860  0.54110  Biso   1.000  H
  H221     1.0000 0.25140  0.81830  0.54110  Biso   1.000  H
  H222     1.0000 0.74860  0.18170  0.54110  Biso   1.000  H
  H223     1.0000 0.68170  0.75140  0.04110  Biso   1.000  H
  H224     1.0000 0.18170  0.25140  0.54110  Biso   1.000  H
  H225     1.0000 0.68170  0.75140  0.95890  Biso   1.000  H
  H226     1.0000 0.24860  0.68170  0.95890  Biso   1.000  H
  H227     1.0000 0.75140  0.31830  0.95890  Biso   1.000  H
  H228     1.0000 0.18170  0.25140  0.45890  Biso   1.000  H
  H229     1.0000 0.74860  0.18170  0.45890  Biso   1.000  H
  H230     1.0000 0.25140  0.81830  0.45890  Biso   1.000  H
  H231     1.0000 0.31830  0.24860  0.95890  Biso   1.000  H
  H232     1.0000 0.81830  0.74860  0.45890  Biso   1.000  H
  N97      1.0000 0.37590  0.17760  0.00000  Biso   1.000  N
  N98      1.0000 0.82240  0.37590  0.00000  Biso   1.000  N
  N99      1.0000 0.17760  0.62410  0.00000  Biso   1.000  N
  N100     1.0000 0.87590  0.67760  0.50000  Biso   1.000  N
  N101     1.0000 0.32240  0.87590  0.50000  Biso   1.000  N
  N102     1.0000 0.67760  0.12410  0.50000  Biso   1.000  N
  N103     1.0000 0.62410  0.82240  0.00000  Biso   1.000  N
  N104     1.0000 0.12410  0.32240  0.50000  Biso   1.000  N
  N105     1.0000 0.39740  0.14750  0.06260  Biso   1.000  N
  N106     1.0000 0.85250  0.39740  0.06260  Biso   1.000  N
  N107     1.0000 0.14750  0.60260  0.06260  Biso   1.000  N
  N108     1.0000 0.89740  0.64750  0.56260  Biso   1.000  N
  N109     1.0000 0.35250  0.89740  0.56260  Biso   1.000  N
  N110     1.0000 0.64750  0.10260  0.56260  Biso   1.000  N
  N111     1.0000 0.60260  0.85250  0.06260  Biso   1.000  N
  N112     1.0000 0.10260  0.35250  0.56260  Biso   1.000  N
  N113     1.0000 0.60260  0.85250  0.93740  Biso   1.000  N
  N114     1.0000 0.14750  0.60260  0.93740  Biso   1.000  N
  N115     1.0000 0.85250  0.39740  0.93740  Biso   1.000  N
  N116     1.0000 0.10260  0.35250  0.43740  Biso   1.000  N
  N117     1.0000 0.64750  0.10260  0.43740  Biso   1.000  N
  N118     1.0000 0.35250  0.89740  0.43740  Biso   1.000  N
  N119     1.0000 0.39740  0.14750  0.93740  Biso   1.000  N
  N120     1.0000 0.89740  0.64750  0.43740  Biso   1.000  N
  H233     1.0000 0.37910  0.15210  0.10930  Biso   1.000  H
  H234     1.0000 0.84790  0.37910  0.10930  Biso   1.000  H
  H235     1.0000 0.15210  0.62090  0.10930  Biso   1.000  H
  H236     1.0000 0.87910  0.65210  0.60930  Biso   1.000  H
  H237     1.0000 0.34790  0.87910  0.60930  Biso   1.000  H
  H238     1.0000 0.65210  0.12090  0.60930  Biso   1.000  H
  H239     1.0000 0.62090  0.84790  0.10930  Biso   1.000  H
  H240     1.0000 0.12090  0.34790  0.60930  Biso   1.000  H
  H241     1.0000 0.62090  0.84790  0.89070  Biso   1.000  H
  H242     1.0000 0.15210  0.62090  0.89070  Biso   1.000  H
  H243     1.0000 0.84790  0.37910  0.89070  Biso   1.000  H
  H244     1.0000 0.12090  0.34790  0.39070  Biso   1.000  H
  H245     1.0000 0.65210  0.12090  0.39070  Biso   1.000  H
  H246     1.0000 0.34790  0.87910  0.39070  Biso   1.000  H
  H247     1.0000 0.37910  0.15210  0.89070  Biso   1.000  H
  H248     1.0000 0.87910  0.65210  0.39070  Biso   1.000  H
  O205     1.0000 0.00000  0.00000  0.06480  Biso   1.000  O
  O206     1.0000 0.50000  0.50000  0.56480  Biso   1.000  O
  O207     1.0000 0.00000  0.00000  0.93520  Biso   1.000  O
  O208     1.0000 0.50000  0.50000  0.43520  Biso   1.000  O
  O209     1.0000 0.04280  0.02000  0.96000  Biso   1.000  O
  O210     1.0000 0.98000  0.04280  0.96000  Biso   1.000  O
  O211     1.0000 0.02000  0.95720  0.96000  Biso   1.000  O
  O212     1.0000 0.54280  0.52000  0.46000  Biso   1.000  O
  O213     1.0000 0.48000  0.54280  0.46000  Biso   1.000  O
  O214     1.0000 0.52000  0.45720  0.46000  Biso   1.000  O
  O215     1.0000 0.95720  0.98000  0.96000  Biso   1.000  O
  O216     1.0000 0.45720  0.48000  0.46000  Biso   1.000  O
  O217     1.0000 0.95720  0.98000  0.04000  Biso   1.000  O
  O218     1.0000 0.02000  0.95720  0.04000  Biso   1.000  O
  O219     1.0000 0.98000  0.04280  0.04000  Biso   1.000  O
  O220     1.0000 0.45720  0.48000  0.54000  Biso   1.000  O
  O221     1.0000 0.52000  0.45720  0.54000  Biso   1.000  O
  O222     1.0000 0.48000  0.54280  0.54000  Biso   1.000  O
  O223     1.0000 0.04280  0.02000  0.04000  Biso   1.000  O
  O224     1.0000 0.54280  0.52000  0.54000  Biso   1.000  O
  O225     1.0000 0.25200  0.15580  0.74860  Biso   1.000  O
  O226     1.0000 0.84420  0.25200  0.74860  Biso   1.000  O
  O227     1.0000 0.15580  0.74800  0.74860  Biso   1.000  O
  O228     1.0000 0.75200  0.65580  0.24860  Biso   1.000  O
  O229     1.0000 0.34420  0.75200  0.24860  Biso   1.000  O
  O230     1.0000 0.65580  0.24800  0.24860  Biso   1.000  O
  O231     1.0000 0.74800  0.84420  0.74860  Biso   1.000  O
  O232     1.0000 0.24800  0.34420  0.24860  Biso   1.000  O
  O233     1.0000 0.74800  0.84420  0.25140  Biso   1.000  O
  O234     1.0000 0.15580  0.74800  0.25140  Biso   1.000  O
  O235     1.0000 0.84420  0.25200  0.25140  Biso   1.000  O
  O236     1.0000 0.24800  0.34420  0.75140  Biso   1.000  O
  O237     1.0000 0.65580  0.24800  0.75140  Biso   1.000  O
  O238     1.0000 0.34420  0.75200  0.75140  Biso   1.000  O
  O239     1.0000 0.25200  0.15580  0.25140  Biso   1.000  O
  O240     1.0000 0.75200  0.65580  0.75140  Biso   1.000  O
  O241     1.0000 0.24700  0.12400  0.85940  Biso   1.000  O
  O242     1.0000 0.87600  0.24700  0.85940  Biso   1.000  O
  O243     1.0000 0.12400  0.75300  0.85940  Biso   1.000  O
  O244     1.0000 0.74700  0.62400  0.35940  Biso   1.000  O
  O245     1.0000 0.37600  0.74700  0.35940  Biso   1.000  O
  O246     1.0000 0.62400  0.25300  0.35940  Biso   1.000  O
  O247     1.0000 0.75300  0.87600  0.85940  Biso   1.000  O
  O248     1.0000 0.25300  0.37600  0.35940  Biso   1.000  O
  O249     1.0000 0.75300  0.87600  0.14060  Biso   1.000  O
  O250     1.0000 0.12400  0.75300  0.14060  Biso   1.000  O
  O251     1.0000 0.87600  0.24700  0.14060  Biso   1.000  O
  O252     1.0000 0.25300  0.37600  0.64060  Biso   1.000  O
  O253     1.0000 0.62400  0.25300  0.64060  Biso   1.000  O
  O254     1.0000 0.37600  0.74700  0.64060  Biso   1.000  O
  O255     1.0000 0.24700  0.12400  0.14060  Biso   1.000  O
  O256     1.0000 0.74700  0.62400  0.64060  Biso   1.000  O
  O257     1.0000 0.22200  0.05400  0.77500  Biso   1.000  O
  O258     1.0000 0.94600  0.22200  0.77500  Biso   1.000  O
  O259     1.0000 0.05400  0.77800  0.77500  Biso   1.000  O
  O260     1.0000 0.72200  0.55400  0.27500  Biso   1.000  O
  O261     1.0000 0.44600  0.72200  0.27500  Biso   1.000  O
  O262     1.0000 0.55400  0.27800  0.27500  Biso   1.000  O
  O263     1.0000 0.77800  0.94600  0.77500  Biso   1.000  O
  O264     1.0000 0.27800  0.44600  0.27500  Biso   1.000  O
  O265     1.0000 0.77800  0.94600  0.22500  Biso   1.000  O
  O266     1.0000 0.05400  0.77800  0.22500  Biso   1.000  O
  O267     1.0000 0.94600  0.22200  0.22500  Biso   1.000  O
  O268     1.0000 0.27800  0.44600  0.72500  Biso   1.000  O
  O269     1.0000 0.55400  0.27800  0.72500  Biso   1.000  O
  O270     1.0000 0.44600  0.72200  0.72500  Biso   1.000  O
  O271     1.0000 0.22200  0.05400  0.22500  Biso   1.000  O
  O272     1.0000 0.72200  0.55400  0.72500  Biso   1.000  O
  N121     1.0000 0.37000  0.56800  0.00000  Biso   1.000  N
  N122     1.0000 0.43200  0.37000  0.00000  Biso   1.000  N
  N123     1.0000 0.56800  0.63000  0.00000  Biso   1.000  N
  N124     1.0000 0.87000  0.06800  0.50000  Biso   1.000  N
  N125     1.0000 0.93200  0.87000  0.50000  Biso   1.000  N
  N126     1.0000 0.06800  0.13000  0.50000  Biso   1.000  N
  N127     1.0000 0.63000  0.43200  0.00000  Biso   1.000  N
  N128     1.0000 0.13000  0.93200  0.50000  Biso   1.000  N
  O273     1.0000 0.40800  0.52100  0.00000  Biso   1.000  O
  O274     1.0000 0.47900  0.40800  0.00000  Biso   1.000  O
  O275     1.0000 0.52100  0.59200  0.00000  Biso   1.000  O
  O276     1.0000 0.90800  0.02100  0.50000  Biso   1.000  O
  O277     1.0000 0.97900  0.90800  0.50000  Biso   1.000  O
  O278     1.0000 0.02100  0.09200  0.50000  Biso   1.000  O
  O279     1.0000 0.59200  0.47900  0.00000  Biso   1.000  O
  O280     1.0000 0.09200  0.97900  0.50000  Biso   1.000  O
  O281     1.0000 0.34900  0.59900  0.94930  Biso   1.000  O
  O282     1.0000 0.40100  0.34900  0.94930  Biso   1.000  O
  O283     1.0000 0.59900  0.65100  0.94930  Biso   1.000  O
  O284     1.0000 0.84900  0.09900  0.44930  Biso   1.000  O
  O285     1.0000 0.90100  0.84900  0.44930  Biso   1.000  O
  O286     1.0000 0.09900  0.15100  0.44930  Biso   1.000  O
  O287     1.0000 0.65100  0.40100  0.94930  Biso   1.000  O
  O288     1.0000 0.15100  0.90100  0.44930  Biso   1.000  O
  O289     1.0000 0.65100  0.40100  0.05070  Biso   1.000  O
  O290     1.0000 0.59900  0.65100  0.05070  Biso   1.000  O
  O291     1.0000 0.40100  0.34900  0.05070  Biso   1.000  O
  O292     1.0000 0.15100  0.90100  0.55070  Biso   1.000  O
  O293     1.0000 0.09900  0.15100  0.55070  Biso   1.000  O
  O294     1.0000 0.90100  0.84900  0.55070  Biso   1.000  O
  O295     1.0000 0.34900  0.59900  0.05070  Biso   1.000  O
  O296     1.0000 0.84900  0.09900  0.55070  Biso   1.000  O
