data_image0
_cell_length_a       27.11
_cell_length_b       27.11
_cell_length_c       49.77
_cell_angle_alpha    90
_cell_angle_beta     90
_cell_angle_gamma    120

_symmetry_space_group_name_H-M    "P 1"
_symmetry_int_tables_number       1

loop_
  _symmetry_equiv_pos_as_xyz
  'x, y, z'

loop_
  _atom_site_label
  _atom_site_occupancy
  _atom_site_fract_x
  _atom_site_fract_y
  _atom_site_fract_z
  _atom_site_thermal_displace_type
  _atom_site_B_iso_or_equiv
  _atom_site_type_symbol
  Cu1      1.0000 0.81295  0.14284  0.26446  Biso   1.000  Cu
  Cu2      1.0000 0.85716  0.67011  0.26446  Biso   1.000  Cu
  Cu3      1.0000 0.14284  0.81295  0.73554  Biso   1.000  Cu
  Cu4      1.0000 0.32989  0.18705  0.26446  Biso   1.000  Cu
  Cu5      1.0000 0.18705  0.32989  0.73554  Biso   1.000  Cu
  Cu6      1.0000 0.67011  0.85716  0.73554  Biso   1.000  Cu
  Cu7      1.0000 0.14628  0.80951  0.93113  Biso   1.000  Cu
  Cu8      1.0000 0.19049  0.33678  0.93113  Biso   1.000  Cu
  Cu9      1.0000 0.47617  0.47962  0.40221  Biso   1.000  Cu
  Cu10     1.0000 0.66322  0.85372  0.93113  Biso   1.000  Cu
  Cu11     1.0000 0.52038  0.99656  0.40221  Biso   1.000  Cu
  Cu12     1.0000 0.00344  0.52383  0.40221  Biso   1.000  Cu
  Cu13     1.0000 0.47962  0.47617  0.59779  Biso   1.000  Cu
  Cu14     1.0000 0.52383  0.00344  0.59779  Biso   1.000  Cu
  Cu15     1.0000 0.80951  0.14628  0.06887  Biso   1.000  Cu
  Cu16     1.0000 0.99656  0.52038  0.59779  Biso   1.000  Cu
  Cu17     1.0000 0.85372  0.66322  0.06887  Biso   1.000  Cu
  Cu18     1.0000 0.33678  0.19049  0.06887  Biso   1.000  Cu
  Cu19     1.0000 0.65167  0.81026  0.43176  Biso   1.000  Cu
  Cu20     1.0000 0.18974  0.84141  0.43176  Biso   1.000  Cu
  Cu21     1.0000 0.81026  0.65167  0.56824  Biso   1.000  Cu
  Cu22     1.0000 0.15859  0.34833  0.43176  Biso   1.000  Cu
  Cu23     1.0000 0.34833  0.15859  0.56824  Biso   1.000  Cu
  Cu24     1.0000 0.84141  0.18974  0.56824  Biso   1.000  Cu
  Cu25     1.0000 0.98500  0.47693  0.09843  Biso   1.000  Cu
  Cu26     1.0000 0.52307  0.50808  0.09843  Biso   1.000  Cu
  Cu27     1.0000 0.14359  0.31834  0.23491  Biso   1.000  Cu
  Cu28     1.0000 0.49192  0.01500  0.09843  Biso   1.000  Cu
  Cu29     1.0000 0.68166  0.82526  0.23491  Biso   1.000  Cu
  Cu30     1.0000 0.17474  0.85641  0.23491  Biso   1.000  Cu
  Cu31     1.0000 0.31834  0.14359  0.76509  Biso   1.000  Cu
  Cu32     1.0000 0.85641  0.17474  0.76509  Biso   1.000  Cu
  Cu33     1.0000 0.47693  0.98500  0.90157  Biso   1.000  Cu
  Cu34     1.0000 0.82526  0.68166  0.76509  Biso   1.000  Cu
  Cu35     1.0000 0.01500  0.49192  0.90157  Biso   1.000  Cu
  Cu36     1.0000 0.50808  0.52307  0.90157  Biso   1.000  Cu
  Cl1      1.0000 0.63970  0.13140  0.29357  Biso   1.000  Cl
  Cl2      1.0000 0.86860  0.50830  0.29357  Biso   1.000  Cl
  Cl3      1.0000 0.13140  0.63970  0.70643  Biso   1.000  Cl
  Cl4      1.0000 0.49170  0.36030  0.29357  Biso   1.000  Cl
  Cl5      1.0000 0.36030  0.49170  0.70643  Biso   1.000  Cl
  Cl6      1.0000 0.50830  0.86860  0.70643  Biso   1.000  Cl
  Cl7      1.0000 0.97303  0.79807  0.96024  Biso   1.000  Cl
  Cl8      1.0000 0.20193  0.17497  0.96024  Biso   1.000  Cl
  Cl9      1.0000 0.46473  0.30637  0.37310  Biso   1.000  Cl
  Cl10     1.0000 0.82503  0.02697  0.96024  Biso   1.000  Cl
  Cl11     1.0000 0.69363  0.15837  0.37310  Biso   1.000  Cl
  Cl12     1.0000 0.84163  0.53527  0.37310  Biso   1.000  Cl
  Cl13     1.0000 0.30637  0.46473  0.62690  Biso   1.000  Cl
  Cl14     1.0000 0.53527  0.84163  0.62690  Biso   1.000  Cl
  Cl15     1.0000 0.79807  0.97303  0.03976  Biso   1.000  Cl
  Cl16     1.0000 0.15837  0.69363  0.62690  Biso   1.000  Cl
  Cl17     1.0000 0.02697  0.82503  0.03976  Biso   1.000  Cl
  Cl18     1.0000 0.17497  0.20193  0.03976  Biso   1.000  Cl
  Cl19     1.0000 0.51600  0.93000  0.24500  Biso   1.000  Cl
  Cl20     1.0000 0.07000  0.58600  0.24500  Biso   1.000  Cl
  Cl21     1.0000 0.93000  0.51600  0.75500  Biso   1.000  Cl
  Cl22     1.0000 0.41400  0.48400  0.24500  Biso   1.000  Cl
  Cl23     1.0000 0.48400  0.41400  0.75500  Biso   1.000  Cl
  Cl24     1.0000 0.58600  0.07000  0.75500  Biso   1.000  Cl
  Cl25     1.0000 0.84933  0.59667  0.91167  Biso   1.000  Cl
  Cl26     1.0000 0.40333  0.25267  0.91167  Biso   1.000  Cl
  Cl27     1.0000 0.26333  0.18267  0.42167  Biso   1.000  Cl
  Cl28     1.0000 0.74733  0.15067  0.91167  Biso   1.000  Cl
  Cl29     1.0000 0.81733  0.08067  0.42167  Biso   1.000  Cl
  Cl30     1.0000 0.91933  0.73667  0.42167  Biso   1.000  Cl
  Cl31     1.0000 0.18267  0.26333  0.57833  Biso   1.000  Cl
  Cl32     1.0000 0.73667  0.91933  0.57833  Biso   1.000  Cl
  Cl33     1.0000 0.59667  0.84933  0.08833  Biso   1.000  Cl
  Cl34     1.0000 0.08067  0.81733  0.57833  Biso   1.000  Cl
  Cl35     1.0000 0.15067  0.74733  0.08833  Biso   1.000  Cl
  Cl36     1.0000 0.25267  0.40333  0.08833  Biso   1.000  Cl
  Cl37     1.0000 0.81190  0.79420  0.45971  Biso   1.000  Cl
  Cl38     1.0000 0.20580  0.01770  0.45971  Biso   1.000  Cl
  Cl39     1.0000 0.79420  0.81190  0.54029  Biso   1.000  Cl
  Cl40     1.0000 0.98230  0.18810  0.45971  Biso   1.000  Cl
  Cl41     1.0000 0.18810  0.98230  0.54029  Biso   1.000  Cl
  Cl42     1.0000 0.01770  0.20580  0.54029  Biso   1.000  Cl
  Cl43     1.0000 0.14523  0.46087  0.12638  Biso   1.000  Cl
  Cl44     1.0000 0.53913  0.68437  0.12638  Biso   1.000  Cl
  Cl45     1.0000 0.12753  0.47857  0.20696  Biso   1.000  Cl
  Cl46     1.0000 0.31563  0.85477  0.12638  Biso   1.000  Cl
  Cl47     1.0000 0.52143  0.64897  0.20696  Biso   1.000  Cl
  Cl48     1.0000 0.35103  0.87247  0.20696  Biso   1.000  Cl
  Cl49     1.0000 0.47857  0.12753  0.79304  Biso   1.000  Cl
  Cl50     1.0000 0.87247  0.35103  0.79304  Biso   1.000  Cl
  Cl51     1.0000 0.46087  0.14523  0.87362  Biso   1.000  Cl
  Cl52     1.0000 0.64897  0.52143  0.79304  Biso   1.000  Cl
  Cl53     1.0000 0.85477  0.31563  0.87362  Biso   1.000  Cl
  Cl54     1.0000 0.68437  0.53913  0.87362  Biso   1.000  Cl
  Cl55     1.0000 0.73270  0.59860  0.40360  Biso   1.000  Cl
  Cl56     1.0000 0.40140  0.13410  0.40360  Biso   1.000  Cl
  Cl57     1.0000 0.59860  0.73270  0.59640  Biso   1.000  Cl
  Cl58     1.0000 0.86590  0.26730  0.40360  Biso   1.000  Cl
  Cl59     1.0000 0.26730  0.86590  0.59640  Biso   1.000  Cl
  Cl60     1.0000 0.13410  0.40140  0.59640  Biso   1.000  Cl
  Cl61     1.0000 0.06603  0.26527  0.07027  Biso   1.000  Cl
  Cl62     1.0000 0.73473  0.80077  0.07027  Biso   1.000  Cl
  Cl63     1.0000 0.93193  0.39937  0.26307  Biso   1.000  Cl
  Cl64     1.0000 0.19923  0.93397  0.07027  Biso   1.000  Cl
  Cl65     1.0000 0.60063  0.53257  0.26307  Biso   1.000  Cl
  Cl66     1.0000 0.46743  0.06807  0.26307  Biso   1.000  Cl
  Cl67     1.0000 0.39937  0.93193  0.73693  Biso   1.000  Cl
  Cl68     1.0000 0.06807  0.46743  0.73693  Biso   1.000  Cl
  Cl69     1.0000 0.26527  0.06603  0.92973  Biso   1.000  Cl
  Cl70     1.0000 0.53257  0.60063  0.73693  Biso   1.000  Cl
  Cl71     1.0000 0.93397  0.19923  0.92973  Biso   1.000  Cl
  Cl72     1.0000 0.80077  0.73473  0.92973  Biso   1.000  Cl
  N1       1.0000 0.78350  0.08130  0.23570  Biso   1.000  N
  N2       1.0000 0.91870  0.70220  0.23570  Biso   1.000  N
  N3       1.0000 0.08130  0.78350  0.76430  Biso   1.000  N
  N4       1.0000 0.29780  0.21650  0.23570  Biso   1.000  N
  N5       1.0000 0.21650  0.29780  0.76430  Biso   1.000  N
  N6       1.0000 0.70220  0.91870  0.76430  Biso   1.000  N
  N7       1.0000 0.11683  0.74797  0.90237  Biso   1.000  N
  N8       1.0000 0.25203  0.36887  0.90237  Biso   1.000  N
  N9       1.0000 0.41463  0.45017  0.43097  Biso   1.000  N
  N10      1.0000 0.63113  0.88317  0.90237  Biso   1.000  N
  N11      1.0000 0.54983  0.96447  0.43097  Biso   1.000  N
  N12      1.0000 0.03553  0.58537  0.43097  Biso   1.000  N
  N13      1.0000 0.45017  0.41463  0.56903  Biso   1.000  N
  N14      1.0000 0.58537  0.03553  0.56903  Biso   1.000  N
  N15      1.0000 0.74797  0.11683  0.09763  Biso   1.000  N
  N16      1.0000 0.96447  0.54983  0.56903  Biso   1.000  N
  N17      1.0000 0.88317  0.63113  0.09763  Biso   1.000  N
  N18      1.0000 0.36887  0.25203  0.09763  Biso   1.000  N
  N19      1.0000 0.61640  0.75000  0.40400  Biso   1.000  N
  N20      1.0000 0.25000  0.86640  0.40400  Biso   1.000  N
  N21      1.0000 0.75000  0.61640  0.59600  Biso   1.000  N
  N22      1.0000 0.13360  0.38360  0.40400  Biso   1.000  N
  N23      1.0000 0.38360  0.13360  0.59600  Biso   1.000  N
  N24      1.0000 0.86640  0.25000  0.59600  Biso   1.000  N
  N25      1.0000 0.94973  0.41667  0.07067  Biso   1.000  N
  N26      1.0000 0.58333  0.53307  0.07067  Biso   1.000  N
  N27      1.0000 0.08333  0.28307  0.26267  Biso   1.000  N
  N28      1.0000 0.46693  0.05027  0.07067  Biso   1.000  N
  N29      1.0000 0.71693  0.80027  0.26267  Biso   1.000  N
  N30      1.0000 0.19973  0.91667  0.26267  Biso   1.000  N
  N31      1.0000 0.28307  0.08333  0.73733  Biso   1.000  N
  N32      1.0000 0.91667  0.19973  0.73733  Biso   1.000  N
  N33      1.0000 0.41667  0.94973  0.92933  Biso   1.000  N
  N34      1.0000 0.80027  0.71693  0.73733  Biso   1.000  N
  N35      1.0000 0.05027  0.46693  0.92933  Biso   1.000  N
  N36      1.0000 0.53307  0.58333  0.92933  Biso   1.000  N
  N37      1.0000 0.78900  0.08430  0.29680  Biso   1.000  N
  N38      1.0000 0.91570  0.70470  0.29680  Biso   1.000  N
  N39      1.0000 0.08430  0.78900  0.70320  Biso   1.000  N
  N40      1.0000 0.29530  0.21100  0.29680  Biso   1.000  N
  N41      1.0000 0.21100  0.29530  0.70320  Biso   1.000  N
  N42      1.0000 0.70470  0.91570  0.70320  Biso   1.000  N
  N43      1.0000 0.12233  0.75097  0.96347  Biso   1.000  N
  N44      1.0000 0.24903  0.37137  0.96347  Biso   1.000  N
  N45      1.0000 0.41763  0.45567  0.36987  Biso   1.000  N
  N46      1.0000 0.62863  0.87767  0.96347  Biso   1.000  N
  N47      1.0000 0.54433  0.96197  0.36987  Biso   1.000  N
  N48      1.0000 0.03803  0.58237  0.36987  Biso   1.000  N
  N49      1.0000 0.45567  0.41763  0.63013  Biso   1.000  N
  N50      1.0000 0.58237  0.03803  0.63013  Biso   1.000  N
  N51      1.0000 0.75097  0.12233  0.03653  Biso   1.000  N
  N52      1.0000 0.96197  0.54433  0.63013  Biso   1.000  N
  N53      1.0000 0.87767  0.62863  0.03653  Biso   1.000  N
  N54      1.0000 0.37137  0.24903  0.03653  Biso   1.000  N
  N55      1.0000 0.68690  0.87580  0.40140  Biso   1.000  N
  N56      1.0000 0.12420  0.81110  0.40140  Biso   1.000  N
  N57      1.0000 0.87580  0.68690  0.59860  Biso   1.000  N
  N58      1.0000 0.18890  0.31310  0.40140  Biso   1.000  N
  N59      1.0000 0.31310  0.18890  0.59860  Biso   1.000  N
  N60      1.0000 0.81110  0.12420  0.59860  Biso   1.000  N
  N61      1.0000 0.02023  0.54247  0.06807  Biso   1.000  N
  N62      1.0000 0.45753  0.47777  0.06807  Biso   1.000  N
  N63      1.0000 0.20913  0.35357  0.26527  Biso   1.000  N
  N64      1.0000 0.52223  0.97977  0.06807  Biso   1.000  N
  N65      1.0000 0.64643  0.85557  0.26527  Biso   1.000  N
  N66      1.0000 0.14443  0.79087  0.26527  Biso   1.000  N
  N67      1.0000 0.35357  0.20913  0.73473  Biso   1.000  N
  N68      1.0000 0.79087  0.14443  0.73473  Biso   1.000  N
  N69      1.0000 0.54247  0.02023  0.93193  Biso   1.000  N
  N70      1.0000 0.85557  0.64643  0.73473  Biso   1.000  N
  N71      1.0000 0.97977  0.52223  0.93193  Biso   1.000  N
  N72      1.0000 0.47777  0.45753  0.93193  Biso   1.000  N
  N73      1.0000 0.84530  0.20900  0.23420  Biso   1.000  N
  N74      1.0000 0.79100  0.63630  0.23420  Biso   1.000  N
  N75      1.0000 0.20900  0.84530  0.76580  Biso   1.000  N
  N76      1.0000 0.36370  0.15470  0.23420  Biso   1.000  N
  N77      1.0000 0.15470  0.36370  0.76580  Biso   1.000  N
  N78      1.0000 0.63630  0.79100  0.76580  Biso   1.000  N
  N79      1.0000 0.17863  0.87567  0.90087  Biso   1.000  N
  N80      1.0000 0.12433  0.30297  0.90087  Biso   1.000  N
  N81      1.0000 0.54233  0.51197  0.43247  Biso   1.000  N
  N82      1.0000 0.69703  0.82137  0.90087  Biso   1.000  N
  N83      1.0000 0.48803  0.03037  0.43247  Biso   1.000  N
  N84      1.0000 0.96963  0.45767  0.43247  Biso   1.000  N
  N85      1.0000 0.51197  0.54233  0.56753  Biso   1.000  N
  N86      1.0000 0.45767  0.96963  0.56753  Biso   1.000  N
  N87      1.0000 0.87567  0.17863  0.09913  Biso   1.000  N
  N88      1.0000 0.03037  0.48803  0.56753  Biso   1.000  N
  N89      1.0000 0.82137  0.69703  0.09913  Biso   1.000  N
  N90      1.0000 0.30297  0.12433  0.09913  Biso   1.000  N
  N91      1.0000 0.95050  0.41680  0.13080  Biso   1.000  N
  N92      1.0000 0.58320  0.53370  0.13080  Biso   1.000  N
  N93      1.0000 0.41680  0.95050  0.86920  Biso   1.000  N
  N94      1.0000 0.46630  0.04950  0.13080  Biso   1.000  N
  N95      1.0000 0.04950  0.46630  0.86920  Biso   1.000  N
  N96      1.0000 0.53370  0.58320  0.86920  Biso   1.000  N
  N97      1.0000 0.28383  0.08347  0.79747  Biso   1.000  N
  N98      1.0000 0.91653  0.20037  0.79747  Biso   1.000  N
  N99      1.0000 0.75013  0.61717  0.53587  Biso   1.000  N
  N100     1.0000 0.79963  0.71617  0.79747  Biso   1.000  N
  N101     1.0000 0.38283  0.13297  0.53587  Biso   1.000  N
  N102     1.0000 0.86703  0.24987  0.53587  Biso   1.000  N
  N103     1.0000 0.61717  0.75013  0.46413  Biso   1.000  N
  N104     1.0000 0.24987  0.86703  0.46413  Biso   1.000  N
  N105     1.0000 0.08347  0.28383  0.20253  Biso   1.000  N
  N106     1.0000 0.13297  0.38283  0.46413  Biso   1.000  N
  N107     1.0000 0.71617  0.79963  0.20253  Biso   1.000  N
  N108     1.0000 0.20037  0.91653  0.20253  Biso   1.000  N
  N109     1.0000 0.84440  0.20810  0.29280  Biso   1.000  N
  N110     1.0000 0.79190  0.63630  0.29280  Biso   1.000  N
  N111     1.0000 0.20810  0.84440  0.70720  Biso   1.000  N
  N112     1.0000 0.36370  0.15560  0.29280  Biso   1.000  N
  N113     1.0000 0.15560  0.36370  0.70720  Biso   1.000  N
  N114     1.0000 0.63630  0.79190  0.70720  Biso   1.000  N
  N115     1.0000 0.17773  0.87477  0.95947  Biso   1.000  N
  N116     1.0000 0.12523  0.30297  0.95947  Biso   1.000  N
  N117     1.0000 0.54143  0.51107  0.37387  Biso   1.000  N
  N118     1.0000 0.69703  0.82227  0.95947  Biso   1.000  N
  N119     1.0000 0.48893  0.03037  0.37387  Biso   1.000  N
  N120     1.0000 0.96963  0.45857  0.37387  Biso   1.000  N
  N121     1.0000 0.51107  0.54143  0.62613  Biso   1.000  N
  N122     1.0000 0.45857  0.96963  0.62613  Biso   1.000  N
  N123     1.0000 0.87477  0.17773  0.04053  Biso   1.000  N
  N124     1.0000 0.03037  0.48893  0.62613  Biso   1.000  N
  N125     1.0000 0.82227  0.69703  0.04053  Biso   1.000  N
  N126     1.0000 0.30297  0.12523  0.04053  Biso   1.000  N
  N127     1.0000 0.68690  0.87620  0.45940  Biso   1.000  N
  N128     1.0000 0.12380  0.81070  0.45940  Biso   1.000  N
  N129     1.0000 0.87620  0.68690  0.54060  Biso   1.000  N
  N130     1.0000 0.18930  0.31310  0.45940  Biso   1.000  N
  N131     1.0000 0.31310  0.18930  0.54060  Biso   1.000  N
  N132     1.0000 0.81070  0.12380  0.54060  Biso   1.000  N
  N133     1.0000 0.02023  0.54287  0.12607  Biso   1.000  N
  N134     1.0000 0.45713  0.47737  0.12607  Biso   1.000  N
  N135     1.0000 0.20953  0.35357  0.20727  Biso   1.000  N
  N136     1.0000 0.52263  0.97977  0.12607  Biso   1.000  N
  N137     1.0000 0.64643  0.85597  0.20727  Biso   1.000  N
  N138     1.0000 0.14403  0.79047  0.20727  Biso   1.000  N
  N139     1.0000 0.35357  0.20953  0.79273  Biso   1.000  N
  N140     1.0000 0.79047  0.14403  0.79273  Biso   1.000  N
  N141     1.0000 0.54287  0.02023  0.87393  Biso   1.000  N
  N142     1.0000 0.85597  0.64643  0.79273  Biso   1.000  N
  N143     1.0000 0.97977  0.52263  0.87393  Biso   1.000  N
  N144     1.0000 0.47737  0.45713  0.87393  Biso   1.000  N
  O1       1.0000 0.88510  0.13730  0.25850  Biso   1.000  O
  O2       1.0000 0.86270  0.74780  0.25850  Biso   1.000  O
  O3       1.0000 0.13730  0.88510  0.74150  Biso   1.000  O
  O4       1.0000 0.25220  0.11490  0.25850  Biso   1.000  O
  O5       1.0000 0.11490  0.25220  0.74150  Biso   1.000  O
  O6       1.0000 0.74780  0.86270  0.74150  Biso   1.000  O
  O7       1.0000 0.21843  0.80397  0.92517  Biso   1.000  O
  O8       1.0000 0.19603  0.41447  0.92517  Biso   1.000  O
  O9       1.0000 0.47063  0.55177  0.40817  Biso   1.000  O
  O10      1.0000 0.58553  0.78157  0.92517  Biso   1.000  O
  O11      1.0000 0.44823  0.91887  0.40817  Biso   1.000  O
  O12      1.0000 0.08113  0.52937  0.40817  Biso   1.000  O
  O13      1.0000 0.55177  0.47063  0.59183  Biso   1.000  O
  O14      1.0000 0.52937  0.08113  0.59183  Biso   1.000  O
  O15      1.0000 0.80397  0.21843  0.07483  Biso   1.000  O
  O16      1.0000 0.91887  0.44823  0.59183  Biso   1.000  O
  O17      1.0000 0.78157  0.58553  0.07483  Biso   1.000  O
  O18      1.0000 0.41447  0.19603  0.07483  Biso   1.000  O
  O19      1.0000 0.92410  0.10700  0.22870  Biso   1.000  O
  O20      1.0000 0.89300  0.81710  0.22870  Biso   1.000  O
  O21      1.0000 0.10700  0.92410  0.77130  Biso   1.000  O
  O22      1.0000 0.18290  0.07590  0.22870  Biso   1.000  O
  O23      1.0000 0.07590  0.18290  0.77130  Biso   1.000  O
  O24      1.0000 0.81710  0.89300  0.77130  Biso   1.000  O
  O25      1.0000 0.25743  0.77367  0.89537  Biso   1.000  O
  O26      1.0000 0.22633  0.48377  0.89537  Biso   1.000  O
  O27      1.0000 0.44033  0.59077  0.43797  Biso   1.000  O
  O28      1.0000 0.51623  0.74257  0.89537  Biso   1.000  O
  O29      1.0000 0.40923  0.84957  0.43797  Biso   1.000  O
  O30      1.0000 0.15043  0.55967  0.43797  Biso   1.000  O
  O31      1.0000 0.59077  0.44033  0.56203  Biso   1.000  O
  O32      1.0000 0.55967  0.15043  0.56203  Biso   1.000  O
  O33      1.0000 0.77367  0.25743  0.10463  Biso   1.000  O
  O34      1.0000 0.84957  0.40923  0.56203  Biso   1.000  O
  O35      1.0000 0.74257  0.51623  0.10463  Biso   1.000  O
  O36      1.0000 0.48377  0.22633  0.10463  Biso   1.000  O
  O37      1.0000 0.78820  0.06050  0.17650  Biso   1.000  O
  O38      1.0000 0.93950  0.72770  0.17650  Biso   1.000  O
  O39      1.0000 0.06050  0.78820  0.82350  Biso   1.000  O
  O40      1.0000 0.27230  0.21180  0.17650  Biso   1.000  O
  O41      1.0000 0.21180  0.27230  0.82350  Biso   1.000  O
  O42      1.0000 0.72770  0.93950  0.82350  Biso   1.000  O
  O43      1.0000 0.12153  0.72717  0.84317  Biso   1.000  O
  O44      1.0000 0.27283  0.39437  0.84317  Biso   1.000  O
  O45      1.0000 0.39383  0.45487  0.49017  Biso   1.000  O
  O46      1.0000 0.60563  0.87847  0.84317  Biso   1.000  O
  O47      1.0000 0.54513  0.93897  0.49017  Biso   1.000  O
  O48      1.0000 0.06103  0.60617  0.49017  Biso   1.000  O
  O49      1.0000 0.45487  0.39383  0.50983  Biso   1.000  O
  O50      1.0000 0.60617  0.06103  0.50983  Biso   1.000  O
  O51      1.0000 0.72717  0.12153  0.15683  Biso   1.000  O
  O52      1.0000 0.93897  0.54513  0.50983  Biso   1.000  O
  O53      1.0000 0.87847  0.60563  0.15683  Biso   1.000  O
  O54      1.0000 0.39437  0.27283  0.15683  Biso   1.000  O
  H1       1.0000 0.76170  0.06420  0.18200  Biso   1.000  H
  H2       1.0000 0.93580  0.69750  0.18200  Biso   1.000  H
  H3       1.0000 0.06420  0.76170  0.81800  Biso   1.000  H
  H4       1.0000 0.30250  0.23830  0.18200  Biso   1.000  H
  H5       1.0000 0.23830  0.30250  0.81800  Biso   1.000  H
  H6       1.0000 0.69750  0.93580  0.81800  Biso   1.000  H
  H7       1.0000 0.09503  0.73087  0.84867  Biso   1.000  H
  H8       1.0000 0.26913  0.36417  0.84867  Biso   1.000  H
  H9       1.0000 0.39753  0.42837  0.48467  Biso   1.000  H
  H10      1.0000 0.63583  0.90497  0.84867  Biso   1.000  H
  H11      1.0000 0.57163  0.96917  0.48467  Biso   1.000  H
  H12      1.0000 0.03083  0.60247  0.48467  Biso   1.000  H
  H13      1.0000 0.42837  0.39753  0.51533  Biso   1.000  H
  H14      1.0000 0.60247  0.03083  0.51533  Biso   1.000  H
  H15      1.0000 0.73087  0.09503  0.15133  Biso   1.000  H
  H16      1.0000 0.96917  0.57163  0.51533  Biso   1.000  H
  H17      1.0000 0.90497  0.63583  0.15133  Biso   1.000  H
  H18      1.0000 0.36417  0.26913  0.15133  Biso   1.000  H
  O55      1.0000 0.73520  0.13490  0.26637  Biso   1.000  O
  O56      1.0000 0.86510  0.60030  0.26637  Biso   1.000  O
  O57      1.0000 0.13490  0.73520  0.73363  Biso   1.000  O
  O58      1.0000 0.39970  0.26480  0.26637  Biso   1.000  O
  O59      1.0000 0.26480  0.39970  0.73363  Biso   1.000  O
  O60      1.0000 0.60030  0.86510  0.73363  Biso   1.000  O
  O61      1.0000 0.06853  0.80157  0.93304  Biso   1.000  O
  O62      1.0000 0.19843  0.26697  0.93304  Biso   1.000  O
  O63      1.0000 0.46823  0.40187  0.40030  Biso   1.000  O
  O64      1.0000 0.73303  0.93147  0.93304  Biso   1.000  O
  O65      1.0000 0.59813  0.06637  0.40030  Biso   1.000  O
  O66      1.0000 0.93363  0.53177  0.40030  Biso   1.000  O
  O67      1.0000 0.40187  0.46823  0.59970  Biso   1.000  O
  O68      1.0000 0.53177  0.93363  0.59970  Biso   1.000  O
  O69      1.0000 0.80157  0.06853  0.06696  Biso   1.000  O
  O70      1.0000 0.06637  0.59813  0.59970  Biso   1.000  O
  O71      1.0000 0.93147  0.73303  0.06696  Biso   1.000  O
  O72      1.0000 0.26697  0.19843  0.06696  Biso   1.000  O
  O73      1.0000 0.57760  0.81240  0.42800  Biso   1.000  O
  O74      1.0000 0.18760  0.76520  0.42800  Biso   1.000  O
  O75      1.0000 0.81240  0.57760  0.57200  Biso   1.000  O
  O76      1.0000 0.23480  0.42240  0.42800  Biso   1.000  O
  O77      1.0000 0.42240  0.23480  0.57200  Biso   1.000  O
  O78      1.0000 0.76520  0.18760  0.57200  Biso   1.000  O
  O79      1.0000 0.91093  0.47907  0.09467  Biso   1.000  O
  O80      1.0000 0.52093  0.43187  0.09467  Biso   1.000  O
  O81      1.0000 0.14573  0.24427  0.23867  Biso   1.000  O
  O82      1.0000 0.56813  0.08907  0.09467  Biso   1.000  O
  O83      1.0000 0.75573  0.90147  0.23867  Biso   1.000  O
  O84      1.0000 0.09853  0.85427  0.23867  Biso   1.000  O
  O85      1.0000 0.24427  0.14573  0.76133  Biso   1.000  O
  O86      1.0000 0.85427  0.09853  0.76133  Biso   1.000  O
  O87      1.0000 0.47907  0.91093  0.90533  Biso   1.000  O
  O88      1.0000 0.90147  0.75573  0.76133  Biso   1.000  O
  O89      1.0000 0.08907  0.56813  0.90533  Biso   1.000  O
  O90      1.0000 0.43187  0.52093  0.90533  Biso   1.000  O
  O91      1.0000 0.50730  0.78810  0.39950  Biso   1.000  O
  O92      1.0000 0.21190  0.71920  0.39950  Biso   1.000  O
  O93      1.0000 0.78810  0.50730  0.60050  Biso   1.000  O
  O94      1.0000 0.28080  0.49270  0.39950  Biso   1.000  O
  O95      1.0000 0.49270  0.28080  0.60050  Biso   1.000  O
  O96      1.0000 0.71920  0.21190  0.60050  Biso   1.000  O
  O97      1.0000 0.84063  0.45477  0.06617  Biso   1.000  O
  O98      1.0000 0.54523  0.38587  0.06617  Biso   1.000  O
  O99      1.0000 0.12143  0.17397  0.26717  Biso   1.000  O
  O100     1.0000 0.61413  0.15937  0.06617  Biso   1.000  O
  O101     1.0000 0.82603  0.94747  0.26717  Biso   1.000  O
  O102     1.0000 0.05253  0.87857  0.26717  Biso   1.000  O
  O103     1.0000 0.17397  0.12143  0.73283  Biso   1.000  O
  O104     1.0000 0.87857  0.05253  0.73283  Biso   1.000  O
  O105     1.0000 0.45477  0.84063  0.93383  Biso   1.000  O
  O106     1.0000 0.94747  0.82603  0.73283  Biso   1.000  O
  O107     1.0000 0.15937  0.61413  0.93383  Biso   1.000  O
  O108     1.0000 0.38587  0.54523  0.93383  Biso   1.000  O
  O109     1.0000 0.50700  0.64460  0.37700  Biso   1.000  O
  O110     1.0000 0.35540  0.86240  0.37700  Biso   1.000  O
  O111     1.0000 0.64460  0.50700  0.62300  Biso   1.000  O
  O112     1.0000 0.13760  0.49300  0.37700  Biso   1.000  O
  O113     1.0000 0.49300  0.13760  0.62300  Biso   1.000  O
  O114     1.0000 0.86240  0.35540  0.62300  Biso   1.000  O
  O115     1.0000 0.84033  0.31127  0.04367  Biso   1.000  O
  O116     1.0000 0.68873  0.52907  0.04367  Biso   1.000  O
  O117     1.0000 0.97793  0.17367  0.28967  Biso   1.000  O
  O118     1.0000 0.47093  0.15967  0.04367  Biso   1.000  O
  O119     1.0000 0.82633  0.80427  0.28967  Biso   1.000  O
  O120     1.0000 0.19573  0.02207  0.28967  Biso   1.000  O
  O121     1.0000 0.17367  0.97793  0.71033  Biso   1.000  O
  O122     1.0000 0.02207  0.19573  0.71033  Biso   1.000  O
  O123     1.0000 0.31127  0.84033  0.95633  Biso   1.000  O
  O124     1.0000 0.80427  0.82633  0.71033  Biso   1.000  O
  O125     1.0000 0.15967  0.47093  0.95633  Biso   1.000  O
  O126     1.0000 0.52907  0.68873  0.95633  Biso   1.000  O
  H19      1.0000 0.50960  0.65110  0.36090  Biso   1.000  H
  H20      1.0000 0.34890  0.85850  0.36090  Biso   1.000  H
  H21      1.0000 0.65110  0.50960  0.63910  Biso   1.000  H
  H22      1.0000 0.14150  0.49040  0.36090  Biso   1.000  H
  H23      1.0000 0.49040  0.14150  0.63910  Biso   1.000  H
  H24      1.0000 0.85850  0.34890  0.63910  Biso   1.000  H
  H25      1.0000 0.84293  0.31777  0.02757  Biso   1.000  H
  H26      1.0000 0.68223  0.52517  0.02757  Biso   1.000  H
  H27      1.0000 0.98443  0.17627  0.30577  Biso   1.000  H
  H28      1.0000 0.47483  0.15707  0.02757  Biso   1.000  H
  H29      1.0000 0.82373  0.80817  0.30577  Biso   1.000  H
  H30      1.0000 0.19183  0.01557  0.30577  Biso   1.000  H
  H31      1.0000 0.17627  0.98443  0.69423  Biso   1.000  H
  H32      1.0000 0.01557  0.19183  0.69423  Biso   1.000  H
  H33      1.0000 0.31777  0.84293  0.97243  Biso   1.000  H
  H34      1.0000 0.80817  0.82373  0.69423  Biso   1.000  H
  H35      1.0000 0.15707  0.47483  0.97243  Biso   1.000  H
  H36      1.0000 0.52517  0.68223  0.97243  Biso   1.000  H
  O127     1.0000 0.72270  0.80330  0.43200  Biso   1.000  O
  O128     1.0000 0.19670  0.91940  0.43200  Biso   1.000  O
  O129     1.0000 0.80330  0.72270  0.56800  Biso   1.000  O
  O130     1.0000 0.08060  0.27730  0.43200  Biso   1.000  O
  O131     1.0000 0.27730  0.08060  0.56800  Biso   1.000  O
  O132     1.0000 0.91940  0.19670  0.56800  Biso   1.000  O
  O133     1.0000 0.05603  0.46997  0.09867  Biso   1.000  O
  O134     1.0000 0.53003  0.58607  0.09867  Biso   1.000  O
  O135     1.0000 0.13663  0.38937  0.23467  Biso   1.000  O
  O136     1.0000 0.41393  0.94397  0.09867  Biso   1.000  O
  O137     1.0000 0.61063  0.74727  0.23467  Biso   1.000  O
  O138     1.0000 0.25273  0.86337  0.23467  Biso   1.000  O
  O139     1.0000 0.38937  0.13663  0.76533  Biso   1.000  O
  O140     1.0000 0.86337  0.25273  0.76533  Biso   1.000  O
  O141     1.0000 0.46997  0.05603  0.90133  Biso   1.000  O
  O142     1.0000 0.74727  0.61063  0.76533  Biso   1.000  O
  O143     1.0000 0.94397  0.41393  0.90133  Biso   1.000  O
  O144     1.0000 0.58607  0.53003  0.90133  Biso   1.000  O
  C1       1.0000 0.88350  0.10930  0.23820  Biso   1.000  C
  C2       1.0000 0.89070  0.77420  0.23820  Biso   1.000  C
  C3       1.0000 0.10930  0.88350  0.76180  Biso   1.000  C
  C4       1.0000 0.22580  0.11650  0.23820  Biso   1.000  C
  C5       1.0000 0.11650  0.22580  0.76180  Biso   1.000  C
  C6       1.0000 0.77420  0.89070  0.76180  Biso   1.000  C
  C7       1.0000 0.21683  0.77597  0.90487  Biso   1.000  C
  C8       1.0000 0.22403  0.44087  0.90487  Biso   1.000  C
  C9       1.0000 0.44263  0.55017  0.42847  Biso   1.000  C
  C10      1.0000 0.55913  0.78317  0.90487  Biso   1.000  C
  C11      1.0000 0.44983  0.89247  0.42847  Biso   1.000  C
  C12      1.0000 0.10753  0.55737  0.42847  Biso   1.000  C
  C13      1.0000 0.55017  0.44263  0.57153  Biso   1.000  C
  C14      1.0000 0.55737  0.10753  0.57153  Biso   1.000  C
  C15      1.0000 0.77597  0.21683  0.09513  Biso   1.000  C
  C16      1.0000 0.89247  0.44983  0.57153  Biso   1.000  C
  C17      1.0000 0.78317  0.55913  0.09513  Biso   1.000  C
  C18      1.0000 0.44087  0.22403  0.09513  Biso   1.000  C
  C19      1.0000 0.82900  0.07520  0.22240  Biso   1.000  C
  C20      1.0000 0.92480  0.75380  0.22240  Biso   1.000  C
  C21      1.0000 0.07520  0.82900  0.77760  Biso   1.000  C
  C22      1.0000 0.24620  0.17100  0.22240  Biso   1.000  C
  C23      1.0000 0.17100  0.24620  0.77760  Biso   1.000  C
  C24      1.0000 0.75380  0.92480  0.77760  Biso   1.000  C
  C25      1.0000 0.16233  0.74187  0.88907  Biso   1.000  C
  C26      1.0000 0.25813  0.42047  0.88907  Biso   1.000  C
  C27      1.0000 0.40853  0.49567  0.44427  Biso   1.000  C
  C28      1.0000 0.57953  0.83767  0.88907  Biso   1.000  C
  C29      1.0000 0.50433  0.91287  0.44427  Biso   1.000  C
  C30      1.0000 0.08713  0.59147  0.44427  Biso   1.000  C
  C31      1.0000 0.49567  0.40853  0.55573  Biso   1.000  C
  C32      1.0000 0.59147  0.08713  0.55573  Biso   1.000  C
  C33      1.0000 0.74187  0.16233  0.11093  Biso   1.000  C
  C34      1.0000 0.91287  0.50433  0.55573  Biso   1.000  C
  C35      1.0000 0.83767  0.57953  0.11093  Biso   1.000  C
  C36      1.0000 0.42047  0.25813  0.11093  Biso   1.000  C
  H37      1.0000 0.81850  0.03500  0.22320  Biso   1.000  H
  H38      1.0000 0.96500  0.78350  0.22320  Biso   1.000  H
  H39      1.0000 0.03500  0.81850  0.77680  Biso   1.000  H
  H40      1.0000 0.21650  0.18150  0.22320  Biso   1.000  H
  H41      1.0000 0.18150  0.21650  0.77680  Biso   1.000  H
  H42      1.0000 0.78350  0.96500  0.77680  Biso   1.000  H
  H43      1.0000 0.15183  0.70167  0.88987  Biso   1.000  H
  H44      1.0000 0.29833  0.45017  0.88987  Biso   1.000  H
  H45      1.0000 0.36833  0.48517  0.44347  Biso   1.000  H
  H46      1.0000 0.54983  0.84817  0.88987  Biso   1.000  H
  H47      1.0000 0.51483  0.88317  0.44347  Biso   1.000  H
  H48      1.0000 0.11683  0.63167  0.44347  Biso   1.000  H
  H49      1.0000 0.48517  0.36833  0.55653  Biso   1.000  H
  H50      1.0000 0.63167  0.11683  0.55653  Biso   1.000  H
  H51      1.0000 0.70167  0.15183  0.11013  Biso   1.000  H
  H52      1.0000 0.88317  0.51483  0.55653  Biso   1.000  H
  H53      1.0000 0.84817  0.54983  0.11013  Biso   1.000  H
  H54      1.0000 0.45017  0.29833  0.11013  Biso   1.000  H
  C37      1.0000 0.83800  0.09380  0.19320  Biso   1.000  C
  C38      1.0000 0.90620  0.74420  0.19320  Biso   1.000  C
  C39      1.0000 0.09380  0.83800  0.80680  Biso   1.000  C
  C40      1.0000 0.25580  0.16200  0.19320  Biso   1.000  C
  C41      1.0000 0.16200  0.25580  0.80680  Biso   1.000  C
  C42      1.0000 0.74420  0.90620  0.80680  Biso   1.000  C
  C43      1.0000 0.17133  0.76047  0.85987  Biso   1.000  C
  C44      1.0000 0.23953  0.41087  0.85987  Biso   1.000  C
  C45      1.0000 0.42713  0.50467  0.47347  Biso   1.000  C
  C46      1.0000 0.58913  0.82867  0.85987  Biso   1.000  C
  C47      1.0000 0.49533  0.92247  0.47347  Biso   1.000  C
  C48      1.0000 0.07753  0.57287  0.47347  Biso   1.000  C
  C49      1.0000 0.50467  0.42713  0.52653  Biso   1.000  C
  C50      1.0000 0.57287  0.07753  0.52653  Biso   1.000  C
  C51      1.0000 0.76047  0.17133  0.14013  Biso   1.000  C
  C52      1.0000 0.92247  0.49533  0.52653  Biso   1.000  C
  C53      1.0000 0.82867  0.58913  0.14013  Biso   1.000  C
  C54      1.0000 0.41087  0.23953  0.14013  Biso   1.000  C
  H55      1.0000 0.84830  0.13350  0.19220  Biso   1.000  H
  H56      1.0000 0.86650  0.71480  0.19220  Biso   1.000  H
  H57      1.0000 0.13350  0.84830  0.80780  Biso   1.000  H
  H58      1.0000 0.28520  0.15170  0.19220  Biso   1.000  H
  H59      1.0000 0.15170  0.28520  0.80780  Biso   1.000  H
  H60      1.0000 0.71480  0.86650  0.80780  Biso   1.000  H
  H61      1.0000 0.18163  0.80017  0.85887  Biso   1.000  H
  H62      1.0000 0.19983  0.38147  0.85887  Biso   1.000  H
  H63      1.0000 0.46683  0.51497  0.47447  Biso   1.000  H
  H64      1.0000 0.61853  0.81837  0.85887  Biso   1.000  H
  H65      1.0000 0.48503  0.95187  0.47447  Biso   1.000  H
  H66      1.0000 0.04813  0.53317  0.47447  Biso   1.000  H
  H67      1.0000 0.51497  0.46683  0.52553  Biso   1.000  H
  H68      1.0000 0.53317  0.04813  0.52553  Biso   1.000  H
  H69      1.0000 0.80017  0.18163  0.14113  Biso   1.000  H
  H70      1.0000 0.95187  0.48503  0.52553  Biso   1.000  H
  H71      1.0000 0.81837  0.61853  0.14113  Biso   1.000  H
  H72      1.0000 0.38147  0.19983  0.14113  Biso   1.000  H
  H73      1.0000 0.86960  0.09060  0.18610  Biso   1.000  H
  H74      1.0000 0.90940  0.77900  0.18610  Biso   1.000  H
  H75      1.0000 0.09060  0.86960  0.81390  Biso   1.000  H
  H76      1.0000 0.22100  0.13040  0.18610  Biso   1.000  H
  H77      1.0000 0.13040  0.22100  0.81390  Biso   1.000  H
  H78      1.0000 0.77900  0.90940  0.81390  Biso   1.000  H
  H79      1.0000 0.20293  0.75727  0.85277  Biso   1.000  H
  H80      1.0000 0.24273  0.44567  0.85277  Biso   1.000  H
  H81      1.0000 0.42393  0.53627  0.48057  Biso   1.000  H
  H82      1.0000 0.55433  0.79707  0.85277  Biso   1.000  H
  H83      1.0000 0.46373  0.88767  0.48057  Biso   1.000  H
  H84      1.0000 0.11233  0.57607  0.48057  Biso   1.000  H
  H85      1.0000 0.53627  0.42393  0.51943  Biso   1.000  H
  H86      1.0000 0.57607  0.11233  0.51943  Biso   1.000  H
  H87      1.0000 0.75727  0.20293  0.14723  Biso   1.000  H
  H88      1.0000 0.88767  0.46373  0.51943  Biso   1.000  H
  H89      1.0000 0.79707  0.55433  0.14723  Biso   1.000  H
  H90      1.0000 0.44567  0.24273  0.14723  Biso   1.000  H
  C55      1.0000 0.73190  0.04550  0.23150  Biso   1.000  C
  C56      1.0000 0.95450  0.68640  0.23150  Biso   1.000  C
  C57      1.0000 0.04550  0.73190  0.76850  Biso   1.000  C
  C58      1.0000 0.31360  0.26810  0.23150  Biso   1.000  C
  C59      1.0000 0.26810  0.31360  0.76850  Biso   1.000  C
  C60      1.0000 0.68640  0.95450  0.76850  Biso   1.000  C
  C61      1.0000 0.06523  0.71217  0.89817  Biso   1.000  C
  C62      1.0000 0.28783  0.35307  0.89817  Biso   1.000  C
  C63      1.0000 0.37883  0.39857  0.43517  Biso   1.000  C
  C64      1.0000 0.64693  0.93477  0.89817  Biso   1.000  C
  C65      1.0000 0.60143  0.98027  0.43517  Biso   1.000  C
  C66      1.0000 0.01973  0.62117  0.43517  Biso   1.000  C
  C67      1.0000 0.39857  0.37883  0.56483  Biso   1.000  C
  C68      1.0000 0.62117  0.01973  0.56483  Biso   1.000  C
  C69      1.0000 0.71217  0.06523  0.10183  Biso   1.000  C
  C70      1.0000 0.98027  0.60143  0.56483  Biso   1.000  C
  C71      1.0000 0.93477  0.64693  0.10183  Biso   1.000  C
  C72      1.0000 0.35307  0.28783  0.10183  Biso   1.000  C
  H91      1.0000 0.72430  0.01570  0.21980  Biso   1.000  H
  H92      1.0000 0.98430  0.70860  0.21980  Biso   1.000  H
  H93      1.0000 0.01570  0.72430  0.78020  Biso   1.000  H
  H94      1.0000 0.29140  0.27570  0.21980  Biso   1.000  H
  H95      1.0000 0.27570  0.29140  0.78020  Biso   1.000  H
  H96      1.0000 0.70860  0.98430  0.78020  Biso   1.000  H
  H97      1.0000 0.05763  0.68237  0.88647  Biso   1.000  H
  H98      1.0000 0.31763  0.37527  0.88647  Biso   1.000  H
  H99      1.0000 0.34903  0.39097  0.44687  Biso   1.000  H
  H100     1.0000 0.62473  0.94237  0.88647  Biso   1.000  H
  H101     1.0000 0.60903  0.95807  0.44687  Biso   1.000  H
  H102     1.0000 0.04193  0.65097  0.44687  Biso   1.000  H
  H103     1.0000 0.39097  0.34903  0.55313  Biso   1.000  H
  H104     1.0000 0.65097  0.04193  0.55313  Biso   1.000  H
  H105     1.0000 0.68237  0.05763  0.11353  Biso   1.000  H
  H106     1.0000 0.95807  0.60903  0.55313  Biso   1.000  H
  H107     1.0000 0.94237  0.62473  0.11353  Biso   1.000  H
  H108     1.0000 0.37527  0.31763  0.11353  Biso   1.000  H
  C73      1.0000 0.68430  0.04640  0.24270  Biso   1.000  C
  C74      1.0000 0.95360  0.63790  0.24270  Biso   1.000  C
  C75      1.0000 0.04640  0.68430  0.75730  Biso   1.000  C
  C76      1.0000 0.36210  0.31570  0.24270  Biso   1.000  C
  C77      1.0000 0.31570  0.36210  0.75730  Biso   1.000  C
  C78      1.0000 0.63790  0.95360  0.75730  Biso   1.000  C
  C79      1.0000 0.01763  0.71307  0.90937  Biso   1.000  C
  C80      1.0000 0.28693  0.30457  0.90937  Biso   1.000  C
  C81      1.0000 0.37973  0.35097  0.42397  Biso   1.000  C
  C82      1.0000 0.69543  0.98237  0.90937  Biso   1.000  C
  C83      1.0000 0.64903  0.02877  0.42397  Biso   1.000  C
  C84      1.0000 0.97123  0.62027  0.42397  Biso   1.000  C
  C85      1.0000 0.35097  0.37973  0.57603  Biso   1.000  C
  C86      1.0000 0.62027  0.97123  0.57603  Biso   1.000  C
  C87      1.0000 0.71307  0.01763  0.09063  Biso   1.000  C
  C88      1.0000 0.02877  0.64903  0.57603  Biso   1.000  C
  C89      1.0000 0.98237  0.69543  0.09063  Biso   1.000  C
  C90      1.0000 0.30457  0.28693  0.09063  Biso   1.000  C
  C91      1.0000 0.68750  0.08820  0.26000  Biso   1.000  C
  C92      1.0000 0.91180  0.59930  0.26000  Biso   1.000  C
  C93      1.0000 0.08820  0.68750  0.74000  Biso   1.000  C
  C94      1.0000 0.40070  0.31250  0.26000  Biso   1.000  C
  C95      1.0000 0.31250  0.40070  0.74000  Biso   1.000  C
  C96      1.0000 0.59930  0.91180  0.74000  Biso   1.000  C
  C97      1.0000 0.02083  0.75487  0.92667  Biso   1.000  C
  C98      1.0000 0.24513  0.26597  0.92667  Biso   1.000  C
  C99      1.0000 0.42153  0.35417  0.40667  Biso   1.000  C
  C100     1.0000 0.73403  0.97917  0.92667  Biso   1.000  C
  C101     1.0000 0.64583  0.06737  0.40667  Biso   1.000  C
  C102     1.0000 0.93263  0.57847  0.40667  Biso   1.000  C
  C103     1.0000 0.35417  0.42153  0.59333  Biso   1.000  C
  C104     1.0000 0.57847  0.93263  0.59333  Biso   1.000  C
  C105     1.0000 0.75487  0.02083  0.07333  Biso   1.000  C
  C106     1.0000 0.06737  0.64583  0.59333  Biso   1.000  C
  C107     1.0000 0.97917  0.73403  0.07333  Biso   1.000  C
  C108     1.0000 0.26597  0.24513  0.07333  Biso   1.000  C
  C109     1.0000 0.63800  0.08370  0.27070  Biso   1.000  C
  C110     1.0000 0.91630  0.55430  0.27070  Biso   1.000  C
  C111     1.0000 0.08370  0.63800  0.72930  Biso   1.000  C
  C112     1.0000 0.44570  0.36200  0.27070  Biso   1.000  C
  C113     1.0000 0.36200  0.44570  0.72930  Biso   1.000  C
  C114     1.0000 0.55430  0.91630  0.72930  Biso   1.000  C
  C115     1.0000 0.97133  0.75037  0.93737  Biso   1.000  C
  C116     1.0000 0.24963  0.22097  0.93737  Biso   1.000  C
  C117     1.0000 0.41703  0.30467  0.39597  Biso   1.000  C
  C118     1.0000 0.77903  0.02867  0.93737  Biso   1.000  C
  C119     1.0000 0.69533  0.11237  0.39597  Biso   1.000  C
  C120     1.0000 0.88763  0.58297  0.39597  Biso   1.000  C
  C121     1.0000 0.30467  0.41703  0.60403  Biso   1.000  C
  C122     1.0000 0.58297  0.88763  0.60403  Biso   1.000  C
  C123     1.0000 0.75037  0.97133  0.06263  Biso   1.000  C
  C124     1.0000 0.11237  0.69533  0.60403  Biso   1.000  C
  C125     1.0000 0.02867  0.77903  0.06263  Biso   1.000  C
  C126     1.0000 0.22097  0.24963  0.06263  Biso   1.000  C
  C127     1.0000 0.58530  0.03730  0.26410  Biso   1.000  C
  C128     1.0000 0.96270  0.54800  0.26410  Biso   1.000  C
  C129     1.0000 0.03730  0.58530  0.73590  Biso   1.000  C
  C130     1.0000 0.45200  0.41470  0.26410  Biso   1.000  C
  C131     1.0000 0.41470  0.45200  0.73590  Biso   1.000  C
  C132     1.0000 0.54800  0.96270  0.73590  Biso   1.000  C
  C133     1.0000 0.91863  0.70397  0.93077  Biso   1.000  C
  C134     1.0000 0.29603  0.21467  0.93077  Biso   1.000  C
  C135     1.0000 0.37063  0.25197  0.40257  Biso   1.000  C
  C136     1.0000 0.78533  0.08137  0.93077  Biso   1.000  C
  C137     1.0000 0.74803  0.11867  0.40257  Biso   1.000  C
  C138     1.0000 0.88133  0.62937  0.40257  Biso   1.000  C
  C139     1.0000 0.25197  0.37063  0.59743  Biso   1.000  C
  C140     1.0000 0.62937  0.88133  0.59743  Biso   1.000  C
  C141     1.0000 0.70397  0.91863  0.06923  Biso   1.000  C
  C142     1.0000 0.11867  0.74803  0.59743  Biso   1.000  C
  C143     1.0000 0.08137  0.78533  0.06923  Biso   1.000  C
  C144     1.0000 0.21467  0.29603  0.06923  Biso   1.000  C
  H109     1.0000 0.55220  0.03430  0.27120  Biso   1.000  H
  H110     1.0000 0.96570  0.51790  0.27120  Biso   1.000  H
  H111     1.0000 0.03430  0.55220  0.72880  Biso   1.000  H
  H112     1.0000 0.48210  0.44780  0.27120  Biso   1.000  H
  H113     1.0000 0.44780  0.48210  0.72880  Biso   1.000  H
  H114     1.0000 0.51790  0.96570  0.72880  Biso   1.000  H
  H115     1.0000 0.88553  0.70097  0.93787  Biso   1.000  H
  H116     1.0000 0.29903  0.18457  0.93787  Biso   1.000  H
  H117     1.0000 0.36763  0.21887  0.39547  Biso   1.000  H
  H118     1.0000 0.81543  0.11447  0.93787  Biso   1.000  H
  H119     1.0000 0.78113  0.14877  0.39547  Biso   1.000  H
  H120     1.0000 0.85123  0.63237  0.39547  Biso   1.000  H
  H121     1.0000 0.21887  0.36763  0.60453  Biso   1.000  H
  H122     1.0000 0.63237  0.85123  0.60453  Biso   1.000  H
  H123     1.0000 0.70097  0.88553  0.06213  Biso   1.000  H
  H124     1.0000 0.14877  0.78113  0.60453  Biso   1.000  H
  H125     1.0000 0.11447  0.81543  0.06213  Biso   1.000  H
  H126     1.0000 0.18457  0.29903  0.06213  Biso   1.000  H
  C145     1.0000 0.58210  0.99550  0.24680  Biso   1.000  C
  C146     1.0000 0.00450  0.58660  0.24680  Biso   1.000  C
  C147     1.0000 0.99550  0.58210  0.75320  Biso   1.000  C
  C148     1.0000 0.41340  0.41790  0.24680  Biso   1.000  C
  C149     1.0000 0.41790  0.41340  0.75320  Biso   1.000  C
  C150     1.0000 0.58660  0.00450  0.75320  Biso   1.000  C
  C151     1.0000 0.91543  0.66217  0.91347  Biso   1.000  C
  C152     1.0000 0.33783  0.25327  0.91347  Biso   1.000  C
  C153     1.0000 0.32883  0.24877  0.41987  Biso   1.000  C
  C154     1.0000 0.74673  0.08457  0.91347  Biso   1.000  C
  C155     1.0000 0.75123  0.08007  0.41987  Biso   1.000  C
  C156     1.0000 0.91993  0.67117  0.41987  Biso   1.000  C
  C157     1.0000 0.24877  0.32883  0.58013  Biso   1.000  C
  C158     1.0000 0.67117  0.91993  0.58013  Biso   1.000  C
  C159     1.0000 0.66217  0.91543  0.08653  Biso   1.000  C
  C160     1.0000 0.08007  0.75123  0.58013  Biso   1.000  C
  C161     1.0000 0.08457  0.74673  0.08653  Biso   1.000  C
  C162     1.0000 0.25327  0.33783  0.08653  Biso   1.000  C
  C163     1.0000 0.63150  0.00000  0.23620  Biso   1.000  C
  C164     1.0000 0.00000  0.63150  0.23620  Biso   1.000  C
  C165     1.0000 0.00000  0.63150  0.76380  Biso   1.000  C
  C166     1.0000 0.36850  0.36850  0.23620  Biso   1.000  C
  C167     1.0000 0.36850  0.36850  0.76380  Biso   1.000  C
  C168     1.0000 0.63150  0.00000  0.76380  Biso   1.000  C
  C169     1.0000 0.96483  0.66667  0.90287  Biso   1.000  C
  C170     1.0000 0.33333  0.29817  0.90287  Biso   1.000  C
  C171     1.0000 0.33333  0.29817  0.43047  Biso   1.000  C
  C172     1.0000 0.70183  0.03517  0.90287  Biso   1.000  C
  C173     1.0000 0.70183  0.03517  0.43047  Biso   1.000  C
  C174     1.0000 0.96483  0.66667  0.43047  Biso   1.000  C
  C175     1.0000 0.29817  0.33333  0.56953  Biso   1.000  C
  C176     1.0000 0.66667  0.96483  0.56953  Biso   1.000  C
  C177     1.0000 0.66667  0.96483  0.09713  Biso   1.000  C
  C178     1.0000 0.03517  0.70183  0.56953  Biso   1.000  C
  C179     1.0000 0.03517  0.70183  0.09713  Biso   1.000  C
  C180     1.0000 0.29817  0.33333  0.09713  Biso   1.000  C
  H127     1.0000 0.62940  0.97200  0.22460  Biso   1.000  H
  H128     1.0000 0.02800  0.65740  0.22460  Biso   1.000  H
  H129     1.0000 0.97200  0.62940  0.77540  Biso   1.000  H
  H130     1.0000 0.34260  0.37060  0.22460  Biso   1.000  H
  H131     1.0000 0.37060  0.34260  0.77540  Biso   1.000  H
  H132     1.0000 0.65740  0.02800  0.77540  Biso   1.000  H
  H133     1.0000 0.96273  0.63867  0.89127  Biso   1.000  H
  H134     1.0000 0.36133  0.32407  0.89127  Biso   1.000  H
  H135     1.0000 0.30533  0.29607  0.44207  Biso   1.000  H
  H136     1.0000 0.67593  0.03727  0.89127  Biso   1.000  H
  H137     1.0000 0.70393  0.00927  0.44207  Biso   1.000  H
  H138     1.0000 0.99073  0.69467  0.44207  Biso   1.000  H
  H139     1.0000 0.29607  0.30533  0.55793  Biso   1.000  H
  H140     1.0000 0.69467  0.99073  0.55793  Biso   1.000  H
  H141     1.0000 0.63867  0.96273  0.10873  Biso   1.000  H
  H142     1.0000 0.00927  0.70393  0.55793  Biso   1.000  H
  H143     1.0000 0.03727  0.67593  0.10873  Biso   1.000  H
  H144     1.0000 0.32407  0.36133  0.10873  Biso   1.000  H
  C181     1.0000 0.54950  0.78690  0.40780  Biso   1.000  C
  C182     1.0000 0.21310  0.76260  0.40780  Biso   1.000  C
  C183     1.0000 0.78690  0.54950  0.59220  Biso   1.000  C
  C184     1.0000 0.23740  0.45050  0.40780  Biso   1.000  C
  C185     1.0000 0.45050  0.23740  0.59220  Biso   1.000  C
  C186     1.0000 0.76260  0.21310  0.59220  Biso   1.000  C
  C187     1.0000 0.88283  0.45357  0.07447  Biso   1.000  C
  C188     1.0000 0.54643  0.42927  0.07447  Biso   1.000  C
  C189     1.0000 0.12023  0.21617  0.25887  Biso   1.000  C
  C190     1.0000 0.57073  0.11717  0.07447  Biso   1.000  C
  C191     1.0000 0.78383  0.90407  0.25887  Biso   1.000  C
  C192     1.0000 0.09593  0.87977  0.25887  Biso   1.000  C
  C193     1.0000 0.21617  0.12023  0.74113  Biso   1.000  C
  C194     1.0000 0.87977  0.09593  0.74113  Biso   1.000  C
  C195     1.0000 0.45357  0.88283  0.92553  Biso   1.000  C
  C196     1.0000 0.90407  0.78383  0.74113  Biso   1.000  C
  C197     1.0000 0.11717  0.57073  0.92553  Biso   1.000  C
  C198     1.0000 0.42927  0.54643  0.92553  Biso   1.000  C
  C199     1.0000 0.56650  0.75010  0.39190  Biso   1.000  C
  C200     1.0000 0.24990  0.81640  0.39190  Biso   1.000  C
  C201     1.0000 0.75010  0.56650  0.60810  Biso   1.000  C
  C202     1.0000 0.18360  0.43350  0.39190  Biso   1.000  C
  C203     1.0000 0.43350  0.18360  0.60810  Biso   1.000  C
  C204     1.0000 0.81640  0.24990  0.60810  Biso   1.000  C
  C205     1.0000 0.89983  0.41677  0.05857  Biso   1.000  C
  C206     1.0000 0.58323  0.48307  0.05857  Biso   1.000  C
  C207     1.0000 0.08343  0.23317  0.27477  Biso   1.000  C
  C208     1.0000 0.51693  0.10017  0.05857  Biso   1.000  C
  C209     1.0000 0.76683  0.85027  0.27477  Biso   1.000  C
  C210     1.0000 0.14973  0.91657  0.27477  Biso   1.000  C
  C211     1.0000 0.23317  0.08343  0.72523  Biso   1.000  C
  C212     1.0000 0.91657  0.14973  0.72523  Biso   1.000  C
  C213     1.0000 0.41677  0.89983  0.94143  Biso   1.000  C
  C214     1.0000 0.85027  0.76683  0.72523  Biso   1.000  C
  C215     1.0000 0.10017  0.51693  0.94143  Biso   1.000  C
  C216     1.0000 0.48307  0.58323  0.94143  Biso   1.000  C
  H145     1.0000 0.57590  0.76480  0.37360  Biso   1.000  H
  H146     1.0000 0.23520  0.81110  0.37360  Biso   1.000  H
  H147     1.0000 0.76480  0.57590  0.62640  Biso   1.000  H
  H148     1.0000 0.18890  0.42410  0.37360  Biso   1.000  H
  H149     1.0000 0.42410  0.18890  0.62640  Biso   1.000  H
  H150     1.0000 0.81110  0.23520  0.62640  Biso   1.000  H
  H151     1.0000 0.90923  0.43147  0.04027  Biso   1.000  H
  H152     1.0000 0.56853  0.47777  0.04027  Biso   1.000  H
  H153     1.0000 0.09813  0.24257  0.29307  Biso   1.000  H
  H154     1.0000 0.52223  0.09077  0.04027  Biso   1.000  H
  H155     1.0000 0.75743  0.85557  0.29307  Biso   1.000  H
  H156     1.0000 0.14443  0.90187  0.29307  Biso   1.000  H
  H157     1.0000 0.24257  0.09813  0.70693  Biso   1.000  H
  H158     1.0000 0.90187  0.14443  0.70693  Biso   1.000  H
  H159     1.0000 0.43147  0.90923  0.95973  Biso   1.000  H
  H160     1.0000 0.85557  0.75743  0.70693  Biso   1.000  H
  H161     1.0000 0.09077  0.52223  0.95973  Biso   1.000  H
  H162     1.0000 0.47777  0.56853  0.95973  Biso   1.000  H
  C217     1.0000 0.51010  0.69280  0.39150  Biso   1.000  C
  C218     1.0000 0.30720  0.81730  0.39150  Biso   1.000  C
  C219     1.0000 0.69280  0.51010  0.60850  Biso   1.000  C
  C220     1.0000 0.18270  0.48990  0.39150  Biso   1.000  C
  C221     1.0000 0.48990  0.18270  0.60850  Biso   1.000  C
  C222     1.0000 0.81730  0.30720  0.60850  Biso   1.000  C
  C223     1.0000 0.84343  0.35947  0.05817  Biso   1.000  C
  C224     1.0000 0.64053  0.48397  0.05817  Biso   1.000  C
  C225     1.0000 0.02613  0.17677  0.27517  Biso   1.000  C
  C226     1.0000 0.51603  0.15657  0.05817  Biso   1.000  C
  C227     1.0000 0.82323  0.84937  0.27517  Biso   1.000  C
  C228     1.0000 0.15063  0.97387  0.27517  Biso   1.000  C
  C229     1.0000 0.17677  0.02613  0.72483  Biso   1.000  C
  C230     1.0000 0.97387  0.15063  0.72483  Biso   1.000  C
  C231     1.0000 0.35947  0.84343  0.94183  Biso   1.000  C
  C232     1.0000 0.84937  0.82323  0.72483  Biso   1.000  C
  C233     1.0000 0.15657  0.51603  0.94183  Biso   1.000  C
  C234     1.0000 0.48397  0.64053  0.94183  Biso   1.000  C
  H163     1.0000 0.49950  0.68100  0.41000  Biso   1.000  H
  H164     1.0000 0.31900  0.81850  0.41000  Biso   1.000  H
  H165     1.0000 0.68100  0.49950  0.59000  Biso   1.000  H
  H166     1.0000 0.18150  0.50050  0.41000  Biso   1.000  H
  H167     1.0000 0.50050  0.18150  0.59000  Biso   1.000  H
  H168     1.0000 0.81850  0.31900  0.59000  Biso   1.000  H
  H169     1.0000 0.83283  0.34767  0.07667  Biso   1.000  H
  H170     1.0000 0.65233  0.48517  0.07667  Biso   1.000  H
  H171     1.0000 0.01433  0.16617  0.25667  Biso   1.000  H
  H172     1.0000 0.51483  0.16717  0.07667  Biso   1.000  H
  H173     1.0000 0.83383  0.84817  0.25667  Biso   1.000  H
  H174     1.0000 0.15183  0.98567  0.25667  Biso   1.000  H
  H175     1.0000 0.16617  0.01433  0.74333  Biso   1.000  H
  H176     1.0000 0.98567  0.15183  0.74333  Biso   1.000  H
  H177     1.0000 0.34767  0.83283  0.92333  Biso   1.000  H
  H178     1.0000 0.84817  0.83383  0.74333  Biso   1.000  H
  H179     1.0000 0.16717  0.51483  0.92333  Biso   1.000  H
  H180     1.0000 0.48517  0.65233  0.92333  Biso   1.000  H
  H181     1.0000 0.48100  0.69980  0.38410  Biso   1.000  H
  H182     1.0000 0.30020  0.78120  0.38410  Biso   1.000  H
  H183     1.0000 0.69980  0.48100  0.61590  Biso   1.000  H
  H184     1.0000 0.21880  0.51900  0.38410  Biso   1.000  H
  H185     1.0000 0.51900  0.21880  0.61590  Biso   1.000  H
  H186     1.0000 0.78120  0.30020  0.61590  Biso   1.000  H
  H187     1.0000 0.81433  0.36647  0.05077  Biso   1.000  H
  H188     1.0000 0.63353  0.44787  0.05077  Biso   1.000  H
  H189     1.0000 0.03313  0.14767  0.28257  Biso   1.000  H
  H190     1.0000 0.55213  0.18567  0.05077  Biso   1.000  H
  H191     1.0000 0.85233  0.88547  0.28257  Biso   1.000  H
  H192     1.0000 0.11453  0.96687  0.28257  Biso   1.000  H
  H193     1.0000 0.14767  0.03313  0.71743  Biso   1.000  H
  H194     1.0000 0.96687  0.11453  0.71743  Biso   1.000  H
  H195     1.0000 0.36647  0.81433  0.94923  Biso   1.000  H
  H196     1.0000 0.88547  0.85233  0.71743  Biso   1.000  H
  H197     1.0000 0.18567  0.55213  0.94923  Biso   1.000  H
  H198     1.0000 0.44787  0.63353  0.94923  Biso   1.000  H
  C235     1.0000 0.63700  0.71830  0.39640  Biso   1.000  C
  C236     1.0000 0.28170  0.91870  0.39640  Biso   1.000  C
  C237     1.0000 0.71830  0.63700  0.60360  Biso   1.000  C
  C238     1.0000 0.08130  0.36300  0.39640  Biso   1.000  C
  C239     1.0000 0.36300  0.08130  0.60360  Biso   1.000  C
  C240     1.0000 0.91870  0.28170  0.60360  Biso   1.000  C
  C241     1.0000 0.97033  0.38497  0.06307  Biso   1.000  C
  C242     1.0000 0.61503  0.58537  0.06307  Biso   1.000  C
  C243     1.0000 0.05163  0.30367  0.27027  Biso   1.000  C
  C244     1.0000 0.41463  0.02967  0.06307  Biso   1.000  C
  C245     1.0000 0.69633  0.74797  0.27027  Biso   1.000  C
  C246     1.0000 0.25203  0.94837  0.27027  Biso   1.000  C
  C247     1.0000 0.30367  0.05163  0.72973  Biso   1.000  C
  C248     1.0000 0.94837  0.25203  0.72973  Biso   1.000  C
  C249     1.0000 0.38497  0.97033  0.93693  Biso   1.000  C
  C250     1.0000 0.74797  0.69633  0.72973  Biso   1.000  C
  C251     1.0000 0.02967  0.41463  0.93693  Biso   1.000  C
  C252     1.0000 0.58537  0.61503  0.93693  Biso   1.000  C
  H199     1.0000 0.61890  0.69350  0.38220  Biso   1.000  H
  H200     1.0000 0.30650  0.92540  0.38220  Biso   1.000  H
  H201     1.0000 0.69350  0.61890  0.61780  Biso   1.000  H
  H202     1.0000 0.07460  0.38110  0.38220  Biso   1.000  H
  H203     1.0000 0.38110  0.07460  0.61780  Biso   1.000  H
  H204     1.0000 0.92540  0.30650  0.61780  Biso   1.000  H
  H205     1.0000 0.95223  0.36017  0.04887  Biso   1.000  H
  H206     1.0000 0.63983  0.59207  0.04887  Biso   1.000  H
  H207     1.0000 0.02683  0.28557  0.28447  Biso   1.000  H
  H208     1.0000 0.40793  0.04777  0.04887  Biso   1.000  H
  H209     1.0000 0.71443  0.74127  0.28447  Biso   1.000  H
  H210     1.0000 0.25873  0.97317  0.28447  Biso   1.000  H
  H211     1.0000 0.28557  0.02683  0.71553  Biso   1.000  H
  H212     1.0000 0.97317  0.25873  0.71553  Biso   1.000  H
  H213     1.0000 0.36017  0.95223  0.95113  Biso   1.000  H
  H214     1.0000 0.74127  0.71443  0.71553  Biso   1.000  H
  H215     1.0000 0.04777  0.40793  0.95113  Biso   1.000  H
  H216     1.0000 0.59207  0.63983  0.95113  Biso   1.000  H
  C253     1.0000 0.68260  0.71780  0.40740  Biso   1.000  C
  C254     1.0000 0.28220  0.96480  0.40740  Biso   1.000  C
  C255     1.0000 0.71780  0.68260  0.59260  Biso   1.000  C
  C256     1.0000 0.03520  0.31740  0.40740  Biso   1.000  C
  C257     1.0000 0.31740  0.03520  0.59260  Biso   1.000  C
  C258     1.0000 0.96480  0.28220  0.59260  Biso   1.000  C
  C259     1.0000 0.01593  0.38447  0.07407  Biso   1.000  C
  C260     1.0000 0.61553  0.63147  0.07407  Biso   1.000  C
  C261     1.0000 0.05113  0.34927  0.25927  Biso   1.000  C
  C262     1.0000 0.36853  0.98407  0.07407  Biso   1.000  C
  C263     1.0000 0.65073  0.70187  0.25927  Biso   1.000  C
  C264     1.0000 0.29813  0.94887  0.25927  Biso   1.000  C
  C265     1.0000 0.34927  0.05113  0.74073  Biso   1.000  C
  C266     1.0000 0.94887  0.29813  0.74073  Biso   1.000  C
  C267     1.0000 0.38447  0.01593  0.92593  Biso   1.000  C
  C268     1.0000 0.70187  0.65073  0.74073  Biso   1.000  C
  C269     1.0000 0.98407  0.36853  0.92593  Biso   1.000  C
  C270     1.0000 0.63147  0.61553  0.92593  Biso   1.000  C
  C271     1.0000 0.72110  0.75640  0.42580  Biso   1.000  C
  C272     1.0000 0.24360  0.96470  0.42580  Biso   1.000  C
  C273     1.0000 0.75640  0.72110  0.57420  Biso   1.000  C
  C274     1.0000 0.03530  0.27890  0.42580  Biso   1.000  C
  C275     1.0000 0.27890  0.03530  0.57420  Biso   1.000  C
  C276     1.0000 0.96470  0.24360  0.57420  Biso   1.000  C
  C277     1.0000 0.05443  0.42307  0.09247  Biso   1.000  C
  C278     1.0000 0.57693  0.63137  0.09247  Biso   1.000  C
  C279     1.0000 0.08973  0.38777  0.24087  Biso   1.000  C
  C280     1.0000 0.36863  0.94557  0.09247  Biso   1.000  C
  C281     1.0000 0.61223  0.70197  0.24087  Biso   1.000  C
  C282     1.0000 0.29803  0.91027  0.24087  Biso   1.000  C
  C283     1.0000 0.38777  0.08973  0.75913  Biso   1.000  C
  C284     1.0000 0.91027  0.29803  0.75913  Biso   1.000  C
  C285     1.0000 0.42307  0.05443  0.90753  Biso   1.000  C
  C286     1.0000 0.70197  0.61223  0.75913  Biso   1.000  C
  C287     1.0000 0.94557  0.36863  0.90753  Biso   1.000  C
  C288     1.0000 0.63137  0.57693  0.90753  Biso   1.000  C
  C289     1.0000 0.76280  0.74710  0.43700  Biso   1.000  C
  C290     1.0000 0.25290  0.01570  0.43700  Biso   1.000  C
  C291     1.0000 0.74710  0.76280  0.56300  Biso   1.000  C
  C292     1.0000 0.98430  0.23720  0.43700  Biso   1.000  C
  C293     1.0000 0.23720  0.98430  0.56300  Biso   1.000  C
  C294     1.0000 0.01570  0.25290  0.56300  Biso   1.000  C
  C295     1.0000 0.09613  0.41377  0.10367  Biso   1.000  C
  C296     1.0000 0.58623  0.68237  0.10367  Biso   1.000  C
  C297     1.0000 0.08043  0.42947  0.22967  Biso   1.000  C
  C298     1.0000 0.31763  0.90387  0.10367  Biso   1.000  C
  C299     1.0000 0.57053  0.65097  0.22967  Biso   1.000  C
  C300     1.0000 0.34903  0.91957  0.22967  Biso   1.000  C
  C301     1.0000 0.42947  0.08043  0.77033  Biso   1.000  C
  C302     1.0000 0.91957  0.34903  0.77033  Biso   1.000  C
  C303     1.0000 0.41377  0.09613  0.89633  Biso   1.000  C
  C304     1.0000 0.65097  0.57053  0.77033  Biso   1.000  C
  C305     1.0000 0.90387  0.31763  0.89633  Biso   1.000  C
  C306     1.0000 0.68237  0.58623  0.89633  Biso   1.000  C
  C307     1.0000 0.76590  0.69920  0.42980  Biso   1.000  C
  C308     1.0000 0.30080  0.06670  0.42980  Biso   1.000  C
  C309     1.0000 0.69920  0.76590  0.57020  Biso   1.000  C
  C310     1.0000 0.93330  0.23410  0.42980  Biso   1.000  C
  C311     1.0000 0.23410  0.93330  0.57020  Biso   1.000  C
  C312     1.0000 0.06670  0.30080  0.57020  Biso   1.000  C
  C313     1.0000 0.09923  0.36587  0.09647  Biso   1.000  C
  C314     1.0000 0.63413  0.73337  0.09647  Biso   1.000  C
  C315     1.0000 0.03253  0.43257  0.23687  Biso   1.000  C
  C316     1.0000 0.26663  0.90077  0.09647  Biso   1.000  C
  C317     1.0000 0.56743  0.59997  0.23687  Biso   1.000  C
  C318     1.0000 0.40003  0.96747  0.23687  Biso   1.000  C
  C319     1.0000 0.43257  0.03253  0.76313  Biso   1.000  C
  C320     1.0000 0.96747  0.40003  0.76313  Biso   1.000  C
  C321     1.0000 0.36587  0.09923  0.90353  Biso   1.000  C
  C322     1.0000 0.59997  0.56743  0.76313  Biso   1.000  C
  C323     1.0000 0.90077  0.26663  0.90353  Biso   1.000  C
  C324     1.0000 0.73337  0.63413  0.90353  Biso   1.000  C
  H217     1.0000 0.79370  0.69290  0.43720  Biso   1.000  H
  H218     1.0000 0.30710  0.10080  0.43720  Biso   1.000  H
  H219     1.0000 0.69290  0.79370  0.56280  Biso   1.000  H
  H220     1.0000 0.89920  0.20630  0.43720  Biso   1.000  H
  H221     1.0000 0.20630  0.89920  0.56280  Biso   1.000  H
  H222     1.0000 0.10080  0.30710  0.56280  Biso   1.000  H
  H223     1.0000 0.12703  0.35957  0.10387  Biso   1.000  H
  H224     1.0000 0.64043  0.76747  0.10387  Biso   1.000  H
  H225     1.0000 0.02623  0.46037  0.22947  Biso   1.000  H
  H226     1.0000 0.23253  0.87297  0.10387  Biso   1.000  H
  H227     1.0000 0.53963  0.56587  0.22947  Biso   1.000  H
  H228     1.0000 0.43413  0.97377  0.22947  Biso   1.000  H
  H229     1.0000 0.46037  0.02623  0.77053  Biso   1.000  H
  H230     1.0000 0.97377  0.43413  0.77053  Biso   1.000  H
  H231     1.0000 0.35957  0.12703  0.89613  Biso   1.000  H
  H232     1.0000 0.56587  0.53963  0.77053  Biso   1.000  H
  H233     1.0000 0.87297  0.23253  0.89613  Biso   1.000  H
  H234     1.0000 0.76747  0.64043  0.89613  Biso   1.000  H
  C325     1.0000 0.72720  0.66050  0.41140  Biso   1.000  C
  C326     1.0000 0.33950  0.06670  0.41140  Biso   1.000  C
  C327     1.0000 0.66050  0.72720  0.58860  Biso   1.000  C
  C328     1.0000 0.93330  0.27280  0.41140  Biso   1.000  C
  C329     1.0000 0.27280  0.93330  0.58860  Biso   1.000  C
  C330     1.0000 0.06670  0.33950  0.58860  Biso   1.000  C
  C331     1.0000 0.06053  0.32717  0.07807  Biso   1.000  C
  C332     1.0000 0.67283  0.73337  0.07807  Biso   1.000  C
  C333     1.0000 0.99383  0.39387  0.25527  Biso   1.000  C
  C334     1.0000 0.26663  0.93947  0.07807  Biso   1.000  C
  C335     1.0000 0.60613  0.59997  0.25527  Biso   1.000  C
  C336     1.0000 0.40003  0.00617  0.25527  Biso   1.000  C
  C337     1.0000 0.39387  0.99383  0.74473  Biso   1.000  C
  C338     1.0000 0.00617  0.40003  0.74473  Biso   1.000  C
  C339     1.0000 0.32717  0.06053  0.92193  Biso   1.000  C
  C340     1.0000 0.59997  0.60613  0.74473  Biso   1.000  C
  C341     1.0000 0.93947  0.26663  0.92193  Biso   1.000  C
  C342     1.0000 0.73337  0.67283  0.92193  Biso   1.000  C
  C343     1.0000 0.68560  0.66980  0.40020  Biso   1.000  C
  C344     1.0000 0.33020  0.01580  0.40020  Biso   1.000  C
  C345     1.0000 0.66980  0.68560  0.59980  Biso   1.000  C
  C346     1.0000 0.98420  0.31440  0.40020  Biso   1.000  C
  C347     1.0000 0.31440  0.98420  0.59980  Biso   1.000  C
  C348     1.0000 0.01580  0.33020  0.59980  Biso   1.000  C
  C349     1.0000 0.01893  0.33647  0.06687  Biso   1.000  C
  C350     1.0000 0.66353  0.68247  0.06687  Biso   1.000  C
  C351     1.0000 0.00313  0.35227  0.26647  Biso   1.000  C
  C352     1.0000 0.31753  0.98107  0.06687  Biso   1.000  C
  C353     1.0000 0.64773  0.65087  0.26647  Biso   1.000  C
  C354     1.0000 0.34913  0.99687  0.26647  Biso   1.000  C
  C355     1.0000 0.35227  0.00313  0.73353  Biso   1.000  C
  C356     1.0000 0.99687  0.34913  0.73353  Biso   1.000  C
  C357     1.0000 0.33647  0.01893  0.93313  Biso   1.000  C
  C358     1.0000 0.65087  0.64773  0.73353  Biso   1.000  C
  C359     1.0000 0.98107  0.31753  0.93313  Biso   1.000  C
  C360     1.0000 0.68247  0.66353  0.93313  Biso   1.000  C
  H235     1.0000 0.65980  0.64400  0.38790  Biso   1.000  H
  H236     1.0000 0.35600  0.01580  0.38790  Biso   1.000  H
  H237     1.0000 0.64400  0.65980  0.61210  Biso   1.000  H
  H238     1.0000 0.98420  0.34020  0.38790  Biso   1.000  H
  H239     1.0000 0.34020  0.98420  0.61210  Biso   1.000  H
  H240     1.0000 0.01580  0.35600  0.61210  Biso   1.000  H
  H241     1.0000 0.99313  0.31067  0.05457  Biso   1.000  H
  H242     1.0000 0.68933  0.68247  0.05457  Biso   1.000  H
  H243     1.0000 0.97733  0.32647  0.27877  Biso   1.000  H
  H244     1.0000 0.31753  0.00687  0.05457  Biso   1.000  H
  H245     1.0000 0.67353  0.65087  0.27877  Biso   1.000  H
  H246     1.0000 0.34913  0.02267  0.27877  Biso   1.000  H
  H247     1.0000 0.32647  0.97733  0.72123  Biso   1.000  H
  H248     1.0000 0.02267  0.34913  0.72123  Biso   1.000  H
  H249     1.0000 0.31067  0.99313  0.94543  Biso   1.000  H
  H250     1.0000 0.65087  0.67353  0.72123  Biso   1.000  H
  H251     1.0000 0.00687  0.31753  0.94543  Biso   1.000  H
  H252     1.0000 0.68247  0.68933  0.94543  Biso   1.000  H
  C361     1.0000 0.80000  0.04300  0.29750  Biso   1.000  C
  C362     1.0000 0.95700  0.75700  0.29750  Biso   1.000  C
  C363     1.0000 0.04300  0.80000  0.70250  Biso   1.000  C
  C364     1.0000 0.24300  0.20000  0.29750  Biso   1.000  C
  C365     1.0000 0.20000  0.24300  0.70250  Biso   1.000  C
  C366     1.0000 0.75700  0.95700  0.70250  Biso   1.000  C
  C367     1.0000 0.13333  0.70967  0.96417  Biso   1.000  C
  C368     1.0000 0.29033  0.42367  0.96417  Biso   1.000  C
  C369     1.0000 0.37633  0.46667  0.36917  Biso   1.000  C
  C370     1.0000 0.57633  0.86667  0.96417  Biso   1.000  C
  C371     1.0000 0.53333  0.90967  0.36917  Biso   1.000  C
  C372     1.0000 0.09033  0.62367  0.36917  Biso   1.000  C
  C373     1.0000 0.46667  0.37633  0.63083  Biso   1.000  C
  C374     1.0000 0.62367  0.09033  0.63083  Biso   1.000  C
  C375     1.0000 0.70967  0.13333  0.03583  Biso   1.000  C
  C376     1.0000 0.90967  0.53333  0.63083  Biso   1.000  C
  C377     1.0000 0.86667  0.57633  0.03583  Biso   1.000  C
  C378     1.0000 0.42367  0.29033  0.03583  Biso   1.000  C
  H253     1.0000 0.82080  0.04000  0.28340  Biso   1.000  H
  H254     1.0000 0.96000  0.78080  0.28340  Biso   1.000  H
  H255     1.0000 0.04000  0.82080  0.71660  Biso   1.000  H
  H256     1.0000 0.21920  0.17920  0.28340  Biso   1.000  H
  H257     1.0000 0.17920  0.21920  0.71660  Biso   1.000  H
  H258     1.0000 0.78080  0.96000  0.71660  Biso   1.000  H
  H259     1.0000 0.15413  0.70667  0.95007  Biso   1.000  H
  H260     1.0000 0.29333  0.44747  0.95007  Biso   1.000  H
  H261     1.0000 0.37333  0.48747  0.38327  Biso   1.000  H
  H262     1.0000 0.55253  0.84587  0.95007  Biso   1.000  H
  H263     1.0000 0.51253  0.88587  0.38327  Biso   1.000  H
  H264     1.0000 0.11413  0.62667  0.38327  Biso   1.000  H
  H265     1.0000 0.48747  0.37333  0.61673  Biso   1.000  H
  H266     1.0000 0.62667  0.11413  0.61673  Biso   1.000  H
  H267     1.0000 0.70667  0.15413  0.04993  Biso   1.000  H
  H268     1.0000 0.88587  0.51253  0.61673  Biso   1.000  H
  H269     1.0000 0.84587  0.55253  0.04993  Biso   1.000  H
  H270     1.0000 0.44747  0.29333  0.04993  Biso   1.000  H
  C379     1.0000 0.78250  0.00240  0.31830  Biso   1.000  C
  C380     1.0000 0.99760  0.78010  0.31830  Biso   1.000  C
  C381     1.0000 0.00240  0.78250  0.68170  Biso   1.000  C
  C382     1.0000 0.21990  0.21750  0.31830  Biso   1.000  C
  C383     1.0000 0.21750  0.21990  0.68170  Biso   1.000  C
  C384     1.0000 0.78010  0.99760  0.68170  Biso   1.000  C
  C385     1.0000 0.11583  0.66907  0.98497  Biso   1.000  C
  C386     1.0000 0.33093  0.44677  0.98497  Biso   1.000  C
  C387     1.0000 0.33573  0.44917  0.34837  Biso   1.000  C
  C388     1.0000 0.55323  0.88417  0.98497  Biso   1.000  C
  C389     1.0000 0.55083  0.88657  0.34837  Biso   1.000  C
  C390     1.0000 0.11343  0.66427  0.34837  Biso   1.000  C
  C391     1.0000 0.44917  0.33573  0.65163  Biso   1.000  C
  C392     1.0000 0.66427  0.11343  0.65163  Biso   1.000  C
  C393     1.0000 0.66907  0.11583  0.01503  Biso   1.000  C
  C394     1.0000 0.88657  0.55083  0.65163  Biso   1.000  C
  C395     1.0000 0.88417  0.55323  0.01503  Biso   1.000  C
  C396     1.0000 0.44677  0.33093  0.01503  Biso   1.000  C
  H271     1.0000 0.79190  0.97380  0.31750  Biso   1.000  H
  H272     1.0000 0.02620  0.81810  0.31750  Biso   1.000  H
  H273     1.0000 0.97380  0.79190  0.68250  Biso   1.000  H
  H274     1.0000 0.18190  0.20810  0.31750  Biso   1.000  H
  H275     1.0000 0.20810  0.18190  0.68250  Biso   1.000  H
  H276     1.0000 0.81810  0.02620  0.68250  Biso   1.000  H
  H277     1.0000 0.12523  0.64047  0.98417  Biso   1.000  H
  H278     1.0000 0.35953  0.48477  0.98417  Biso   1.000  H
  H279     1.0000 0.30713  0.45857  0.34917  Biso   1.000  H
  H280     1.0000 0.51523  0.87477  0.98417  Biso   1.000  H
  H281     1.0000 0.54143  0.84857  0.34917  Biso   1.000  H
  H282     1.0000 0.15143  0.69287  0.34917  Biso   1.000  H
  H283     1.0000 0.45857  0.30713  0.65083  Biso   1.000  H
  H284     1.0000 0.69287  0.15143  0.65083  Biso   1.000  H
  H285     1.0000 0.64047  0.12523  0.01583  Biso   1.000  H
  H286     1.0000 0.84857  0.54143  0.65083  Biso   1.000  H
  H287     1.0000 0.87477  0.51523  0.01583  Biso   1.000  H
  H288     1.0000 0.48477  0.35953  0.01583  Biso   1.000  H
  C397     1.0000 0.75240  0.00450  0.33910  Biso   1.000  C
  C398     1.0000 0.99550  0.74790  0.33910  Biso   1.000  C
  C399     1.0000 0.00450  0.75240  0.66090  Biso   1.000  C
  C400     1.0000 0.25210  0.24760  0.33910  Biso   1.000  C
  C401     1.0000 0.24760  0.25210  0.66090  Biso   1.000  C
  C402     1.0000 0.74790  0.99550  0.66090  Biso   1.000  C
  C403     1.0000 0.08573  0.67117  0.00577  Biso   1.000  C
  C404     1.0000 0.32883  0.41457  0.00577  Biso   1.000  C
  C405     1.0000 0.33783  0.41907  0.32757  Biso   1.000  C
  C406     1.0000 0.58543  0.91427  0.00577  Biso   1.000  C
  C407     1.0000 0.58093  0.91877  0.32757  Biso   1.000  C
  C408     1.0000 0.08123  0.66217  0.32757  Biso   1.000  C
  C409     1.0000 0.41907  0.33783  0.67243  Biso   1.000  C
  C410     1.0000 0.66217  0.08123  0.67243  Biso   1.000  C
  C411     1.0000 0.67117  0.08573  0.99423  Biso   1.000  C
  C412     1.0000 0.91877  0.58093  0.67243  Biso   1.000  C
  C413     1.0000 0.91427  0.58543  0.99423  Biso   1.000  C
  C414     1.0000 0.41457  0.32883  0.99423  Biso   1.000  C
  C415     1.0000 0.74100  0.04860  0.33960  Biso   1.000  C
  C416     1.0000 0.95140  0.69240  0.33960  Biso   1.000  C
  C417     1.0000 0.04860  0.74100  0.66040  Biso   1.000  C
  C418     1.0000 0.30760  0.25900  0.33960  Biso   1.000  C
  C419     1.0000 0.25900  0.30760  0.66040  Biso   1.000  C
  C420     1.0000 0.69240  0.95140  0.66040  Biso   1.000  C
  C421     1.0000 0.07433  0.71527  0.00627  Biso   1.000  C
  C422     1.0000 0.28473  0.35907  0.00627  Biso   1.000  C
  C423     1.0000 0.38193  0.40767  0.32707  Biso   1.000  C
  C424     1.0000 0.64093  0.92567  0.00627  Biso   1.000  C
  C425     1.0000 0.59233  0.97427  0.32707  Biso   1.000  C
  C426     1.0000 0.02573  0.61807  0.32707  Biso   1.000  C
  C427     1.0000 0.40767  0.38193  0.67293  Biso   1.000  C
  C428     1.0000 0.61807  0.02573  0.67293  Biso   1.000  C
  C429     1.0000 0.71527  0.07433  0.99373  Biso   1.000  C
  C430     1.0000 0.97427  0.59233  0.67293  Biso   1.000  C
  C431     1.0000 0.92567  0.64093  0.99373  Biso   1.000  C
  C432     1.0000 0.35907  0.28473  0.99373  Biso   1.000  C
  H289     1.0000 0.72190  0.05350  0.35390  Biso   1.000  H
  H290     1.0000 0.94650  0.66840  0.35390  Biso   1.000  H
  H291     1.0000 0.05350  0.72190  0.64610  Biso   1.000  H
  H292     1.0000 0.33160  0.27810  0.35390  Biso   1.000  H
  H293     1.0000 0.27810  0.33160  0.64610  Biso   1.000  H
  H294     1.0000 0.66840  0.94650  0.64610  Biso   1.000  H
  H295     1.0000 0.05523  0.72017  0.02057  Biso   1.000  H
  H296     1.0000 0.27983  0.33507  0.02057  Biso   1.000  H
  H297     1.0000 0.38683  0.38857  0.31277  Biso   1.000  H
  H298     1.0000 0.66493  0.94477  0.02057  Biso   1.000  H
  H299     1.0000 0.61143  0.99827  0.31277  Biso   1.000  H
  H300     1.0000 0.00173  0.61317  0.31277  Biso   1.000  H
  H301     1.0000 0.38857  0.38683  0.68723  Biso   1.000  H
  H302     1.0000 0.61317  0.00173  0.68723  Biso   1.000  H
  H303     1.0000 0.72017  0.05523  0.97943  Biso   1.000  H
  H304     1.0000 0.99827  0.61143  0.68723  Biso   1.000  H
  H305     1.0000 0.94477  0.66493  0.97943  Biso   1.000  H
  H306     1.0000 0.33507  0.27983  0.97943  Biso   1.000  H
  C433     1.0000 0.75910  0.08500  0.31810  Biso   1.000  C
  C434     1.0000 0.91500  0.67410  0.31810  Biso   1.000  C
  C435     1.0000 0.08500  0.75910  0.68190  Biso   1.000  C
  C436     1.0000 0.32590  0.24090  0.31810  Biso   1.000  C
  C437     1.0000 0.24090  0.32590  0.68190  Biso   1.000  C
  C438     1.0000 0.67410  0.91500  0.68190  Biso   1.000  C
  C439     1.0000 0.09243  0.75167  0.98477  Biso   1.000  C
  C440     1.0000 0.24833  0.34077  0.98477  Biso   1.000  C
  C441     1.0000 0.41833  0.42577  0.34857  Biso   1.000  C
  C442     1.0000 0.65923  0.90757  0.98477  Biso   1.000  C
  C443     1.0000 0.57423  0.99257  0.34857  Biso   1.000  C
  C444     1.0000 0.00743  0.58167  0.34857  Biso   1.000  C
  C445     1.0000 0.42577  0.41833  0.65143  Biso   1.000  C
  C446     1.0000 0.58167  0.00743  0.65143  Biso   1.000  C
  C447     1.0000 0.75167  0.09243  0.01523  Biso   1.000  C
  C448     1.0000 0.99257  0.57423  0.65143  Biso   1.000  C
  C449     1.0000 0.90757  0.65923  0.01523  Biso   1.000  C
  C450     1.0000 0.34077  0.24833  0.01523  Biso   1.000  C
  H307     1.0000 0.74950  0.11350  0.31820  Biso   1.000  H
  H308     1.0000 0.88650  0.63600  0.31820  Biso   1.000  H
  H309     1.0000 0.11350  0.74950  0.68180  Biso   1.000  H
  H310     1.0000 0.36400  0.25050  0.31820  Biso   1.000  H
  H311     1.0000 0.25050  0.36400  0.68180  Biso   1.000  H
  H312     1.0000 0.63600  0.88650  0.68180  Biso   1.000  H
  H313     1.0000 0.08283  0.78017  0.98487  Biso   1.000  H
  H314     1.0000 0.21983  0.30267  0.98487  Biso   1.000  H
  H315     1.0000 0.44683  0.41617  0.34847  Biso   1.000  H
  H316     1.0000 0.69733  0.91717  0.98487  Biso   1.000  H
  H317     1.0000 0.58383  0.03067  0.34847  Biso   1.000  H
  H318     1.0000 0.96933  0.55317  0.34847  Biso   1.000  H
  H319     1.0000 0.41617  0.44683  0.65153  Biso   1.000  H
  H320     1.0000 0.55317  0.96933  0.65153  Biso   1.000  H
  H321     1.0000 0.78017  0.08283  0.01513  Biso   1.000  H
  H322     1.0000 0.03067  0.58383  0.65153  Biso   1.000  H
  H323     1.0000 0.91717  0.69733  0.01513  Biso   1.000  H
  H324     1.0000 0.30267  0.21983  0.01513  Biso   1.000  H
  C451     1.0000 0.66620  0.91170  0.39730  Biso   1.000  C
  C452     1.0000 0.08830  0.75450  0.39730  Biso   1.000  C
  C453     1.0000 0.91170  0.66620  0.60270  Biso   1.000  C
  C454     1.0000 0.24550  0.33380  0.39730  Biso   1.000  C
  C455     1.0000 0.33380  0.24550  0.60270  Biso   1.000  C
  C456     1.0000 0.75450  0.08830  0.60270  Biso   1.000  C
  C457     1.0000 0.99953  0.57837  0.06397  Biso   1.000  C
  C458     1.0000 0.42163  0.42117  0.06397  Biso   1.000  C
  C459     1.0000 0.24503  0.33287  0.26937  Biso   1.000  C
  C460     1.0000 0.57883  0.00047  0.06397  Biso   1.000  C
  C461     1.0000 0.66713  0.91217  0.26937  Biso   1.000  C
  C462     1.0000 0.08783  0.75497  0.26937  Biso   1.000  C
  C463     1.0000 0.33287  0.24503  0.73063  Biso   1.000  C
  C464     1.0000 0.75497  0.08783  0.73063  Biso   1.000  C
  C465     1.0000 0.57837  0.99953  0.93603  Biso   1.000  C
  C466     1.0000 0.91217  0.66713  0.73063  Biso   1.000  C
  C467     1.0000 0.00047  0.57883  0.93603  Biso   1.000  C
  C468     1.0000 0.42117  0.42163  0.93603  Biso   1.000  C
  H325     1.0000 0.63480  0.90570  0.40750  Biso   1.000  H
  H326     1.0000 0.09430  0.72910  0.40750  Biso   1.000  H
  H327     1.0000 0.90570  0.63480  0.59250  Biso   1.000  H
  H328     1.0000 0.27090  0.36520  0.40750  Biso   1.000  H
  H329     1.0000 0.36520  0.27090  0.59250  Biso   1.000  H
  H330     1.0000 0.72910  0.09430  0.59250  Biso   1.000  H
  H331     1.0000 0.96813  0.57237  0.07417  Biso   1.000  H
  H332     1.0000 0.42763  0.39577  0.07417  Biso   1.000  H
  H333     1.0000 0.23903  0.30147  0.25917  Biso   1.000  H
  H334     1.0000 0.60423  0.03187  0.07417  Biso   1.000  H
  H335     1.0000 0.69853  0.93757  0.25917  Biso   1.000  H
  H336     1.0000 0.06243  0.76097  0.25917  Biso   1.000  H
  H337     1.0000 0.30147  0.23903  0.74083  Biso   1.000  H
  H338     1.0000 0.76097  0.06243  0.74083  Biso   1.000  H
  H339     1.0000 0.57237  0.96813  0.92583  Biso   1.000  H
  H340     1.0000 0.93757  0.69853  0.74083  Biso   1.000  H
  H341     1.0000 0.03187  0.60423  0.92583  Biso   1.000  H
  H342     1.0000 0.39577  0.42763  0.92583  Biso   1.000  H
  C469     1.0000 0.68830  0.95710  0.37880  Biso   1.000  C
  C470     1.0000 0.04290  0.73120  0.37880  Biso   1.000  C
  C471     1.0000 0.95710  0.68830  0.62120  Biso   1.000  C
  C472     1.0000 0.26880  0.31170  0.37880  Biso   1.000  C
  C473     1.0000 0.31170  0.26880  0.62120  Biso   1.000  C
  C474     1.0000 0.73120  0.04290  0.62120  Biso   1.000  C
  C475     1.0000 0.02163  0.62377  0.04547  Biso   1.000  C
  C476     1.0000 0.37623  0.39787  0.04547  Biso   1.000  C
  C477     1.0000 0.29043  0.35497  0.28787  Biso   1.000  C
  C478     1.0000 0.60213  0.97837  0.04547  Biso   1.000  C
  C479     1.0000 0.64503  0.93547  0.28787  Biso   1.000  C
  C480     1.0000 0.06453  0.70957  0.28787  Biso   1.000  C
  C481     1.0000 0.35497  0.29043  0.71213  Biso   1.000  C
  C482     1.0000 0.70957  0.06453  0.71213  Biso   1.000  C
  C483     1.0000 0.62377  0.02163  0.95453  Biso   1.000  C
  C484     1.0000 0.93547  0.64503  0.71213  Biso   1.000  C
  C485     1.0000 0.97837  0.60213  0.95453  Biso   1.000  C
  C486     1.0000 0.39787  0.37623  0.95453  Biso   1.000  C
  H343     1.0000 0.67560  0.98320  0.37820  Biso   1.000  H
  H344     1.0000 0.01680  0.69240  0.37820  Biso   1.000  H
  H345     1.0000 0.98320  0.67560  0.62180  Biso   1.000  H
  H346     1.0000 0.30760  0.32440  0.37820  Biso   1.000  H
  H347     1.0000 0.32440  0.30760  0.62180  Biso   1.000  H
  H348     1.0000 0.69240  0.01680  0.62180  Biso   1.000  H
  H349     1.0000 0.00893  0.64987  0.04487  Biso   1.000  H
  H350     1.0000 0.35013  0.35907  0.04487  Biso   1.000  H
  H351     1.0000 0.31653  0.34227  0.28847  Biso   1.000  H
  H352     1.0000 0.64093  0.99107  0.04487  Biso   1.000  H
  H353     1.0000 0.65773  0.97427  0.28847  Biso   1.000  H
  H354     1.0000 0.02573  0.68347  0.28847  Biso   1.000  H
  H355     1.0000 0.34227  0.31653  0.71153  Biso   1.000  H
  H356     1.0000 0.68347  0.02573  0.71153  Biso   1.000  H
  H357     1.0000 0.64987  0.00893  0.95513  Biso   1.000  H
  H358     1.0000 0.97427  0.65773  0.71153  Biso   1.000  H
  H359     1.0000 0.99107  0.64093  0.95513  Biso   1.000  H
  H360     1.0000 0.35907  0.35013  0.95513  Biso   1.000  H
  C487     1.0000 0.73000  0.96070  0.36160  Biso   1.000  C
  C488     1.0000 0.03930  0.76930  0.36160  Biso   1.000  C
  C489     1.0000 0.96070  0.73000  0.63840  Biso   1.000  C
  C490     1.0000 0.23070  0.27000  0.36160  Biso   1.000  C
  C491     1.0000 0.27000  0.23070  0.63840  Biso   1.000  C
  C492     1.0000 0.76930  0.03930  0.63840  Biso   1.000  C
  C493     1.0000 0.06333  0.62737  0.02827  Biso   1.000  C
  C494     1.0000 0.37263  0.43597  0.02827  Biso   1.000  C
  C495     1.0000 0.29403  0.39667  0.30507  Biso   1.000  C
  C496     1.0000 0.56403  0.93667  0.02827  Biso   1.000  C
  C497     1.0000 0.60333  0.89737  0.30507  Biso   1.000  C
  C498     1.0000 0.10263  0.70597  0.30507  Biso   1.000  C
  C499     1.0000 0.39667  0.29403  0.69493  Biso   1.000  C
  C500     1.0000 0.70597  0.10263  0.69493  Biso   1.000  C
  C501     1.0000 0.62737  0.06333  0.97173  Biso   1.000  C
  C502     1.0000 0.89737  0.60333  0.69493  Biso   1.000  C
  C503     1.0000 0.93667  0.56403  0.97173  Biso   1.000  C
  C504     1.0000 0.43597  0.37263  0.97173  Biso   1.000  C
  C505     1.0000 0.75310  0.92490  0.36480  Biso   1.000  C
  C506     1.0000 0.07510  0.82820  0.36480  Biso   1.000  C
  C507     1.0000 0.92490  0.75310  0.63520  Biso   1.000  C
  C508     1.0000 0.17180  0.24690  0.36480  Biso   1.000  C
  C509     1.0000 0.24690  0.17180  0.63520  Biso   1.000  C
  C510     1.0000 0.82820  0.07510  0.63520  Biso   1.000  C
  C511     1.0000 0.08643  0.59157  0.03147  Biso   1.000  C
  C512     1.0000 0.40843  0.49487  0.03147  Biso   1.000  C
  C513     1.0000 0.25823  0.41977  0.30187  Biso   1.000  C
  C514     1.0000 0.50513  0.91357  0.03147  Biso   1.000  C
  C515     1.0000 0.58023  0.83847  0.30187  Biso   1.000  C
  C516     1.0000 0.16153  0.74177  0.30187  Biso   1.000  C
  C517     1.0000 0.41977  0.25823  0.69813  Biso   1.000  C
  C518     1.0000 0.74177  0.16153  0.69813  Biso   1.000  C
  C519     1.0000 0.59157  0.08643  0.96853  Biso   1.000  C
  C520     1.0000 0.83847  0.58023  0.69813  Biso   1.000  C
  C521     1.0000 0.91357  0.50513  0.96853  Biso   1.000  C
  C522     1.0000 0.49487  0.40843  0.96853  Biso   1.000  C
  H361     1.0000 0.78240  0.92870  0.35370  Biso   1.000  H
  H362     1.0000 0.07130  0.85370  0.35370  Biso   1.000  H
  H363     1.0000 0.92870  0.78240  0.64630  Biso   1.000  H
  H364     1.0000 0.14630  0.21760  0.35370  Biso   1.000  H
  H365     1.0000 0.21760  0.14630  0.64630  Biso   1.000  H
  H366     1.0000 0.85370  0.07130  0.64630  Biso   1.000  H
  H367     1.0000 0.11573  0.59537  0.02037  Biso   1.000  H
  H368     1.0000 0.40463  0.52037  0.02037  Biso   1.000  H
  H369     1.0000 0.26203  0.44907  0.31297  Biso   1.000  H
  H370     1.0000 0.47963  0.88427  0.02037  Biso   1.000  H
  H371     1.0000 0.55093  0.81297  0.31297  Biso   1.000  H
  H372     1.0000 0.18703  0.73797  0.31297  Biso   1.000  H
  H373     1.0000 0.44907  0.26203  0.68703  Biso   1.000  H
  H374     1.0000 0.73797  0.18703  0.68703  Biso   1.000  H
  H375     1.0000 0.59537  0.11573  0.97963  Biso   1.000  H
  H376     1.0000 0.81297  0.55093  0.68703  Biso   1.000  H
  H377     1.0000 0.88427  0.47963  0.97963  Biso   1.000  H
  H378     1.0000 0.52037  0.40463  0.97963  Biso   1.000  H
  C523     1.0000 0.73070  0.88240  0.38530  Biso   1.000  C
  C524     1.0000 0.11760  0.84830  0.38530  Biso   1.000  C
  C525     1.0000 0.88240  0.73070  0.61470  Biso   1.000  C
  C526     1.0000 0.15170  0.26930  0.38530  Biso   1.000  C
  C527     1.0000 0.26930  0.15170  0.61470  Biso   1.000  C
  C528     1.0000 0.84830  0.11760  0.61470  Biso   1.000  C
  C529     1.0000 0.06403  0.54907  0.05197  Biso   1.000  C
  C530     1.0000 0.45093  0.51497  0.05197  Biso   1.000  C
  C531     1.0000 0.21573  0.39737  0.28137  Biso   1.000  C
  C532     1.0000 0.48503  0.93597  0.05197  Biso   1.000  C
  C533     1.0000 0.60263  0.81837  0.28137  Biso   1.000  C
  C534     1.0000 0.18163  0.78427  0.28137  Biso   1.000  C
  C535     1.0000 0.39737  0.21573  0.71863  Biso   1.000  C
  C536     1.0000 0.78427  0.18163  0.71863  Biso   1.000  C
  C537     1.0000 0.54907  0.06403  0.94803  Biso   1.000  C
  C538     1.0000 0.81837  0.60263  0.71863  Biso   1.000  C
  C539     1.0000 0.93597  0.48503  0.94803  Biso   1.000  C
  C540     1.0000 0.51497  0.45093  0.94803  Biso   1.000  C
  H379     1.0000 0.74620  0.85890  0.38770  Biso   1.000  H
  H380     1.0000 0.14110  0.88730  0.38770  Biso   1.000  H
  H381     1.0000 0.85890  0.74620  0.61230  Biso   1.000  H
  H382     1.0000 0.11270  0.25380  0.38770  Biso   1.000  H
  H383     1.0000 0.25380  0.11270  0.61230  Biso   1.000  H
  H384     1.0000 0.88730  0.14110  0.61230  Biso   1.000  H
  H385     1.0000 0.07953  0.52557  0.05437  Biso   1.000  H
  H386     1.0000 0.47443  0.55397  0.05437  Biso   1.000  H
  H387     1.0000 0.19223  0.41287  0.27897  Biso   1.000  H
  H388     1.0000 0.44603  0.92047  0.05437  Biso   1.000  H
  H389     1.0000 0.58713  0.77937  0.27897  Biso   1.000  H
  H390     1.0000 0.22063  0.80777  0.27897  Biso   1.000  H
  H391     1.0000 0.41287  0.19223  0.72103  Biso   1.000  H
  H392     1.0000 0.80777  0.22063  0.72103  Biso   1.000  H
  H393     1.0000 0.52557  0.07953  0.94563  Biso   1.000  H
  H394     1.0000 0.77937  0.58713  0.72103  Biso   1.000  H
  H395     1.0000 0.92047  0.44603  0.94563  Biso   1.000  H
  H396     1.0000 0.55397  0.47443  0.94563  Biso   1.000  H
  C541     1.0000 0.89850  0.23970  0.22920  Biso   1.000  C
  C542     1.0000 0.76030  0.65880  0.22920  Biso   1.000  C
  C543     1.0000 0.23970  0.89850  0.77080  Biso   1.000  C
  C544     1.0000 0.34120  0.10150  0.22920  Biso   1.000  C
  C545     1.0000 0.10150  0.34120  0.77080  Biso   1.000  C
  C546     1.0000 0.65880  0.76030  0.77080  Biso   1.000  C
  C547     1.0000 0.23183  0.90637  0.89587  Biso   1.000  C
  C548     1.0000 0.09363  0.32547  0.89587  Biso   1.000  C
  C549     1.0000 0.57303  0.56517  0.43747  Biso   1.000  C
  C550     1.0000 0.67453  0.76817  0.89587  Biso   1.000  C
  C551     1.0000 0.43483  0.00787  0.43747  Biso   1.000  C
  C552     1.0000 0.99213  0.42697  0.43747  Biso   1.000  C
  C553     1.0000 0.56517  0.57303  0.56253  Biso   1.000  C
  C554     1.0000 0.42697  0.99213  0.56253  Biso   1.000  C
  C555     1.0000 0.90637  0.23183  0.10413  Biso   1.000  C
  C556     1.0000 0.00787  0.43483  0.56253  Biso   1.000  C
  C557     1.0000 0.76817  0.67453  0.10413  Biso   1.000  C
  C558     1.0000 0.32547  0.09363  0.10413  Biso   1.000  C
  H397     1.0000 0.92370  0.23450  0.23990  Biso   1.000  H
  H398     1.0000 0.76550  0.68920  0.23990  Biso   1.000  H
  H399     1.0000 0.23450  0.92370  0.76010  Biso   1.000  H
  H400     1.0000 0.31080  0.07630  0.23990  Biso   1.000  H
  H401     1.0000 0.07630  0.31080  0.76010  Biso   1.000  H
  H402     1.0000 0.68920  0.76550  0.76010  Biso   1.000  H
  H403     1.0000 0.25703  0.90117  0.90657  Biso   1.000  H
  H404     1.0000 0.09883  0.35587  0.90657  Biso   1.000  H
  H405     1.0000 0.56783  0.59037  0.42677  Biso   1.000  H
  H406     1.0000 0.64413  0.74297  0.90657  Biso   1.000  H
  H407     1.0000 0.40963  0.97747  0.42677  Biso   1.000  H
  H408     1.0000 0.02253  0.43217  0.42677  Biso   1.000  H
  H409     1.0000 0.59037  0.56783  0.57323  Biso   1.000  H
  H410     1.0000 0.43217  0.02253  0.57323  Biso   1.000  H
  H411     1.0000 0.90117  0.25703  0.09343  Biso   1.000  H
  H412     1.0000 0.97747  0.40963  0.57323  Biso   1.000  H
  H413     1.0000 0.74297  0.64413  0.09343  Biso   1.000  H
  H414     1.0000 0.35587  0.09883  0.09343  Biso   1.000  H
  C559     1.0000 0.92070  0.27960  0.20920  Biso   1.000  C
  C560     1.0000 0.72040  0.64110  0.20920  Biso   1.000  C
  C561     1.0000 0.27960  0.92070  0.79080  Biso   1.000  C
  C562     1.0000 0.35890  0.07930  0.20920  Biso   1.000  C
  C563     1.0000 0.07930  0.35890  0.79080  Biso   1.000  C
  C564     1.0000 0.64110  0.72040  0.79080  Biso   1.000  C
  C565     1.0000 0.25403  0.94627  0.87587  Biso   1.000  C
  C566     1.0000 0.05373  0.30777  0.87587  Biso   1.000  C
  C567     1.0000 0.61293  0.58737  0.45747  Biso   1.000  C
  C568     1.0000 0.69223  0.74597  0.87587  Biso   1.000  C
  C569     1.0000 0.41263  0.02557  0.45747  Biso   1.000  C
  C570     1.0000 0.97443  0.38707  0.45747  Biso   1.000  C
  C571     1.0000 0.58737  0.61293  0.54253  Biso   1.000  C
  C572     1.0000 0.38707  0.97443  0.54253  Biso   1.000  C
  C573     1.0000 0.94627  0.25403  0.12413  Biso   1.000  C
  C574     1.0000 0.02557  0.41263  0.54253  Biso   1.000  C
  C575     1.0000 0.74597  0.69223  0.12413  Biso   1.000  C
  C576     1.0000 0.30777  0.05373  0.12413  Biso   1.000  C
  H415     1.0000 0.95960  0.29780  0.20570  Biso   1.000  H
  H416     1.0000 0.70220  0.66180  0.20570  Biso   1.000  H
  H417     1.0000 0.29780  0.95960  0.79430  Biso   1.000  H
  H418     1.0000 0.33820  0.04040  0.20570  Biso   1.000  H
  H419     1.0000 0.04040  0.33820  0.79430  Biso   1.000  H
  H420     1.0000 0.66180  0.70220  0.79430  Biso   1.000  H
  H421     1.0000 0.29293  0.96447  0.87237  Biso   1.000  H
  H422     1.0000 0.03553  0.32847  0.87237  Biso   1.000  H
  H423     1.0000 0.63113  0.62627  0.46097  Biso   1.000  H
  H424     1.0000 0.67153  0.70707  0.87237  Biso   1.000  H
  H425     1.0000 0.37373  0.00487  0.46097  Biso   1.000  H
  H426     1.0000 0.99513  0.36887  0.46097  Biso   1.000  H
  H427     1.0000 0.62627  0.63113  0.53903  Biso   1.000  H
  H428     1.0000 0.36887  0.99513  0.53903  Biso   1.000  H
  H429     1.0000 0.96447  0.29293  0.12763  Biso   1.000  H
  H430     1.0000 0.00487  0.37373  0.53903  Biso   1.000  H
  H431     1.0000 0.70707  0.67153  0.12763  Biso   1.000  H
  H432     1.0000 0.32847  0.03553  0.12763  Biso   1.000  H
  C577     1.0000 0.88670  0.29320  0.19440  Biso   1.000  C
  C578     1.0000 0.70680  0.59350  0.19440  Biso   1.000  C
  C579     1.0000 0.29320  0.88670  0.80560  Biso   1.000  C
  C580     1.0000 0.40650  0.11330  0.19440  Biso   1.000  C
  C581     1.0000 0.11330  0.40650  0.80560  Biso   1.000  C
  C582     1.0000 0.59350  0.70680  0.80560  Biso   1.000  C
  C583     1.0000 0.22003  0.95987  0.86107  Biso   1.000  C
  C584     1.0000 0.04013  0.26017  0.86107  Biso   1.000  C
  C585     1.0000 0.62653  0.55337  0.47227  Biso   1.000  C
  C586     1.0000 0.73983  0.77997  0.86107  Biso   1.000  C
  C587     1.0000 0.44663  0.07317  0.47227  Biso   1.000  C
  C588     1.0000 0.92683  0.37347  0.47227  Biso   1.000  C
  C589     1.0000 0.55337  0.62653  0.52773  Biso   1.000  C
  C590     1.0000 0.37347  0.92683  0.52773  Biso   1.000  C
  C591     1.0000 0.95987  0.22003  0.13893  Biso   1.000  C
  C592     1.0000 0.07317  0.44663  0.52773  Biso   1.000  C
  C593     1.0000 0.77997  0.73983  0.13893  Biso   1.000  C
  C594     1.0000 0.26017  0.04013  0.13893  Biso   1.000  C
  C595     1.0000 0.82910  0.26010  0.20060  Biso   1.000  C
  C596     1.0000 0.73990  0.56900  0.20060  Biso   1.000  C
  C597     1.0000 0.26010  0.82910  0.79940  Biso   1.000  C
  C598     1.0000 0.43100  0.17090  0.20060  Biso   1.000  C
  C599     1.0000 0.17090  0.43100  0.79940  Biso   1.000  C
  C600     1.0000 0.56900  0.73990  0.79940  Biso   1.000  C
  C601     1.0000 0.16243  0.92677  0.86727  Biso   1.000  C
  C602     1.0000 0.07323  0.23567  0.86727  Biso   1.000  C
  C603     1.0000 0.59343  0.49577  0.46607  Biso   1.000  C
  C604     1.0000 0.76433  0.83757  0.86727  Biso   1.000  C
  C605     1.0000 0.50423  0.09767  0.46607  Biso   1.000  C
  C606     1.0000 0.90233  0.40657  0.46607  Biso   1.000  C
  C607     1.0000 0.49577  0.59343  0.53393  Biso   1.000  C
  C608     1.0000 0.40657  0.90233  0.53393  Biso   1.000  C
  C609     1.0000 0.92677  0.16243  0.13273  Biso   1.000  C
  C610     1.0000 0.09767  0.50423  0.53393  Biso   1.000  C
  C611     1.0000 0.83757  0.76433  0.13273  Biso   1.000  C
  C612     1.0000 0.23567  0.07323  0.13273  Biso   1.000  C
  H433     1.0000 0.80260  0.26530  0.19110  Biso   1.000  H
  H434     1.0000 0.73470  0.53730  0.19110  Biso   1.000  H
  H435     1.0000 0.26530  0.80260  0.80890  Biso   1.000  H
  H436     1.0000 0.46270  0.19740  0.19110  Biso   1.000  H
  H437     1.0000 0.19740  0.46270  0.80890  Biso   1.000  H
  H438     1.0000 0.53730  0.73470  0.80890  Biso   1.000  H
  H439     1.0000 0.13593  0.93197  0.85777  Biso   1.000  H
  H440     1.0000 0.06803  0.20397  0.85777  Biso   1.000  H
  H441     1.0000 0.59863  0.46927  0.47557  Biso   1.000  H
  H442     1.0000 0.79603  0.86407  0.85777  Biso   1.000  H
  H443     1.0000 0.53073  0.12937  0.47557  Biso   1.000  H
  H444     1.0000 0.87063  0.40137  0.47557  Biso   1.000  H
  H445     1.0000 0.46927  0.59863  0.52443  Biso   1.000  H
  H446     1.0000 0.40137  0.87063  0.52443  Biso   1.000  H
  H447     1.0000 0.93197  0.13593  0.14223  Biso   1.000  H
  H448     1.0000 0.12937  0.53073  0.52443  Biso   1.000  H
  H449     1.0000 0.86407  0.79603  0.14223  Biso   1.000  H
  H450     1.0000 0.20397  0.06803  0.14223  Biso   1.000  H
  C613     1.0000 0.81120  0.22090  0.22030  Biso   1.000  C
  C614     1.0000 0.77910  0.59030  0.22030  Biso   1.000  C
  C615     1.0000 0.22090  0.81120  0.77970  Biso   1.000  C
  C616     1.0000 0.40970  0.18880  0.22030  Biso   1.000  C
  C617     1.0000 0.18880  0.40970  0.77970  Biso   1.000  C
  C618     1.0000 0.59030  0.77910  0.77970  Biso   1.000  C
  C619     1.0000 0.14453  0.88757  0.88697  Biso   1.000  C
  C620     1.0000 0.11243  0.25697  0.88697  Biso   1.000  C
  C621     1.0000 0.55423  0.47787  0.44637  Biso   1.000  C
  C622     1.0000 0.74303  0.85547  0.88697  Biso   1.000  C
  C623     1.0000 0.52213  0.07637  0.44637  Biso   1.000  C
  C624     1.0000 0.92363  0.44577  0.44637  Biso   1.000  C
  C625     1.0000 0.47787  0.55423  0.55363  Biso   1.000  C
  C626     1.0000 0.44577  0.92363  0.55363  Biso   1.000  C
  C627     1.0000 0.88757  0.14453  0.11303  Biso   1.000  C
  C628     1.0000 0.07637  0.52213  0.55363  Biso   1.000  C
  C629     1.0000 0.85547  0.74303  0.11303  Biso   1.000  C
  C630     1.0000 0.25697  0.11243  0.11303  Biso   1.000  C
  H451     1.0000 0.77250  0.20100  0.22430  Biso   1.000  H
  H452     1.0000 0.79900  0.57150  0.22430  Biso   1.000  H
  H453     1.0000 0.20100  0.77250  0.77570  Biso   1.000  H
  H454     1.0000 0.42850  0.22750  0.22430  Biso   1.000  H
  H455     1.0000 0.22750  0.42850  0.77570  Biso   1.000  H
  H456     1.0000 0.57150  0.79900  0.77570  Biso   1.000  H
  H457     1.0000 0.10583  0.86767  0.89097  Biso   1.000  H
  H458     1.0000 0.13233  0.23817  0.89097  Biso   1.000  H
  H459     1.0000 0.53433  0.43917  0.44237  Biso   1.000  H
  H460     1.0000 0.76183  0.89417  0.89097  Biso   1.000  H
  H461     1.0000 0.56083  0.09517  0.44237  Biso   1.000  H
  H462     1.0000 0.90483  0.46567  0.44237  Biso   1.000  H
  H463     1.0000 0.43917  0.53433  0.55763  Biso   1.000  H
  H464     1.0000 0.46567  0.90483  0.55763  Biso   1.000  H
  H465     1.0000 0.86767  0.10583  0.10903  Biso   1.000  H
  H466     1.0000 0.09517  0.56083  0.55763  Biso   1.000  H
  H467     1.0000 0.89417  0.76183  0.10903  Biso   1.000  H
  H468     1.0000 0.23817  0.13233  0.10903  Biso   1.000  H
  C631     1.0000 0.98370  0.41640  0.15010  Biso   1.000  C
  C632     1.0000 0.58360  0.56730  0.15010  Biso   1.000  C
  C633     1.0000 0.41640  0.98370  0.84990  Biso   1.000  C
  C634     1.0000 0.43270  0.01630  0.15010  Biso   1.000  C
  C635     1.0000 0.01630  0.43270  0.84990  Biso   1.000  C
  C636     1.0000 0.56730  0.58360  0.84990  Biso   1.000  C
  C637     1.0000 0.31703  0.08307  0.81677  Biso   1.000  C
  C638     1.0000 0.91693  0.23397  0.81677  Biso   1.000  C
  C639     1.0000 0.74973  0.65037  0.51657  Biso   1.000  C
  C640     1.0000 0.76603  0.68297  0.81677  Biso   1.000  C
  C641     1.0000 0.34963  0.09937  0.51657  Biso   1.000  C
  C642     1.0000 0.90063  0.25027  0.51657  Biso   1.000  C
  C643     1.0000 0.65037  0.74973  0.48343  Biso   1.000  C
  C644     1.0000 0.25027  0.90063  0.48343  Biso   1.000  C
  C645     1.0000 0.08307  0.31703  0.18323  Biso   1.000  C
  C646     1.0000 0.09937  0.34963  0.48343  Biso   1.000  C
  C647     1.0000 0.68297  0.76603  0.18323  Biso   1.000  C
  C648     1.0000 0.23397  0.91693  0.18323  Biso   1.000  C
  H469     1.0000 0.02210  0.44390  0.14990  Biso   1.000  H
  H470     1.0000 0.55610  0.57820  0.14990  Biso   1.000  H
  H471     1.0000 0.44390  0.02210  0.85010  Biso   1.000  H
  H472     1.0000 0.42180  0.97790  0.14990  Biso   1.000  H
  H473     1.0000 0.97790  0.42180  0.85010  Biso   1.000  H
  H474     1.0000 0.57820  0.55610  0.85010  Biso   1.000  H
  H475     1.0000 0.35543  0.11057  0.81657  Biso   1.000  H
  H476     1.0000 0.88943  0.24487  0.81657  Biso   1.000  H
  H477     1.0000 0.77723  0.68877  0.51677  Biso   1.000  H
  H478     1.0000 0.75513  0.64457  0.81657  Biso   1.000  H
  H479     1.0000 0.31123  0.08847  0.51677  Biso   1.000  H
  H480     1.0000 0.91153  0.22277  0.51677  Biso   1.000  H
  H481     1.0000 0.68877  0.77723  0.48323  Biso   1.000  H
  H482     1.0000 0.22277  0.91153  0.48323  Biso   1.000  H
  H483     1.0000 0.11057  0.35543  0.18343  Biso   1.000  H
  H484     1.0000 0.08847  0.31123  0.48323  Biso   1.000  H
  H485     1.0000 0.64457  0.75513  0.18343  Biso   1.000  H
  H486     1.0000 0.24487  0.88943  0.18343  Biso   1.000  H
  C649     1.0000 0.96320  0.37590  0.17100  Biso   1.000  C
  C650     1.0000 0.62410  0.58730  0.17100  Biso   1.000  C
  C651     1.0000 0.37590  0.96320  0.82900  Biso   1.000  C
  C652     1.0000 0.41270  0.03680  0.17100  Biso   1.000  C
  C653     1.0000 0.03680  0.41270  0.82900  Biso   1.000  C
  C654     1.0000 0.58730  0.62410  0.82900  Biso   1.000  C
  C655     1.0000 0.29653  0.04257  0.83767  Biso   1.000  C
  C656     1.0000 0.95743  0.25397  0.83767  Biso   1.000  C
  C657     1.0000 0.70923  0.62987  0.49567  Biso   1.000  C
  C658     1.0000 0.74603  0.70347  0.83767  Biso   1.000  C
  C659     1.0000 0.37013  0.07937  0.49567  Biso   1.000  C
  C660     1.0000 0.92063  0.29077  0.49567  Biso   1.000  C
  C661     1.0000 0.62987  0.70923  0.50433  Biso   1.000  C
  C662     1.0000 0.29077  0.92063  0.50433  Biso   1.000  C
  C663     1.0000 0.04257  0.29653  0.16233  Biso   1.000  C
  C664     1.0000 0.07937  0.37013  0.50433  Biso   1.000  C
  C665     1.0000 0.70347  0.74603  0.16233  Biso   1.000  C
  C666     1.0000 0.25397  0.95743  0.16233  Biso   1.000  C
  H487     1.0000 0.98850  0.37750  0.18400  Biso   1.000  H
  H488     1.0000 0.62250  0.61100  0.18400  Biso   1.000  H
  H489     1.0000 0.37750  0.98850  0.81600  Biso   1.000  H
  H490     1.0000 0.38900  0.01150  0.18400  Biso   1.000  H
  H491     1.0000 0.01150  0.38900  0.81600  Biso   1.000  H
  H492     1.0000 0.61100  0.62250  0.81600  Biso   1.000  H
  H493     1.0000 0.32183  0.04417  0.85067  Biso   1.000  H
  H494     1.0000 0.95583  0.27767  0.85067  Biso   1.000  H
  H495     1.0000 0.71083  0.65517  0.48267  Biso   1.000  H
  H496     1.0000 0.72233  0.67817  0.85067  Biso   1.000  H
  H497     1.0000 0.34483  0.05567  0.48267  Biso   1.000  H
  H498     1.0000 0.94433  0.28917  0.48267  Biso   1.000  H
  H499     1.0000 0.65517  0.71083  0.51733  Biso   1.000  H
  H500     1.0000 0.28917  0.94433  0.51733  Biso   1.000  H
  H501     1.0000 0.04417  0.32183  0.14933  Biso   1.000  H
  H502     1.0000 0.05567  0.34483  0.51733  Biso   1.000  H
  H503     1.0000 0.67817  0.72233  0.14933  Biso   1.000  H
  H504     1.0000 0.27767  0.95583  0.14933  Biso   1.000  H
  C667     1.0000 0.90910  0.33580  0.17270  Biso   1.000  C
  C668     1.0000 0.66420  0.57330  0.17270  Biso   1.000  C
  C669     1.0000 0.33580  0.90910  0.82730  Biso   1.000  C
  C670     1.0000 0.42670  0.09090  0.17270  Biso   1.000  C
  C671     1.0000 0.09090  0.42670  0.82730  Biso   1.000  C
  C672     1.0000 0.57330  0.66420  0.82730  Biso   1.000  C
  C673     1.0000 0.24243  0.00247  0.83937  Biso   1.000  C
  C674     1.0000 0.99753  0.23997  0.83937  Biso   1.000  C
  C675     1.0000 0.66913  0.57577  0.49397  Biso   1.000  C
  C676     1.0000 0.76003  0.75757  0.83937  Biso   1.000  C
  C677     1.0000 0.42423  0.09337  0.49397  Biso   1.000  C
  C678     1.0000 0.90663  0.33087  0.49397  Biso   1.000  C
  C679     1.0000 0.57577  0.66913  0.50603  Biso   1.000  C
  C680     1.0000 0.33087  0.90663  0.50603  Biso   1.000  C
  C681     1.0000 0.00247  0.24243  0.16063  Biso   1.000  C
  C682     1.0000 0.09337  0.42423  0.50603  Biso   1.000  C
  C683     1.0000 0.75757  0.76003  0.16063  Biso   1.000  C
  C684     1.0000 0.23997  0.99753  0.16063  Biso   1.000  C
  C685     1.0000 0.87240  0.33550  0.15200  Biso   1.000  C
  C686     1.0000 0.66450  0.53690  0.15200  Biso   1.000  C
  C687     1.0000 0.33550  0.87240  0.84800  Biso   1.000  C
  C688     1.0000 0.46310  0.12760  0.15200  Biso   1.000  C
  C689     1.0000 0.12760  0.46310  0.84800  Biso   1.000  C
  C690     1.0000 0.53690  0.66450  0.84800  Biso   1.000  C
  C691     1.0000 0.20573  0.00217  0.81867  Biso   1.000  C
  C692     1.0000 0.99783  0.20357  0.81867  Biso   1.000  C
  C693     1.0000 0.66883  0.53907  0.51467  Biso   1.000  C
  C694     1.0000 0.79643  0.79427  0.81867  Biso   1.000  C
  C695     1.0000 0.46093  0.12977  0.51467  Biso   1.000  C
  C696     1.0000 0.87023  0.33117  0.51467  Biso   1.000  C
  C697     1.0000 0.53907  0.66883  0.48533  Biso   1.000  C
  C698     1.0000 0.33117  0.87023  0.48533  Biso   1.000  C
  C699     1.0000 0.00217  0.20573  0.18133  Biso   1.000  C
  C700     1.0000 0.12977  0.46093  0.48533  Biso   1.000  C
  C701     1.0000 0.79427  0.79643  0.18133  Biso   1.000  C
  C702     1.0000 0.20357  0.99783  0.18133  Biso   1.000  C
  H505     1.0000 0.83390  0.30820  0.15220  Biso   1.000  H
  H506     1.0000 0.69180  0.52570  0.15220  Biso   1.000  H
  H507     1.0000 0.30820  0.83390  0.84780  Biso   1.000  H
  H508     1.0000 0.47430  0.16610  0.15220  Biso   1.000  H
  H509     1.0000 0.16610  0.47430  0.84780  Biso   1.000  H
  H510     1.0000 0.52570  0.69180  0.84780  Biso   1.000  H
  H511     1.0000 0.16723  0.97487  0.81887  Biso   1.000  H
  H512     1.0000 0.02513  0.19237  0.81887  Biso   1.000  H
  H513     1.0000 0.64153  0.50057  0.51447  Biso   1.000  H
  H514     1.0000 0.80763  0.83277  0.81887  Biso   1.000  H
  H515     1.0000 0.49943  0.14097  0.51447  Biso   1.000  H
  H516     1.0000 0.85903  0.35847  0.51447  Biso   1.000  H
  H517     1.0000 0.50057  0.64153  0.48553  Biso   1.000  H
  H518     1.0000 0.35847  0.85903  0.48553  Biso   1.000  H
  H519     1.0000 0.97487  0.16723  0.18113  Biso   1.000  H
  H520     1.0000 0.14097  0.49943  0.48553  Biso   1.000  H
  H521     1.0000 0.83277  0.80763  0.18113  Biso   1.000  H
  H522     1.0000 0.19237  0.02513  0.18113  Biso   1.000  H
  C703     1.0000 0.89400  0.37570  0.13170  Biso   1.000  C
  C704     1.0000 0.62430  0.51830  0.13170  Biso   1.000  C
  C705     1.0000 0.37570  0.89400  0.86830  Biso   1.000  C
  C706     1.0000 0.48170  0.10600  0.13170  Biso   1.000  C
  C707     1.0000 0.10600  0.48170  0.86830  Biso   1.000  C
  C708     1.0000 0.51830  0.62430  0.86830  Biso   1.000  C
  C709     1.0000 0.22733  0.04237  0.79837  Biso   1.000  C
  C710     1.0000 0.95763  0.18497  0.79837  Biso   1.000  C
  C711     1.0000 0.70903  0.56067  0.53497  Biso   1.000  C
  C712     1.0000 0.81503  0.77267  0.79837  Biso   1.000  C
  C713     1.0000 0.43933  0.14837  0.53497  Biso   1.000  C
  C714     1.0000 0.85163  0.29097  0.53497  Biso   1.000  C
  C715     1.0000 0.56067  0.70903  0.46503  Biso   1.000  C
  C716     1.0000 0.29097  0.85163  0.46503  Biso   1.000  C
  C717     1.0000 0.04237  0.22733  0.20163  Biso   1.000  C
  C718     1.0000 0.14837  0.43933  0.46503  Biso   1.000  C
  C719     1.0000 0.77267  0.81503  0.20163  Biso   1.000  C
  C720     1.0000 0.18497  0.95763  0.20163  Biso   1.000  C
  H523     1.0000 0.86950  0.37480  0.11830  Biso   1.000  H
  H524     1.0000 0.62520  0.49470  0.11830  Biso   1.000  H
  H525     1.0000 0.37480  0.86950  0.88170  Biso   1.000  H
  H526     1.0000 0.50530  0.13050  0.11830  Biso   1.000  H
  H527     1.0000 0.13050  0.50530  0.88170  Biso   1.000  H
  H528     1.0000 0.49470  0.62520  0.88170  Biso   1.000  H
  H529     1.0000 0.20283  0.04147  0.78497  Biso   1.000  H
  H530     1.0000 0.95853  0.16137  0.78497  Biso   1.000  H
  H531     1.0000 0.70813  0.53617  0.54837  Biso   1.000  H
  H532     1.0000 0.83863  0.79717  0.78497  Biso   1.000  H
  H533     1.0000 0.46383  0.17197  0.54837  Biso   1.000  H
  H534     1.0000 0.82803  0.29187  0.54837  Biso   1.000  H
  H535     1.0000 0.53617  0.70813  0.45163  Biso   1.000  H
  H536     1.0000 0.29187  0.82803  0.45163  Biso   1.000  H
  H537     1.0000 0.04147  0.20283  0.21503  Biso   1.000  H
  H538     1.0000 0.17197  0.46383  0.45163  Biso   1.000  H
  H539     1.0000 0.79717  0.83863  0.21503  Biso   1.000  H
  H540     1.0000 0.16137  0.95853  0.21503  Biso   1.000  H
  C721     1.0000 0.89240  0.22210  0.30760  Biso   1.000  C
  C722     1.0000 0.77790  0.67030  0.30760  Biso   1.000  C
  C723     1.0000 0.22210  0.89240  0.69240  Biso   1.000  C
  C724     1.0000 0.32970  0.10760  0.30760  Biso   1.000  C
  C725     1.0000 0.10760  0.32970  0.69240  Biso   1.000  C
  C726     1.0000 0.67030  0.77790  0.69240  Biso   1.000  C
  C727     1.0000 0.22573  0.88877  0.97427  Biso   1.000  C
  C728     1.0000 0.11123  0.33697  0.97427  Biso   1.000  C
  C729     1.0000 0.55543  0.55907  0.35907  Biso   1.000  C
  C730     1.0000 0.66303  0.77427  0.97427  Biso   1.000  C
  C731     1.0000 0.44093  0.99637  0.35907  Biso   1.000  C
  C732     1.0000 0.00363  0.44457  0.35907  Biso   1.000  C
  C733     1.0000 0.55907  0.55543  0.64093  Biso   1.000  C
  C734     1.0000 0.44457  0.00363  0.64093  Biso   1.000  C
  C735     1.0000 0.88877  0.22573  0.02573  Biso   1.000  C
  C736     1.0000 0.99637  0.44093  0.64093  Biso   1.000  C
  C737     1.0000 0.77427  0.66303  0.02573  Biso   1.000  C
  C738     1.0000 0.33697  0.11123  0.02573  Biso   1.000  C
  H541     1.0000 0.90890  0.19920  0.30710  Biso   1.000  H
  H542     1.0000 0.80080  0.70970  0.30710  Biso   1.000  H
  H543     1.0000 0.19920  0.90890  0.69290  Biso   1.000  H
  H544     1.0000 0.29030  0.09110  0.30710  Biso   1.000  H
  H545     1.0000 0.09110  0.29030  0.69290  Biso   1.000  H
  H546     1.0000 0.70970  0.80080  0.69290  Biso   1.000  H
  H547     1.0000 0.24223  0.86587  0.97377  Biso   1.000  H
  H548     1.0000 0.13413  0.37637  0.97377  Biso   1.000  H
  H549     1.0000 0.53253  0.57557  0.35957  Biso   1.000  H
  H550     1.0000 0.62363  0.75777  0.97377  Biso   1.000  H
  H551     1.0000 0.42443  0.95697  0.35957  Biso   1.000  H
  H552     1.0000 0.04303  0.46747  0.35957  Biso   1.000  H
  H553     1.0000 0.57557  0.53253  0.64043  Biso   1.000  H
  H554     1.0000 0.46747  0.04303  0.64043  Biso   1.000  H
  H555     1.0000 0.86587  0.24223  0.02623  Biso   1.000  H
  H556     1.0000 0.95697  0.42443  0.64043  Biso   1.000  H
  H557     1.0000 0.75777  0.62363  0.02623  Biso   1.000  H
  H558     1.0000 0.37637  0.13413  0.02623  Biso   1.000  H
  C739     1.0000 0.91690  0.27290  0.32410  Biso   1.000  C
  C740     1.0000 0.72710  0.64400  0.32410  Biso   1.000  C
  C741     1.0000 0.27290  0.91690  0.67590  Biso   1.000  C
  C742     1.0000 0.35600  0.08310  0.32410  Biso   1.000  C
  C743     1.0000 0.08310  0.35600  0.67590  Biso   1.000  C
  C744     1.0000 0.64400  0.72710  0.67590  Biso   1.000  C
  C745     1.0000 0.25023  0.93957  0.99077  Biso   1.000  C
  C746     1.0000 0.06043  0.31067  0.99077  Biso   1.000  C
  C747     1.0000 0.60623  0.58357  0.34257  Biso   1.000  C
  C748     1.0000 0.68933  0.74977  0.99077  Biso   1.000  C
  C749     1.0000 0.41643  0.02267  0.34257  Biso   1.000  C
  C750     1.0000 0.97733  0.39377  0.34257  Biso   1.000  C
  C751     1.0000 0.58357  0.60623  0.65743  Biso   1.000  C
  C752     1.0000 0.39377  0.97733  0.65743  Biso   1.000  C
  C753     1.0000 0.93957  0.25023  0.00923  Biso   1.000  C
  C754     1.0000 0.02267  0.41643  0.65743  Biso   1.000  C
  C755     1.0000 0.74977  0.68933  0.00923  Biso   1.000  C
  C756     1.0000 0.31067  0.06043  0.00923  Biso   1.000  C
  H559     1.0000 0.95000  0.28310  0.33380  Biso   1.000  H
  H560     1.0000 0.71690  0.66690  0.33380  Biso   1.000  H
  H561     1.0000 0.28310  0.95000  0.66620  Biso   1.000  H
  H562     1.0000 0.33310  0.05000  0.33380  Biso   1.000  H
  H563     1.0000 0.05000  0.33310  0.66620  Biso   1.000  H
  H564     1.0000 0.66690  0.71690  0.66620  Biso   1.000  H
  H565     1.0000 0.28333  0.94977  0.00047  Biso   1.000  H
  H566     1.0000 0.05023  0.33357  0.00047  Biso   1.000  H
  H567     1.0000 0.61643  0.61667  0.33287  Biso   1.000  H
  H568     1.0000 0.66643  0.71667  0.00047  Biso   1.000  H
  H569     1.0000 0.38333  0.99977  0.33287  Biso   1.000  H
  H570     1.0000 0.00023  0.38357  0.33287  Biso   1.000  H
  H571     1.0000 0.61667  0.61643  0.66713  Biso   1.000  H
  H572     1.0000 0.38357  0.00023  0.66713  Biso   1.000  H
  H573     1.0000 0.94977  0.28333  0.99953  Biso   1.000  H
  H574     1.0000 0.99977  0.38333  0.66713  Biso   1.000  H
  H575     1.0000 0.71667  0.66643  0.99953  Biso   1.000  H
  H576     1.0000 0.33357  0.05023  0.99953  Biso   1.000  H
  C757     1.0000 0.89210  0.30600  0.32560  Biso   1.000  C
  C758     1.0000 0.69400  0.58610  0.32560  Biso   1.000  C
  C759     1.0000 0.30600  0.89210  0.67440  Biso   1.000  C
  C760     1.0000 0.41390  0.10790  0.32560  Biso   1.000  C
  C761     1.0000 0.10790  0.41390  0.67440  Biso   1.000  C
  C762     1.0000 0.58610  0.69400  0.67440  Biso   1.000  C
  C763     1.0000 0.22543  0.97267  0.99227  Biso   1.000  C
  C764     1.0000 0.02733  0.25277  0.99227  Biso   1.000  C
  C765     1.0000 0.63933  0.55877  0.34107  Biso   1.000  C
  C766     1.0000 0.74723  0.77457  0.99227  Biso   1.000  C
  C767     1.0000 0.44123  0.08057  0.34107  Biso   1.000  C
  C768     1.0000 0.91943  0.36067  0.34107  Biso   1.000  C
  C769     1.0000 0.55877  0.63933  0.65893  Biso   1.000  C
  C770     1.0000 0.36067  0.91943  0.65893  Biso   1.000  C
  C771     1.0000 0.97267  0.22543  0.00773  Biso   1.000  C
  C772     1.0000 0.08057  0.44123  0.65893  Biso   1.000  C
  C773     1.0000 0.77457  0.74723  0.00773  Biso   1.000  C
  C774     1.0000 0.25277  0.02733  0.00773  Biso   1.000  C
  C775     1.0000 0.84600  0.29310  0.31070  Biso   1.000  C
  C776     1.0000 0.70690  0.55290  0.31070  Biso   1.000  C
  C777     1.0000 0.29310  0.84600  0.68930  Biso   1.000  C
  C778     1.0000 0.44710  0.15400  0.31070  Biso   1.000  C
  C779     1.0000 0.15400  0.44710  0.68930  Biso   1.000  C
  C780     1.0000 0.55290  0.70690  0.68930  Biso   1.000  C
  C781     1.0000 0.17933  0.95977  0.97737  Biso   1.000  C
  C782     1.0000 0.04023  0.21957  0.97737  Biso   1.000  C
  C783     1.0000 0.62643  0.51267  0.35597  Biso   1.000  C
  C784     1.0000 0.78043  0.82067  0.97737  Biso   1.000  C
  C785     1.0000 0.48733  0.11377  0.35597  Biso   1.000  C
  C786     1.0000 0.88623  0.37357  0.35597  Biso   1.000  C
  C787     1.0000 0.51267  0.62643  0.64403  Biso   1.000  C
  C788     1.0000 0.37357  0.88623  0.64403  Biso   1.000  C
  C789     1.0000 0.95977  0.17933  0.02263  Biso   1.000  C
  C790     1.0000 0.11377  0.48733  0.64403  Biso   1.000  C
  C791     1.0000 0.82067  0.78043  0.02263  Biso   1.000  C
  C792     1.0000 0.21957  0.04023  0.02263  Biso   1.000  C
  H577     1.0000 0.83060  0.31700  0.31050  Biso   1.000  H
  H578     1.0000 0.68300  0.51360  0.31050  Biso   1.000  H
  H579     1.0000 0.31700  0.83060  0.68950  Biso   1.000  H
  H580     1.0000 0.48640  0.16940  0.31050  Biso   1.000  H
  H581     1.0000 0.16940  0.48640  0.68950  Biso   1.000  H
  H582     1.0000 0.51360  0.68300  0.68950  Biso   1.000  H
  H583     1.0000 0.16393  0.98367  0.97717  Biso   1.000  H
  H584     1.0000 0.01633  0.18027  0.97717  Biso   1.000  H
  H585     1.0000 0.65033  0.49727  0.35617  Biso   1.000  H
  H586     1.0000 0.81973  0.83607  0.97717  Biso   1.000  H
  H587     1.0000 0.50273  0.15307  0.35617  Biso   1.000  H
  H588     1.0000 0.84693  0.34967  0.35617  Biso   1.000  H
  H589     1.0000 0.49727  0.65033  0.64383  Biso   1.000  H
  H590     1.0000 0.34967  0.84693  0.64383  Biso   1.000  H
  H591     1.0000 0.98367  0.16393  0.02283  Biso   1.000  H
  H592     1.0000 0.15307  0.50273  0.64383  Biso   1.000  H
  H593     1.0000 0.83607  0.81973  0.02283  Biso   1.000  H
  H594     1.0000 0.18027  0.01633  0.02283  Biso   1.000  H
  C793     1.0000 0.82150  0.24260  0.29550  Biso   1.000  C
  C794     1.0000 0.75740  0.57890  0.29550  Biso   1.000  C
  C795     1.0000 0.24260  0.82150  0.70450  Biso   1.000  C
  C796     1.0000 0.42110  0.17850  0.29550  Biso   1.000  C
  C797     1.0000 0.17850  0.42110  0.70450  Biso   1.000  C
  C798     1.0000 0.57890  0.75740  0.70450  Biso   1.000  C
  C799     1.0000 0.15483  0.90927  0.96217  Biso   1.000  C
  C800     1.0000 0.09073  0.24557  0.96217  Biso   1.000  C
  C801     1.0000 0.57593  0.48817  0.37117  Biso   1.000  C
  C802     1.0000 0.75443  0.84517  0.96217  Biso   1.000  C
  C803     1.0000 0.51183  0.08777  0.37117  Biso   1.000  C
  C804     1.0000 0.91223  0.42407  0.37117  Biso   1.000  C
  C805     1.0000 0.48817  0.57593  0.62883  Biso   1.000  C
  C806     1.0000 0.42407  0.91223  0.62883  Biso   1.000  C
  C807     1.0000 0.90927  0.15483  0.03783  Biso   1.000  C
  C808     1.0000 0.08777  0.51183  0.62883  Biso   1.000  C
  C809     1.0000 0.84517  0.75443  0.03783  Biso   1.000  C
  C810     1.0000 0.24557  0.09073  0.03783  Biso   1.000  C
  H595     1.0000 0.78740  0.23200  0.28670  Biso   1.000  H
  H596     1.0000 0.76800  0.55540  0.28670  Biso   1.000  H
  H597     1.0000 0.23200  0.78740  0.71330  Biso   1.000  H
  H598     1.0000 0.44460  0.21260  0.28670  Biso   1.000  H
  H599     1.0000 0.21260  0.44460  0.71330  Biso   1.000  H
  H600     1.0000 0.55540  0.76800  0.71330  Biso   1.000  H
  H601     1.0000 0.12073  0.89867  0.95337  Biso   1.000  H
  H602     1.0000 0.10133  0.22207  0.95337  Biso   1.000  H
  H603     1.0000 0.56533  0.45407  0.37997  Biso   1.000  H
  H604     1.0000 0.77793  0.87927  0.95337  Biso   1.000  H
  H605     1.0000 0.54593  0.11127  0.37997  Biso   1.000  H
  H606     1.0000 0.88873  0.43467  0.37997  Biso   1.000  H
  H607     1.0000 0.45407  0.56533  0.62003  Biso   1.000  H
  H608     1.0000 0.43467  0.88873  0.62003  Biso   1.000  H
  H609     1.0000 0.89867  0.12073  0.04663  Biso   1.000  H
  H610     1.0000 0.11127  0.54593  0.62003  Biso   1.000  H
  H611     1.0000 0.87927  0.77793  0.04663  Biso   1.000  H
  H612     1.0000 0.22207  0.10133  0.04663  Biso   1.000  H
  C811     1.0000 0.74410  0.90830  0.46130  Biso   1.000  C
  C812     1.0000 0.09170  0.83580  0.46130  Biso   1.000  C
  C813     1.0000 0.90830  0.74410  0.53870  Biso   1.000  C
  C814     1.0000 0.16420  0.25590  0.46130  Biso   1.000  C
  C815     1.0000 0.25590  0.16420  0.53870  Biso   1.000  C
  C816     1.0000 0.83580  0.09170  0.53870  Biso   1.000  C
  C817     1.0000 0.07743  0.57497  0.12797  Biso   1.000  C
  C818     1.0000 0.42503  0.50247  0.12797  Biso   1.000  C
  C819     1.0000 0.24163  0.41077  0.20537  Biso   1.000  C
  C820     1.0000 0.49753  0.92257  0.12797  Biso   1.000  C
  C821     1.0000 0.58923  0.83087  0.20537  Biso   1.000  C
  C822     1.0000 0.16913  0.75837  0.20537  Biso   1.000  C
  C823     1.0000 0.41077  0.24163  0.79463  Biso   1.000  C
  C824     1.0000 0.75837  0.16913  0.79463  Biso   1.000  C
  C825     1.0000 0.57497  0.07743  0.87203  Biso   1.000  C
  C826     1.0000 0.83087  0.58923  0.79463  Biso   1.000  C
  C827     1.0000 0.92257  0.49753  0.87203  Biso   1.000  C
  C828     1.0000 0.50247  0.42503  0.87203  Biso   1.000  C
  H613     1.0000 0.76590  0.89700  0.45140  Biso   1.000  H
  H614     1.0000 0.10300  0.86890  0.45140  Biso   1.000  H
  H615     1.0000 0.89700  0.76590  0.54860  Biso   1.000  H
  H616     1.0000 0.13110  0.23410  0.45140  Biso   1.000  H
  H617     1.0000 0.23410  0.13110  0.54860  Biso   1.000  H
  H618     1.0000 0.86890  0.10300  0.54860  Biso   1.000  H
  H619     1.0000 0.09923  0.56367  0.11807  Biso   1.000  H
  H620     1.0000 0.43633  0.53557  0.11807  Biso   1.000  H
  H621     1.0000 0.23033  0.43257  0.21527  Biso   1.000  H
  H622     1.0000 0.46443  0.90077  0.11807  Biso   1.000  H
  H623     1.0000 0.56743  0.79777  0.21527  Biso   1.000  H
  H624     1.0000 0.20223  0.76967  0.21527  Biso   1.000  H
  H625     1.0000 0.43257  0.23033  0.78473  Biso   1.000  H
  H626     1.0000 0.76967  0.20223  0.78473  Biso   1.000  H
  H627     1.0000 0.56367  0.09923  0.88193  Biso   1.000  H
  H628     1.0000 0.79777  0.56743  0.78473  Biso   1.000  H
  H629     1.0000 0.90077  0.46443  0.88193  Biso   1.000  H
  H630     1.0000 0.53557  0.43633  0.88193  Biso   1.000  H
  C829     1.0000 0.77190  0.95570  0.47640  Biso   1.000  C
  C830     1.0000 0.04430  0.81620  0.47640  Biso   1.000  C
  C831     1.0000 0.95570  0.77190  0.52360  Biso   1.000  C
  C832     1.0000 0.18380  0.22810  0.47640  Biso   1.000  C
  C833     1.0000 0.22810  0.18380  0.52360  Biso   1.000  C
  C834     1.0000 0.81620  0.04430  0.52360  Biso   1.000  C
  C835     1.0000 0.10523  0.62237  0.14307  Biso   1.000  C
  C836     1.0000 0.37763  0.48287  0.14307  Biso   1.000  C
  C837     1.0000 0.28903  0.43857  0.19027  Biso   1.000  C
  C838     1.0000 0.51713  0.89477  0.14307  Biso   1.000  C
  C839     1.0000 0.56143  0.85047  0.19027  Biso   1.000  C
  C840     1.0000 0.14953  0.71097  0.19027  Biso   1.000  C
  C841     1.0000 0.43857  0.28903  0.80973  Biso   1.000  C
  C842     1.0000 0.71097  0.14953  0.80973  Biso   1.000  C
  C843     1.0000 0.62237  0.10523  0.85693  Biso   1.000  C
  C844     1.0000 0.85047  0.56143  0.80973  Biso   1.000  C
  C845     1.0000 0.89477  0.51713  0.85693  Biso   1.000  C
  C846     1.0000 0.48287  0.37763  0.85693  Biso   1.000  C
  H631     1.0000 0.81150  0.97620  0.47700  Biso   1.000  H
  H632     1.0000 0.02380  0.83530  0.47700  Biso   1.000  H
  H633     1.0000 0.97620  0.81150  0.52300  Biso   1.000  H
  H634     1.0000 0.16470  0.18850  0.47700  Biso   1.000  H
  H635     1.0000 0.18850  0.16470  0.52300  Biso   1.000  H
  H636     1.0000 0.83530  0.02380  0.52300  Biso   1.000  H
  H637     1.0000 0.14483  0.64287  0.14367  Biso   1.000  H
  H638     1.0000 0.35713  0.50197  0.14367  Biso   1.000  H
  H639     1.0000 0.30953  0.47817  0.18967  Biso   1.000  H
  H640     1.0000 0.49803  0.85517  0.14367  Biso   1.000  H
  H641     1.0000 0.52183  0.83137  0.18967  Biso   1.000  H
  H642     1.0000 0.16863  0.69047  0.18967  Biso   1.000  H
  H643     1.0000 0.47817  0.30953  0.81033  Biso   1.000  H
  H644     1.0000 0.69047  0.16863  0.81033  Biso   1.000  H
  H645     1.0000 0.64287  0.14483  0.85633  Biso   1.000  H
  H646     1.0000 0.83137  0.52183  0.81033  Biso   1.000  H
  H647     1.0000 0.85517  0.49803  0.85633  Biso   1.000  H
  H648     1.0000 0.50197  0.35713  0.85633  Biso   1.000  H
  C847     1.0000 0.73740  0.97420  0.49230  Biso   1.000  C
  C848     1.0000 0.02580  0.76320  0.49230  Biso   1.000  C
  C849     1.0000 0.97420  0.73740  0.50770  Biso   1.000  C
  C850     1.0000 0.23680  0.26260  0.49230  Biso   1.000  C
  C851     1.0000 0.26260  0.23680  0.50770  Biso   1.000  C
  C852     1.0000 0.76320  0.02580  0.50770  Biso   1.000  C
  C853     1.0000 0.07073  0.64087  0.15897  Biso   1.000  C
  C854     1.0000 0.35913  0.42987  0.15897  Biso   1.000  C
  C855     1.0000 0.30753  0.40407  0.17437  Biso   1.000  C
  C856     1.0000 0.57013  0.92927  0.15897  Biso   1.000  C
  C857     1.0000 0.59593  0.90347  0.17437  Biso   1.000  C
  C858     1.0000 0.09653  0.69247  0.17437  Biso   1.000  C
  C859     1.0000 0.40407  0.30753  0.82563  Biso   1.000  C
  C860     1.0000 0.69247  0.09653  0.82563  Biso   1.000  C
  C861     1.0000 0.64087  0.07073  0.84103  Biso   1.000  C
  C862     1.0000 0.90347  0.59593  0.82563  Biso   1.000  C
  C863     1.0000 0.92927  0.57013  0.84103  Biso   1.000  C
  C864     1.0000 0.42987  0.35913  0.84103  Biso   1.000  C
  C865     1.0000 0.67800  0.93790  0.49000  Biso   1.000  C
  C866     1.0000 0.06210  0.74010  0.49000  Biso   1.000  C
  C867     1.0000 0.93790  0.67800  0.51000  Biso   1.000  C
  C868     1.0000 0.25990  0.32200  0.49000  Biso   1.000  C
  C869     1.0000 0.32200  0.25990  0.51000  Biso   1.000  C
  C870     1.0000 0.74010  0.06210  0.51000  Biso   1.000  C
  C871     1.0000 0.01133  0.60457  0.15667  Biso   1.000  C
  C872     1.0000 0.39543  0.40677  0.15667  Biso   1.000  C
  C873     1.0000 0.27123  0.34467  0.17667  Biso   1.000  C
  C874     1.0000 0.59323  0.98867  0.15667  Biso   1.000  C
  C875     1.0000 0.65533  0.92657  0.17667  Biso   1.000  C
  C876     1.0000 0.07343  0.72877  0.17667  Biso   1.000  C
  C877     1.0000 0.34467  0.27123  0.82333  Biso   1.000  C
  C878     1.0000 0.72877  0.07343  0.82333  Biso   1.000  C
  C879     1.0000 0.60457  0.01133  0.84333  Biso   1.000  C
  C880     1.0000 0.92657  0.65533  0.82333  Biso   1.000  C
  C881     1.0000 0.98867  0.59323  0.84333  Biso   1.000  C
  C882     1.0000 0.40677  0.39543  0.84333  Biso   1.000  C
  H649     1.0000 0.65320  0.94630  0.49910  Biso   1.000  H
  H650     1.0000 0.05370  0.70690  0.49910  Biso   1.000  H
  H651     1.0000 0.94630  0.65320  0.50090  Biso   1.000  H
  H652     1.0000 0.29310  0.34680  0.49910  Biso   1.000  H
  H653     1.0000 0.34680  0.29310  0.50090  Biso   1.000  H
  H654     1.0000 0.70690  0.05370  0.50090  Biso   1.000  H
  H655     1.0000 0.98653  0.61297  0.16577  Biso   1.000  H
  H656     1.0000 0.38703  0.37357  0.16577  Biso   1.000  H
  H657     1.0000 0.27963  0.31987  0.16757  Biso   1.000  H
  H658     1.0000 0.62643  0.01347  0.16577  Biso   1.000  H
  H659     1.0000 0.68013  0.95977  0.16757  Biso   1.000  H
  H660     1.0000 0.04023  0.72037  0.16757  Biso   1.000  H
  H661     1.0000 0.31987  0.27963  0.83243  Biso   1.000  H
  H662     1.0000 0.72037  0.04023  0.83243  Biso   1.000  H
  H663     1.0000 0.61297  0.98653  0.83423  Biso   1.000  H
  H664     1.0000 0.95977  0.68013  0.83243  Biso   1.000  H
  H665     1.0000 0.01347  0.62643  0.83423  Biso   1.000  H
  H666     1.0000 0.37357  0.38703  0.83423  Biso   1.000  H
  C883     1.0000 0.65770  0.89200  0.47480  Biso   1.000  C
  C884     1.0000 0.10800  0.76570  0.47480  Biso   1.000  C
  C885     1.0000 0.89200  0.65770  0.52520  Biso   1.000  C
  C886     1.0000 0.23430  0.34230  0.47480  Biso   1.000  C
  C887     1.0000 0.34230  0.23430  0.52520  Biso   1.000  C
  C888     1.0000 0.76570  0.10800  0.52520  Biso   1.000  C
  C889     1.0000 0.99103  0.55867  0.14147  Biso   1.000  C
  C890     1.0000 0.44133  0.43237  0.14147  Biso   1.000  C
  C891     1.0000 0.22533  0.32437  0.19187  Biso   1.000  C
  C892     1.0000 0.56763  0.00897  0.14147  Biso   1.000  C
  C893     1.0000 0.67563  0.90097  0.19187  Biso   1.000  C
  C894     1.0000 0.09903  0.77467  0.19187  Biso   1.000  C
  C895     1.0000 0.32437  0.22533  0.80813  Biso   1.000  C
  C896     1.0000 0.77467  0.09903  0.80813  Biso   1.000  C
  C897     1.0000 0.55867  0.99103  0.85853  Biso   1.000  C
  C898     1.0000 0.90097  0.67563  0.80813  Biso   1.000  C
  C899     1.0000 0.00897  0.56763  0.85853  Biso   1.000  C
  C900     1.0000 0.43237  0.44133  0.85853  Biso   1.000  C
  H667     1.0000 0.61830  0.86800  0.47500  Biso   1.000  H
  H668     1.0000 0.13200  0.75030  0.47500  Biso   1.000  H
  H669     1.0000 0.86800  0.61830  0.52500  Biso   1.000  H
  H670     1.0000 0.24970  0.38170  0.47500  Biso   1.000  H
  H671     1.0000 0.38170  0.24970  0.52500  Biso   1.000  H
  H672     1.0000 0.75030  0.13200  0.52500  Biso   1.000  H
  H673     1.0000 0.95163  0.53467  0.14167  Biso   1.000  H
  H674     1.0000 0.46533  0.41697  0.14167  Biso   1.000  H
  H675     1.0000 0.20133  0.28497  0.19167  Biso   1.000  H
  H676     1.0000 0.58303  0.04837  0.14167  Biso   1.000  H
  H677     1.0000 0.71503  0.91637  0.19167  Biso   1.000  H
  H678     1.0000 0.08363  0.79867  0.19167  Biso   1.000  H
  H679     1.0000 0.28497  0.20133  0.80833  Biso   1.000  H
  H680     1.0000 0.79867  0.08363  0.80833  Biso   1.000  H
  H681     1.0000 0.53467  0.95163  0.85833  Biso   1.000  H
  H682     1.0000 0.91637  0.71503  0.80833  Biso   1.000  H
  H683     1.0000 0.04837  0.58303  0.85833  Biso   1.000  H
  H684     1.0000 0.41697  0.46533  0.85833  Biso   1.000  H
  N145     1.0000 0.51000  0.29600  0.46190  Biso   1.000  N
  N146     1.0000 0.70400  0.21400  0.46190  Biso   1.000  N
  N147     1.0000 0.29600  0.51000  0.53810  Biso   1.000  N
  N148     1.0000 0.78600  0.49000  0.46190  Biso   1.000  N
  N149     1.0000 0.49000  0.78600  0.53810  Biso   1.000  N
  N150     1.0000 0.21400  0.70400  0.53810  Biso   1.000  N
  N151     1.0000 0.84333  0.96267  0.12857  Biso   1.000  N
  N152     1.0000 0.03733  0.88067  0.12857  Biso   1.000  N
  N153     1.0000 0.62933  0.17667  0.20477  Biso   1.000  N
  N154     1.0000 0.11933  0.15667  0.12857  Biso   1.000  N
  N155     1.0000 0.82333  0.45267  0.20477  Biso   1.000  N
  N156     1.0000 0.54733  0.37067  0.20477  Biso   1.000  N
  N157     1.0000 0.17667  0.62933  0.79523  Biso   1.000  N
  N158     1.0000 0.37067  0.54733  0.79523  Biso   1.000  N
  N159     1.0000 0.96267  0.84333  0.87143  Biso   1.000  N
  N160     1.0000 0.45267  0.82333  0.79523  Biso   1.000  N
  N161     1.0000 0.15667  0.11933  0.87143  Biso   1.000  N
  N162     1.0000 0.88067  0.03733  0.87143  Biso   1.000  N
  O145     1.0000 0.46900  0.33400  0.48170  Biso   1.000  O
  O146     1.0000 0.66600  0.13500  0.48170  Biso   1.000  O
  O147     1.0000 0.33400  0.46900  0.51830  Biso   1.000  O
  O148     1.0000 0.86500  0.53100  0.48170  Biso   1.000  O
  O149     1.0000 0.53100  0.86500  0.51830  Biso   1.000  O
  O150     1.0000 0.13500  0.66600  0.51830  Biso   1.000  O
  O151     1.0000 0.80233  0.00067  0.14837  Biso   1.000  O
  O152     1.0000 0.99933  0.80167  0.14837  Biso   1.000  O
  O153     1.0000 0.66733  0.13567  0.18497  Biso   1.000  O
  O154     1.0000 0.19833  0.19767  0.14837  Biso   1.000  O
  O155     1.0000 0.86433  0.53167  0.18497  Biso   1.000  O
  O156     1.0000 0.46833  0.33267  0.18497  Biso   1.000  O
  O157     1.0000 0.13567  0.66733  0.81503  Biso   1.000  O
  O158     1.0000 0.33267  0.46833  0.81503  Biso   1.000  O
  O159     1.0000 0.00067  0.80233  0.85163  Biso   1.000  O
  O160     1.0000 0.53167  0.86433  0.81503  Biso   1.000  O
  O161     1.0000 0.19767  0.19833  0.85163  Biso   1.000  O
  O162     1.0000 0.80167  0.99933  0.85163  Biso   1.000  O
  C901     1.0000 0.46000  0.29400  0.46700  Biso   1.000  C
  C902     1.0000 0.70600  0.16600  0.46700  Biso   1.000  C
  C903     1.0000 0.29400  0.46000  0.53300  Biso   1.000  C
  C904     1.0000 0.83400  0.54000  0.46700  Biso   1.000  C
  C905     1.0000 0.54000  0.83400  0.53300  Biso   1.000  C
  C906     1.0000 0.16600  0.70600  0.53300  Biso   1.000  C
  C907     1.0000 0.79333  0.96067  0.13367  Biso   1.000  C
  C908     1.0000 0.03933  0.83267  0.13367  Biso   1.000  C
  C909     1.0000 0.62733  0.12667  0.19967  Biso   1.000  C
  C910     1.0000 0.16733  0.20667  0.13367  Biso   1.000  C
  C911     1.0000 0.87333  0.50067  0.19967  Biso   1.000  C
  C912     1.0000 0.49933  0.37267  0.19967  Biso   1.000  C
  C913     1.0000 0.12667  0.62733  0.80033  Biso   1.000  C
  C914     1.0000 0.37267  0.49933  0.80033  Biso   1.000  C
  C915     1.0000 0.96067  0.79333  0.86633  Biso   1.000  C
  C916     1.0000 0.50067  0.87333  0.80033  Biso   1.000  C
  C917     1.0000 0.20667  0.16733  0.86633  Biso   1.000  C
  C918     1.0000 0.83267  0.03933  0.86633  Biso   1.000  C
  H685     1.0000 0.42510  0.26630  0.46030  Biso   1.000  H
  H686     1.0000 0.73370  0.15880  0.46030  Biso   1.000  H
  H687     1.0000 0.26630  0.42510  0.53970  Biso   1.000  H
  H688     1.0000 0.84120  0.57490  0.46030  Biso   1.000  H
  H689     1.0000 0.57490  0.84120  0.53970  Biso   1.000  H
  H690     1.0000 0.15880  0.73370  0.53970  Biso   1.000  H
  H691     1.0000 0.75843  0.93297  0.12697  Biso   1.000  H
  H692     1.0000 0.06703  0.82547  0.12697  Biso   1.000  H
  H693     1.0000 0.59963  0.09177  0.20637  Biso   1.000  H
  H694     1.0000 0.17453  0.24157  0.12697  Biso   1.000  H
  H695     1.0000 0.90823  0.50787  0.20637  Biso   1.000  H
  H696     1.0000 0.49213  0.40037  0.20637  Biso   1.000  H
  H697     1.0000 0.09177  0.59963  0.79363  Biso   1.000  H
  H698     1.0000 0.40037  0.49213  0.79363  Biso   1.000  H
  H699     1.0000 0.93297  0.75843  0.87303  Biso   1.000  H
  H700     1.0000 0.50787  0.90823  0.79363  Biso   1.000  H
  H701     1.0000 0.24157  0.17453  0.87303  Biso   1.000  H
  H702     1.0000 0.82547  0.06703  0.87303  Biso   1.000  H
  C919     1.0000 0.51600  0.25600  0.44490  Biso   1.000  C
  C920     1.0000 0.74400  0.26000  0.44490  Biso   1.000  C
  C921     1.0000 0.25600  0.51600  0.55510  Biso   1.000  C
  C922     1.0000 0.74000  0.48400  0.44490  Biso   1.000  C
  C923     1.0000 0.48400  0.74000  0.55510  Biso   1.000  C
  C924     1.0000 0.26000  0.74400  0.55510  Biso   1.000  C
  C925     1.0000 0.84933  0.92267  0.11157  Biso   1.000  C
  C926     1.0000 0.07733  0.92667  0.11157  Biso   1.000  C
  C927     1.0000 0.58933  0.18267  0.22177  Biso   1.000  C
  C928     1.0000 0.07333  0.15067  0.11157  Biso   1.000  C
  C929     1.0000 0.81733  0.40667  0.22177  Biso   1.000  C
  C930     1.0000 0.59333  0.41067  0.22177  Biso   1.000  C
  C931     1.0000 0.18267  0.58933  0.77823  Biso   1.000  C
  C932     1.0000 0.41067  0.59333  0.77823  Biso   1.000  C
  C933     1.0000 0.92267  0.84933  0.88843  Biso   1.000  C
  C934     1.0000 0.40667  0.81733  0.77823  Biso   1.000  C
  C935     1.0000 0.15067  0.07333  0.88843  Biso   1.000  C
  C936     1.0000 0.92667  0.07733  0.88843  Biso   1.000  C
  H703     1.0000 0.55590  0.26620  0.44420  Biso   1.000  H
  H704     1.0000 0.73380  0.28970  0.44420  Biso   1.000  H
  H705     1.0000 0.26620  0.55590  0.55580  Biso   1.000  H
  H706     1.0000 0.71030  0.44410  0.44420  Biso   1.000  H
  H707     1.0000 0.44410  0.71030  0.55580  Biso   1.000  H
  H708     1.0000 0.28970  0.73380  0.55580  Biso   1.000  H
  H709     1.0000 0.88923  0.93287  0.11087  Biso   1.000  H
  H710     1.0000 0.06713  0.95637  0.11087  Biso   1.000  H
  H711     1.0000 0.59953  0.22257  0.22247  Biso   1.000  H
  H712     1.0000 0.04363  0.11077  0.11087  Biso   1.000  H
  H713     1.0000 0.77743  0.37697  0.22247  Biso   1.000  H
  H714     1.0000 0.62303  0.40047  0.22247  Biso   1.000  H
  H715     1.0000 0.22257  0.59953  0.77753  Biso   1.000  H
  H716     1.0000 0.40047  0.62303  0.77753  Biso   1.000  H
  H717     1.0000 0.93287  0.88923  0.88913  Biso   1.000  H
  H718     1.0000 0.37697  0.77743  0.77753  Biso   1.000  H
  H719     1.0000 0.11077  0.04363  0.88913  Biso   1.000  H
  H720     1.0000 0.95637  0.06713  0.88913  Biso   1.000  H
  H721     1.0000 0.50310  0.25620  0.42710  Biso   1.000  H
  H722     1.0000 0.74380  0.24690  0.42710  Biso   1.000  H
  H723     1.0000 0.25620  0.50310  0.57290  Biso   1.000  H
  H724     1.0000 0.75310  0.49690  0.42710  Biso   1.000  H
  H725     1.0000 0.49690  0.75310  0.57290  Biso   1.000  H
  H726     1.0000 0.24690  0.74380  0.57290  Biso   1.000  H
  H727     1.0000 0.83643  0.92287  0.09377  Biso   1.000  H
  H728     1.0000 0.07713  0.91357  0.09377  Biso   1.000  H
  H729     1.0000 0.58953  0.16977  0.23957  Biso   1.000  H
  H730     1.0000 0.08643  0.16357  0.09377  Biso   1.000  H
  H731     1.0000 0.83023  0.41977  0.23957  Biso   1.000  H
  H732     1.0000 0.58023  0.41047  0.23957  Biso   1.000  H
  H733     1.0000 0.16977  0.58953  0.76043  Biso   1.000  H
  H734     1.0000 0.41047  0.58023  0.76043  Biso   1.000  H
  H735     1.0000 0.92287  0.83643  0.90623  Biso   1.000  H
  H736     1.0000 0.41977  0.83023  0.76043  Biso   1.000  H
  H737     1.0000 0.16357  0.08643  0.90623  Biso   1.000  H
  H738     1.0000 0.91357  0.07713  0.90623  Biso   1.000  H
  H739     1.0000 0.49460  0.21810  0.45230  Biso   1.000  H
  H740     1.0000 0.78190  0.27650  0.45230  Biso   1.000  H
  H741     1.0000 0.21810  0.49460  0.54770  Biso   1.000  H
  H742     1.0000 0.72350  0.50540  0.45230  Biso   1.000  H
  H743     1.0000 0.50540  0.72350  0.54770  Biso   1.000  H
  H744     1.0000 0.27650  0.78190  0.54770  Biso   1.000  H
  H745     1.0000 0.82793  0.88477  0.11897  Biso   1.000  H
  H746     1.0000 0.11523  0.94317  0.11897  Biso   1.000  H
  H747     1.0000 0.55143  0.16127  0.21437  Biso   1.000  H
  H748     1.0000 0.05683  0.17207  0.11897  Biso   1.000  H
  H749     1.0000 0.83873  0.39017  0.21437  Biso   1.000  H
  H750     1.0000 0.60983  0.44857  0.21437  Biso   1.000  H
  H751     1.0000 0.16127  0.55143  0.78563  Biso   1.000  H
  H752     1.0000 0.44857  0.60983  0.78563  Biso   1.000  H
  H753     1.0000 0.88477  0.82793  0.88103  Biso   1.000  H
  H754     1.0000 0.39017  0.83873  0.78563  Biso   1.000  H
  H755     1.0000 0.17207  0.05683  0.88103  Biso   1.000  H
  H756     1.0000 0.94317  0.11523  0.88103  Biso   1.000  H
  C937     1.0000 0.56300  0.34200  0.47370  Biso   1.000  C
  C938     1.0000 0.65800  0.22100  0.47370  Biso   1.000  C
  C939     1.0000 0.34200  0.56300  0.52630  Biso   1.000  C
  C940     1.0000 0.77900  0.43700  0.47370  Biso   1.000  C
  C941     1.0000 0.43700  0.77900  0.52630  Biso   1.000  C
  C942     1.0000 0.22100  0.65800  0.52630  Biso   1.000  C
  C943     1.0000 0.89633  0.00867  0.14037  Biso   1.000  C
  C944     1.0000 0.99133  0.88767  0.14037  Biso   1.000  C
  C945     1.0000 0.67533  0.22967  0.19297  Biso   1.000  C
  C946     1.0000 0.11233  0.10367  0.14037  Biso   1.000  C
  C947     1.0000 0.77033  0.44567  0.19297  Biso   1.000  C
  C948     1.0000 0.55433  0.32467  0.19297  Biso   1.000  C
  C949     1.0000 0.22967  0.67533  0.80703  Biso   1.000  C
  C950     1.0000 0.32467  0.55433  0.80703  Biso   1.000  C
  C951     1.0000 0.00867  0.89633  0.85963  Biso   1.000  C
  C952     1.0000 0.44567  0.77033  0.80703  Biso   1.000  C
  C953     1.0000 0.10367  0.11233  0.85963  Biso   1.000  C
  C954     1.0000 0.88767  0.99133  0.85963  Biso   1.000  C
  H757     1.0000 0.55490  0.36790  0.48340  Biso   1.000  H
  H758     1.0000 0.63210  0.18700  0.48340  Biso   1.000  H
  H759     1.0000 0.36790  0.55490  0.51660  Biso   1.000  H
  H760     1.0000 0.81300  0.44510  0.48340  Biso   1.000  H
  H761     1.0000 0.44510  0.81300  0.51660  Biso   1.000  H
  H762     1.0000 0.18700  0.63210  0.51660  Biso   1.000  H
  H763     1.0000 0.88823  0.03457  0.15007  Biso   1.000  H
  H764     1.0000 0.96543  0.85367  0.15007  Biso   1.000  H
  H765     1.0000 0.70123  0.22157  0.18327  Biso   1.000  H
  H766     1.0000 0.14633  0.11177  0.15007  Biso   1.000  H
  H767     1.0000 0.77843  0.47967  0.18327  Biso   1.000  H
  H768     1.0000 0.52033  0.29877  0.18327  Biso   1.000  H
  H769     1.0000 0.22157  0.70123  0.81673  Biso   1.000  H
  H770     1.0000 0.29877  0.52033  0.81673  Biso   1.000  H
  H771     1.0000 0.03457  0.88823  0.84993  Biso   1.000  H
  H772     1.0000 0.47967  0.77843  0.81673  Biso   1.000  H
  H773     1.0000 0.11177  0.14633  0.84993  Biso   1.000  H
  H774     1.0000 0.85367  0.96543  0.84993  Biso   1.000  H
  H775     1.0000 0.58980  0.36270  0.45960  Biso   1.000  H
  H776     1.0000 0.63730  0.22710  0.45960  Biso   1.000  H
  H777     1.0000 0.36270  0.58980  0.54040  Biso   1.000  H
  H778     1.0000 0.77290  0.41020  0.45960  Biso   1.000  H
  H779     1.0000 0.41020  0.77290  0.54040  Biso   1.000  H
  H780     1.0000 0.22710  0.63730  0.54040  Biso   1.000  H
  H781     1.0000 0.92313  0.02937  0.12627  Biso   1.000  H
  H782     1.0000 0.97063  0.89377  0.12627  Biso   1.000  H
  H783     1.0000 0.69603  0.25647  0.20707  Biso   1.000  H
  H784     1.0000 0.10623  0.07687  0.12627  Biso   1.000  H
  H785     1.0000 0.74353  0.43957  0.20707  Biso   1.000  H
  H786     1.0000 0.56043  0.30397  0.20707  Biso   1.000  H
  H787     1.0000 0.25647  0.69603  0.79293  Biso   1.000  H
  H788     1.0000 0.30397  0.56043  0.79293  Biso   1.000  H
  H789     1.0000 0.02937  0.92313  0.87373  Biso   1.000  H
  H790     1.0000 0.43957  0.74353  0.79293  Biso   1.000  H
  H791     1.0000 0.07687  0.10623  0.87373  Biso   1.000  H
  H792     1.0000 0.89377  0.97063  0.87373  Biso   1.000  H
  H793     1.0000 0.57910  0.32620  0.48570  Biso   1.000  H
  H794     1.0000 0.67380  0.25290  0.48570  Biso   1.000  H
  H795     1.0000 0.32620  0.57910  0.51430  Biso   1.000  H
  H796     1.0000 0.74710  0.42090  0.48570  Biso   1.000  H
  H797     1.0000 0.42090  0.74710  0.51430  Biso   1.000  H
  H798     1.0000 0.25290  0.67380  0.51430  Biso   1.000  H
  H799     1.0000 0.91243  0.99287  0.15237  Biso   1.000  H
  H800     1.0000 0.00713  0.91957  0.15237  Biso   1.000  H
  H801     1.0000 0.65953  0.24577  0.18097  Biso   1.000  H
  H802     1.0000 0.08043  0.08757  0.15237  Biso   1.000  H
  H803     1.0000 0.75423  0.41377  0.18097  Biso   1.000  H
  H804     1.0000 0.58623  0.34047  0.18097  Biso   1.000  H
  H805     1.0000 0.24577  0.65953  0.81903  Biso   1.000  H
  H806     1.0000 0.34047  0.58623  0.81903  Biso   1.000  H
  H807     1.0000 0.99287  0.91243  0.84763  Biso   1.000  H
  H808     1.0000 0.41377  0.75423  0.81903  Biso   1.000  H
  H809     1.0000 0.08757  0.08043  0.84763  Biso   1.000  H
  H810     1.0000 0.91957  0.00713  0.84763  Biso   1.000  H
  O163     1.0000 0.33330  0.06360  0.66670  Biso   1.000  O
  O164     1.0000 0.93640  0.26970  0.66670  Biso   1.000  O
  O165     1.0000 0.06360  0.33330  0.33330  Biso   1.000  O
  O166     1.0000 0.73030  0.66670  0.66670  Biso   1.000  O
  O167     1.0000 0.66670  0.73030  0.33330  Biso   1.000  O
  O168     1.0000 0.26970  0.93640  0.33330  Biso   1.000  O
  O169     1.0000 0.39693  0.99997  0.99997  Biso   1.000  O
  O170     1.0000 0.00003  0.39697  0.99997  Biso   1.000  O
  O171     1.0000 0.60303  0.60307  0.99997  Biso   1.000  O
  C955     1.0000 0.37800  0.11800  0.65780  Biso   1.000  C
  C956     1.0000 0.88200  0.26000  0.65780  Biso   1.000  C
  C957     1.0000 0.11800  0.37800  0.34220  Biso   1.000  C
  C958     1.0000 0.74000  0.62200  0.65780  Biso   1.000  C
  C959     1.0000 0.62200  0.74000  0.34220  Biso   1.000  C
  C960     1.0000 0.26000  0.88200  0.34220  Biso   1.000  C
  C961     1.0000 0.71133  0.78467  0.32447  Biso   1.000  C
  C962     1.0000 0.21533  0.92667  0.32447  Biso   1.000  C
  C963     1.0000 0.45133  0.04467  0.00887  Biso   1.000  C
  C964     1.0000 0.07333  0.28867  0.32447  Biso   1.000  C
  C965     1.0000 0.95533  0.40667  0.00887  Biso   1.000  C
  C966     1.0000 0.59333  0.54867  0.00887  Biso   1.000  C
  C967     1.0000 0.04467  0.45133  0.99113  Biso   1.000  C
  C968     1.0000 0.54867  0.59333  0.99113  Biso   1.000  C
  C969     1.0000 0.78467  0.71133  0.67553  Biso   1.000  C
  C970     1.0000 0.40667  0.95533  0.99113  Biso   1.000  C
  C971     1.0000 0.28867  0.07333  0.67553  Biso   1.000  C
  C972     1.0000 0.92667  0.21533  0.67553  Biso   1.000  C
  H811     1.0000 0.39380  0.11440  0.64090  Biso   1.000  H
  H812     1.0000 0.88560  0.27940  0.64090  Biso   1.000  H
  H813     1.0000 0.11440  0.39380  0.35910  Biso   1.000  H
  H814     1.0000 0.72060  0.60620  0.64090  Biso   1.000  H
  H815     1.0000 0.60620  0.72060  0.35910  Biso   1.000  H
  H816     1.0000 0.27940  0.88560  0.35910  Biso   1.000  H
  H817     1.0000 0.72713  0.78107  0.30757  Biso   1.000  H
  H818     1.0000 0.21893  0.94607  0.30757  Biso   1.000  H
  H819     1.0000 0.44773  0.06047  0.02577  Biso   1.000  H
  H820     1.0000 0.05393  0.27287  0.30757  Biso   1.000  H
  H821     1.0000 0.93953  0.38727  0.02577  Biso   1.000  H
  H822     1.0000 0.61273  0.55227  0.02577  Biso   1.000  H
  H823     1.0000 0.06047  0.44773  0.97423  Biso   1.000  H
  H824     1.0000 0.55227  0.61273  0.97423  Biso   1.000  H
  H825     1.0000 0.78107  0.72713  0.69243  Biso   1.000  H
  H826     1.0000 0.38727  0.93953  0.97423  Biso   1.000  H
  H827     1.0000 0.27287  0.05393  0.69243  Biso   1.000  H
  H828     1.0000 0.94607  0.21893  0.69243  Biso   1.000  H
  H829     1.0000 0.40850  0.13440  0.67100  Biso   1.000  H
  H830     1.0000 0.86560  0.27410  0.67100  Biso   1.000  H
  H831     1.0000 0.13440  0.40850  0.32900  Biso   1.000  H
  H832     1.0000 0.72590  0.59150  0.67100  Biso   1.000  H
  H833     1.0000 0.59150  0.72590  0.32900  Biso   1.000  H
  H834     1.0000 0.27410  0.86560  0.32900  Biso   1.000  H
  H835     1.0000 0.74183  0.80107  0.33767  Biso   1.000  H
  H836     1.0000 0.19893  0.94077  0.33767  Biso   1.000  H
  H837     1.0000 0.46773  0.07517  0.99567  Biso   1.000  H
  H838     1.0000 0.05923  0.25817  0.33767  Biso   1.000  H
  H839     1.0000 0.92483  0.39257  0.99567  Biso   1.000  H
  H840     1.0000 0.60743  0.53227  0.99567  Biso   1.000  H
  H841     1.0000 0.07517  0.46773  0.00433  Biso   1.000  H
  H842     1.0000 0.53227  0.60743  0.00433  Biso   1.000  H
  H843     1.0000 0.80107  0.74183  0.66233  Biso   1.000  H
  H844     1.0000 0.39257  0.92483  0.00433  Biso   1.000  H
  H845     1.0000 0.25817  0.05923  0.66233  Biso   1.000  H
  H846     1.0000 0.94077  0.19893  0.66233  Biso   1.000  H
  C973     1.0000 0.35200  0.15800  0.65400  Biso   1.000  C
  C974     1.0000 0.84200  0.19400  0.65400  Biso   1.000  C
  C975     1.0000 0.15800  0.35200  0.34600  Biso   1.000  C
  C976     1.0000 0.80600  0.64800  0.65400  Biso   1.000  C
  C977     1.0000 0.64800  0.80600  0.34600  Biso   1.000  C
  C978     1.0000 0.19400  0.84200  0.34600  Biso   1.000  C
  C979     1.0000 0.68533  0.82467  0.32067  Biso   1.000  C
  C980     1.0000 0.17533  0.86067  0.32067  Biso   1.000  C
  C981     1.0000 0.49133  0.01867  0.01267  Biso   1.000  C
  C982     1.0000 0.13933  0.31467  0.32067  Biso   1.000  C
  C983     1.0000 0.98133  0.47267  0.01267  Biso   1.000  C
  C984     1.0000 0.52733  0.50867  0.01267  Biso   1.000  C
  C985     1.0000 0.01867  0.49133  0.98733  Biso   1.000  C
  C986     1.0000 0.50867  0.52733  0.98733  Biso   1.000  C
  C987     1.0000 0.82467  0.68533  0.67933  Biso   1.000  C
  C988     1.0000 0.47267  0.98133  0.98733  Biso   1.000  C
  C989     1.0000 0.31467  0.13933  0.67933  Biso   1.000  C
  C990     1.0000 0.86067  0.17533  0.67933  Biso   1.000  C
  H847     1.0000 0.38110  0.19760  0.65460  Biso   1.000  H
  H848     1.0000 0.80240  0.18350  0.65460  Biso   1.000  H
  H849     1.0000 0.19760  0.38110  0.34540  Biso   1.000  H
  H850     1.0000 0.81650  0.61890  0.65460  Biso   1.000  H
  H851     1.0000 0.61890  0.81650  0.34540  Biso   1.000  H
  H852     1.0000 0.18350  0.80240  0.34540  Biso   1.000  H
  H853     1.0000 0.71443  0.86427  0.32127  Biso   1.000  H
  H854     1.0000 0.13573  0.85017  0.32127  Biso   1.000  H
  H855     1.0000 0.53093  0.04777  0.01207  Biso   1.000  H
  H856     1.0000 0.14983  0.28557  0.32127  Biso   1.000  H
  H857     1.0000 0.95223  0.48317  0.01207  Biso   1.000  H
  H858     1.0000 0.51683  0.46907  0.01207  Biso   1.000  H
  H859     1.0000 0.04777  0.53093  0.98793  Biso   1.000  H
  H860     1.0000 0.46907  0.51683  0.98793  Biso   1.000  H
  H861     1.0000 0.86427  0.71443  0.67873  Biso   1.000  H
  H862     1.0000 0.48317  0.95223  0.98793  Biso   1.000  H
  H863     1.0000 0.28557  0.14983  0.67873  Biso   1.000  H
  H864     1.0000 0.85017  0.13573  0.67873  Biso   1.000  H
  H865     1.0000 0.33040  0.14930  0.63760  Biso   1.000  H
  H866     1.0000 0.85070  0.18110  0.63760  Biso   1.000  H
  H867     1.0000 0.14930  0.33040  0.36240  Biso   1.000  H
  H868     1.0000 0.81890  0.66960  0.63760  Biso   1.000  H
  H869     1.0000 0.66960  0.81890  0.36240  Biso   1.000  H
  H870     1.0000 0.18110  0.85070  0.36240  Biso   1.000  H
  H871     1.0000 0.66373  0.81597  0.30427  Biso   1.000  H
  H872     1.0000 0.18403  0.84777  0.30427  Biso   1.000  H
  H873     1.0000 0.48263  0.99707  0.02907  Biso   1.000  H
  H874     1.0000 0.15223  0.33627  0.30427  Biso   1.000  H
  H875     1.0000 0.00293  0.48557  0.02907  Biso   1.000  H
  H876     1.0000 0.51443  0.51737  0.02907  Biso   1.000  H
  H877     1.0000 0.99707  0.48263  0.97093  Biso   1.000  H
  H878     1.0000 0.51737  0.51443  0.97093  Biso   1.000  H
  H879     1.0000 0.81597  0.66373  0.69573  Biso   1.000  H
  H880     1.0000 0.48557  0.00293  0.97093  Biso   1.000  H
  H881     1.0000 0.33627  0.15223  0.69573  Biso   1.000  H
  H882     1.0000 0.84777  0.18403  0.69573  Biso   1.000  H
  N163     1.0000 0.61700  0.37100  0.54100  Biso   1.000  N
  N164     1.0000 0.62900  0.24600  0.54100  Biso   1.000  N
  N165     1.0000 0.37100  0.61700  0.45900  Biso   1.000  N
  N166     1.0000 0.75400  0.38300  0.54100  Biso   1.000  N
  N167     1.0000 0.38300  0.75400  0.45900  Biso   1.000  N
  N168     1.0000 0.24600  0.62900  0.45900  Biso   1.000  N
  N169     1.0000 0.95033  0.03767  0.20767  Biso   1.000  N
  N170     1.0000 0.96233  0.91267  0.20767  Biso   1.000  N
  N171     1.0000 0.70433  0.28367  0.12567  Biso   1.000  N
  N172     1.0000 0.08733  0.04967  0.20767  Biso   1.000  N
  N173     1.0000 0.71633  0.42067  0.12567  Biso   1.000  N
  N174     1.0000 0.57933  0.29567  0.12567  Biso   1.000  N
  N175     1.0000 0.28367  0.70433  0.87433  Biso   1.000  N
  N176     1.0000 0.29567  0.57933  0.87433  Biso   1.000  N
  N177     1.0000 0.03767  0.95033  0.79233  Biso   1.000  N
  N178     1.0000 0.42067  0.71633  0.87433  Biso   1.000  N
  N179     1.0000 0.04967  0.08733  0.79233  Biso   1.000  N
  N180     1.0000 0.91267  0.96233  0.79233  Biso   1.000  N
  N181     1.0000 0.60000  0.30000  0.33000  Biso   1.000  N
  N182     1.0000 0.70000  0.30000  0.33000  Biso   1.000  N
  N183     1.0000 0.30000  0.60000  0.67000  Biso   1.000  N
  N184     1.0000 0.70000  0.40000  0.33000  Biso   1.000  N
  N185     1.0000 0.40000  0.70000  0.67000  Biso   1.000  N
  N186     1.0000 0.30000  0.70000  0.67000  Biso   1.000  N
  N187     1.0000 0.93333  0.96667  0.99667  Biso   1.000  N
  N188     1.0000 0.03333  0.96667  0.99667  Biso   1.000  N
  N189     1.0000 0.63333  0.26667  0.33667  Biso   1.000  N
  N190     1.0000 0.03333  0.06667  0.99667  Biso   1.000  N
  N191     1.0000 0.73333  0.36667  0.33667  Biso   1.000  N
  N192     1.0000 0.63333  0.36667  0.33667  Biso   1.000  N
  N193     1.0000 0.26667  0.63333  0.66333  Biso   1.000  N
  N194     1.0000 0.36667  0.63333  0.66333  Biso   1.000  N
  N195     1.0000 0.96667  0.93333  0.00333  Biso   1.000  N
  N196     1.0000 0.36667  0.73333  0.66333  Biso   1.000  N
  N197     1.0000 0.06667  0.03333  0.00333  Biso   1.000  N
  N198     1.0000 0.96667  0.03333  0.00333  Biso   1.000  N
  N199     1.0000 0.54000  0.16000  0.70200  Biso   1.000  N
  N200     1.0000 0.84000  0.38000  0.70200  Biso   1.000  N
  N201     1.0000 0.16000  0.54000  0.29800  Biso   1.000  N
  N202     1.0000 0.62000  0.46000  0.70200  Biso   1.000  N
  N203     1.0000 0.46000  0.62000  0.29800  Biso   1.000  N
  N204     1.0000 0.38000  0.84000  0.29800  Biso   1.000  N
  N205     1.0000 0.87333  0.82667  0.36867  Biso   1.000  N
  N206     1.0000 0.17333  0.04667  0.36867  Biso   1.000  N
  N207     1.0000 0.49333  0.20667  0.96467  Biso   1.000  N
  N208     1.0000 0.95333  0.12667  0.36867  Biso   1.000  N
  N209     1.0000 0.79333  0.28667  0.96467  Biso   1.000  N
  N210     1.0000 0.71333  0.50667  0.96467  Biso   1.000  N
  N211     1.0000 0.20667  0.49333  0.03533  Biso   1.000  N
  N212     1.0000 0.50667  0.71333  0.03533  Biso   1.000  N
  N213     1.0000 0.82667  0.87333  0.63133  Biso   1.000  N
  N214     1.0000 0.28667  0.79333  0.03533  Biso   1.000  N
  N215     1.0000 0.12667  0.95333  0.63133  Biso   1.000  N
  N216     1.0000 0.04667  0.17333  0.63133  Biso   1.000  N
  N217     1.0000 0.52000  0.16000  0.69000  Biso   1.000  N
  N218     1.0000 0.84000  0.36000  0.69000  Biso   1.000  N
  N219     1.0000 0.16000  0.52000  0.31000  Biso   1.000  N
  N220     1.0000 0.64000  0.48000  0.69000  Biso   1.000  N
  N221     1.0000 0.48000  0.64000  0.31000  Biso   1.000  N
  N222     1.0000 0.36000  0.84000  0.31000  Biso   1.000  N
  N223     1.0000 0.85333  0.82667  0.35667  Biso   1.000  N
  N224     1.0000 0.17333  0.02667  0.35667  Biso   1.000  N
  N225     1.0000 0.49333  0.18667  0.97667  Biso   1.000  N
  N226     1.0000 0.97333  0.14667  0.35667  Biso   1.000  N
  N227     1.0000 0.81333  0.30667  0.97667  Biso   1.000  N
  N228     1.0000 0.69333  0.50667  0.97667  Biso   1.000  N
  N229     1.0000 0.18667  0.49333  0.02333  Biso   1.000  N
  N230     1.0000 0.50667  0.69333  0.02333  Biso   1.000  N
  N231     1.0000 0.82667  0.85333  0.64333  Biso   1.000  N
  N232     1.0000 0.30667  0.81333  0.02333  Biso   1.000  N
  N233     1.0000 0.14667  0.97333  0.64333  Biso   1.000  N
  N234     1.0000 0.02667  0.17333  0.64333  Biso   1.000  N
  O172     1.0000 0.62600  0.35000  0.58000  Biso   1.000  O
  O173     1.0000 0.65000  0.27600  0.58000  Biso   1.000  O
  O174     1.0000 0.35000  0.62600  0.42000  Biso   1.000  O
  O175     1.0000 0.72400  0.37400  0.58000  Biso   1.000  O
  O176     1.0000 0.37400  0.72400  0.42000  Biso   1.000  O
  O177     1.0000 0.27600  0.65000  0.42000  Biso   1.000  O
  O178     1.0000 0.95933  0.01667  0.24667  Biso   1.000  O
  O179     1.0000 0.98333  0.94267  0.24667  Biso   1.000  O
  O180     1.0000 0.68333  0.29267  0.08667  Biso   1.000  O
  O181     1.0000 0.05733  0.04067  0.24667  Biso   1.000  O
  O182     1.0000 0.70733  0.39067  0.08667  Biso   1.000  O
  O183     1.0000 0.60933  0.31667  0.08667  Biso   1.000  O
  O184     1.0000 0.29267  0.68333  0.91333  Biso   1.000  O
  O185     1.0000 0.31667  0.60933  0.91333  Biso   1.000  O
  O186     1.0000 0.01667  0.95933  0.75333  Biso   1.000  O
  O187     1.0000 0.39067  0.70733  0.91333  Biso   1.000  O
  O188     1.0000 0.04067  0.05733  0.75333  Biso   1.000  O
  O189     1.0000 0.94267  0.98333  0.75333  Biso   1.000  O
  O190     1.0000 0.66670  0.40000  0.33330  Biso   1.000  O
  O191     1.0000 0.60000  0.26670  0.33330  Biso   1.000  O
  O192     1.0000 0.40000  0.66670  0.66670  Biso   1.000  O
  O193     1.0000 0.73330  0.33330  0.33330  Biso   1.000  O
  O194     1.0000 0.33330  0.73330  0.66670  Biso   1.000  O
  O195     1.0000 0.26670  0.60000  0.66670  Biso   1.000  O
  O196     1.0000 0.00003  0.06667  0.99997  Biso   1.000  O
  O197     1.0000 0.93333  0.93337  0.99997  Biso   1.000  O
  O198     1.0000 0.06663  0.99997  0.99997  Biso   1.000  O
  O199     1.0000 0.50800  0.07200  0.69300  Biso   1.000  O
  O200     1.0000 0.92800  0.43600  0.69300  Biso   1.000  O
  O201     1.0000 0.07200  0.50800  0.30700  Biso   1.000  O
  O202     1.0000 0.56400  0.49200  0.69300  Biso   1.000  O
  O203     1.0000 0.49200  0.56400  0.30700  Biso   1.000  O
  O204     1.0000 0.43600  0.92800  0.30700  Biso   1.000  O
  O205     1.0000 0.84133  0.73867  0.35967  Biso   1.000  O
  O206     1.0000 0.26133  0.10267  0.35967  Biso   1.000  O
  O207     1.0000 0.40533  0.17467  0.97367  Biso   1.000  O
  O208     1.0000 0.89733  0.15867  0.35967  Biso   1.000  O
  O209     1.0000 0.82533  0.23067  0.97367  Biso   1.000  O
  O210     1.0000 0.76933  0.59467  0.97367  Biso   1.000  O
  O211     1.0000 0.17467  0.40533  0.02633  Biso   1.000  O
  O212     1.0000 0.59467  0.76933  0.02633  Biso   1.000  O
  O213     1.0000 0.73867  0.84133  0.64033  Biso   1.000  O
  O214     1.0000 0.23067  0.82533  0.02633  Biso   1.000  O
  O215     1.0000 0.15867  0.89733  0.64033  Biso   1.000  O
  O216     1.0000 0.10267  0.26133  0.64033  Biso   1.000  O
  O217     1.0000 0.43300  0.11000  0.68900  Biso   1.000  O
  O218     1.0000 0.89000  0.32300  0.68900  Biso   1.000  O
  O219     1.0000 0.11000  0.43300  0.31100  Biso   1.000  O
  O220     1.0000 0.67700  0.56700  0.68900  Biso   1.000  O
  O221     1.0000 0.56700  0.67700  0.31100  Biso   1.000  O
  O222     1.0000 0.32300  0.89000  0.31100  Biso   1.000  O
  O223     1.0000 0.76633  0.77667  0.35567  Biso   1.000  O
  O224     1.0000 0.22333  0.98967  0.35567  Biso   1.000  O
  O225     1.0000 0.44333  0.09967  0.97767  Biso   1.000  O
  O226     1.0000 0.01033  0.23367  0.35567  Biso   1.000  O
  O227     1.0000 0.90033  0.34367  0.97767  Biso   1.000  O
  O228     1.0000 0.65633  0.55667  0.97767  Biso   1.000  O
  O229     1.0000 0.09967  0.44333  0.02233  Biso   1.000  O
  O230     1.0000 0.55667  0.65633  0.02233  Biso   1.000  O
  O231     1.0000 0.77667  0.76633  0.64433  Biso   1.000  O
  O232     1.0000 0.34367  0.90033  0.02233  Biso   1.000  O
  O233     1.0000 0.23367  0.01033  0.64433  Biso   1.000  O
  O234     1.0000 0.98967  0.22333  0.64433  Biso   1.000  O
  C991     1.0000 0.65400  0.38800  0.56100  Biso   1.000  C
  C992     1.0000 0.61200  0.26600  0.56100  Biso   1.000  C
  C993     1.0000 0.38800  0.65400  0.43900  Biso   1.000  C
  C994     1.0000 0.73400  0.34600  0.56100  Biso   1.000  C
  C995     1.0000 0.34600  0.73400  0.43900  Biso   1.000  C
  C996     1.0000 0.26600  0.61200  0.43900  Biso   1.000  C
  C997     1.0000 0.98733  0.05467  0.22767  Biso   1.000  C
  C998     1.0000 0.94533  0.93267  0.22767  Biso   1.000  C
  C999     1.0000 0.72133  0.32067  0.10567  Biso   1.000  C
  C1000    1.0000 0.06733  0.01267  0.22767  Biso   1.000  C
  C1001    1.0000 0.67933  0.40067  0.10567  Biso   1.000  C
  C1002    1.0000 0.59933  0.27867  0.10567  Biso   1.000  C
  C1003    1.0000 0.32067  0.72133  0.89433  Biso   1.000  C
  C1004    1.0000 0.27867  0.59933  0.89433  Biso   1.000  C
  C1005    1.0000 0.05467  0.98733  0.77233  Biso   1.000  C
  C1006    1.0000 0.40067  0.67933  0.89433  Biso   1.000  C
  C1007    1.0000 0.01267  0.06733  0.77233  Biso   1.000  C
  C1008    1.0000 0.93267  0.94533  0.77233  Biso   1.000  C
  H883     1.0000 0.69070  0.41880  0.56130  Biso   1.000  H
  H884     1.0000 0.58120  0.27190  0.56130  Biso   1.000  H
  H885     1.0000 0.41880  0.69070  0.43870  Biso   1.000  H
  H886     1.0000 0.72810  0.30930  0.56130  Biso   1.000  H
  H887     1.0000 0.30930  0.72810  0.43870  Biso   1.000  H
  H888     1.0000 0.27190  0.58120  0.43870  Biso   1.000  H
  H889     1.0000 0.02403  0.08547  0.22797  Biso   1.000  H
  H890     1.0000 0.91453  0.93857  0.22797  Biso   1.000  H
  H891     1.0000 0.75213  0.35737  0.10537  Biso   1.000  H
  H892     1.0000 0.06143  0.97597  0.22797  Biso   1.000  H
  H893     1.0000 0.64263  0.39477  0.10537  Biso   1.000  H
  H894     1.0000 0.60523  0.24787  0.10537  Biso   1.000  H
  H895     1.0000 0.35737  0.75213  0.89463  Biso   1.000  H
  H896     1.0000 0.24787  0.60523  0.89463  Biso   1.000  H
  H897     1.0000 0.08547  0.02403  0.77203  Biso   1.000  H
  H898     1.0000 0.39477  0.64263  0.89463  Biso   1.000  H
  H899     1.0000 0.97597  0.06143  0.77203  Biso   1.000  H
  H900     1.0000 0.93857  0.91453  0.77203  Biso   1.000  H
  C1009    1.0000 0.55900  0.32100  0.54200  Biso   1.000  C
  C1010    1.0000 0.67900  0.23800  0.54200  Biso   1.000  C
  C1011    1.0000 0.32100  0.55900  0.45800  Biso   1.000  C
  C1012    1.0000 0.76200  0.44100  0.54200  Biso   1.000  C
  C1013    1.0000 0.44100  0.76200  0.45800  Biso   1.000  C
  C1014    1.0000 0.23800  0.67900  0.45800  Biso   1.000  C
  C1015    1.0000 0.89233  0.98767  0.20867  Biso   1.000  C
  C1016    1.0000 0.01233  0.90467  0.20867  Biso   1.000  C
  C1017    1.0000 0.65433  0.22567  0.12467  Biso   1.000  C
  C1018    1.0000 0.09533  0.10767  0.20867  Biso   1.000  C
  C1019    1.0000 0.77433  0.42867  0.12467  Biso   1.000  C
  C1020    1.0000 0.57133  0.34567  0.12467  Biso   1.000  C
  C1021    1.0000 0.22567  0.65433  0.87533  Biso   1.000  C
  C1022    1.0000 0.34567  0.57133  0.87533  Biso   1.000  C
  C1023    1.0000 0.98767  0.89233  0.79133  Biso   1.000  C
  C1024    1.0000 0.42867  0.77433  0.87533  Biso   1.000  C
  C1025    1.0000 0.10767  0.09533  0.79133  Biso   1.000  C
  C1026    1.0000 0.90467  0.01233  0.79133  Biso   1.000  C
  H901     1.0000 0.53590  0.32370  0.52810  Biso   1.000  H
  H902     1.0000 0.67630  0.21220  0.52810  Biso   1.000  H
  H903     1.0000 0.32370  0.53590  0.47190  Biso   1.000  H
  H904     1.0000 0.78780  0.46410  0.52810  Biso   1.000  H
  H905     1.0000 0.46410  0.78780  0.47190  Biso   1.000  H
  H906     1.0000 0.21220  0.67630  0.47190  Biso   1.000  H
  H907     1.0000 0.86923  0.99037  0.19477  Biso   1.000  H
  H908     1.0000 0.00963  0.87887  0.19477  Biso   1.000  H
  H909     1.0000 0.65703  0.20257  0.13857  Biso   1.000  H
  H910     1.0000 0.12113  0.13077  0.19477  Biso   1.000  H
  H911     1.0000 0.79743  0.45447  0.13857  Biso   1.000  H
  H912     1.0000 0.54553  0.34297  0.13857  Biso   1.000  H
  H913     1.0000 0.20257  0.65703  0.86143  Biso   1.000  H
  H914     1.0000 0.34297  0.54553  0.86143  Biso   1.000  H
  H915     1.0000 0.99037  0.86923  0.80523  Biso   1.000  H
  H916     1.0000 0.45447  0.79743  0.86143  Biso   1.000  H
  H917     1.0000 0.13077  0.12113  0.80523  Biso   1.000  H
  H918     1.0000 0.87887  0.00963  0.80523  Biso   1.000  H
  H919     1.0000 0.54260  0.32060  0.55920  Biso   1.000  H
  H920     1.0000 0.67940  0.22200  0.55920  Biso   1.000  H
  H921     1.0000 0.32060  0.54260  0.44080  Biso   1.000  H
  H922     1.0000 0.77800  0.45740  0.55920  Biso   1.000  H
  H923     1.0000 0.45740  0.77800  0.44080  Biso   1.000  H
  H924     1.0000 0.22200  0.67940  0.44080  Biso   1.000  H
  H925     1.0000 0.87593  0.98727  0.22587  Biso   1.000  H
  H926     1.0000 0.01273  0.88867  0.22587  Biso   1.000  H
  H927     1.0000 0.65393  0.20927  0.10747  Biso   1.000  H
  H928     1.0000 0.11133  0.12407  0.22587  Biso   1.000  H
  H929     1.0000 0.79073  0.44467  0.10747  Biso   1.000  H
  H930     1.0000 0.55533  0.34607  0.10747  Biso   1.000  H
  H931     1.0000 0.20927  0.65393  0.89253  Biso   1.000  H
  H932     1.0000 0.34607  0.55533  0.89253  Biso   1.000  H
  H933     1.0000 0.98727  0.87593  0.77413  Biso   1.000  H
  H934     1.0000 0.44467  0.79073  0.89253  Biso   1.000  H
  H935     1.0000 0.12407  0.11133  0.77413  Biso   1.000  H
  H936     1.0000 0.88867  0.01273  0.77413  Biso   1.000  H
  H937     1.0000 0.56090  0.28710  0.53980  Biso   1.000  H
  H938     1.0000 0.71290  0.27380  0.53980  Biso   1.000  H
  H939     1.0000 0.28710  0.56090  0.46020  Biso   1.000  H
  H940     1.0000 0.72620  0.43910  0.53980  Biso   1.000  H
  H941     1.0000 0.43910  0.72620  0.46020  Biso   1.000  H
  H942     1.0000 0.27380  0.71290  0.46020  Biso   1.000  H
  H943     1.0000 0.89423  0.95377  0.20647  Biso   1.000  H
  H944     1.0000 0.04623  0.94047  0.20647  Biso   1.000  H
  H945     1.0000 0.62043  0.22757  0.12687  Biso   1.000  H
  H946     1.0000 0.05953  0.10577  0.20647  Biso   1.000  H
  H947     1.0000 0.77243  0.39287  0.12687  Biso   1.000  H
  H948     1.0000 0.60713  0.37957  0.12687  Biso   1.000  H
  H949     1.0000 0.22757  0.62043  0.87313  Biso   1.000  H
  H950     1.0000 0.37957  0.60713  0.87313  Biso   1.000  H
  H951     1.0000 0.95377  0.89423  0.79353  Biso   1.000  H
  H952     1.0000 0.39287  0.77243  0.87313  Biso   1.000  H
  H953     1.0000 0.10577  0.05953  0.79353  Biso   1.000  H
  H954     1.0000 0.94047  0.04623  0.79353  Biso   1.000  H
  C1027    1.0000 0.62900  0.40000  0.51500  Biso   1.000  C
  C1028    1.0000 0.60000  0.22900  0.51500  Biso   1.000  C
  C1029    1.0000 0.40000  0.62900  0.48500  Biso   1.000  C
  C1030    1.0000 0.77100  0.37100  0.51500  Biso   1.000  C
  C1031    1.0000 0.37100  0.77100  0.48500  Biso   1.000  C
  C1032    1.0000 0.22900  0.60000  0.48500  Biso   1.000  C
  C1033    1.0000 0.96233  0.06667  0.18167  Biso   1.000  C
  C1034    1.0000 0.93333  0.89567  0.18167  Biso   1.000  C
  C1035    1.0000 0.73333  0.29567  0.15167  Biso   1.000  C
  C1036    1.0000 0.10433  0.03767  0.18167  Biso   1.000  C
  C1037    1.0000 0.70433  0.43767  0.15167  Biso   1.000  C
  C1038    1.0000 0.56233  0.26667  0.15167  Biso   1.000  C
  C1039    1.0000 0.29567  0.73333  0.84833  Biso   1.000  C
  C1040    1.0000 0.26667  0.56233  0.84833  Biso   1.000  C
  C1041    1.0000 0.06667  0.96233  0.81833  Biso   1.000  C
  C1042    1.0000 0.43767  0.70433  0.84833  Biso   1.000  C
  C1043    1.0000 0.03767  0.10433  0.81833  Biso   1.000  C
  C1044    1.0000 0.89567  0.93333  0.81833  Biso   1.000  C
  H955     1.0000 0.60770  0.41920  0.51280  Biso   1.000  H
  H956     1.0000 0.58080  0.18850  0.51280  Biso   1.000  H
  H957     1.0000 0.41920  0.60770  0.48720  Biso   1.000  H
  H958     1.0000 0.81150  0.39230  0.51280  Biso   1.000  H
  H959     1.0000 0.39230  0.81150  0.48720  Biso   1.000  H
  H960     1.0000 0.18850  0.58080  0.48720  Biso   1.000  H
  H961     1.0000 0.94103  0.08587  0.17947  Biso   1.000  H
  H962     1.0000 0.91413  0.85517  0.17947  Biso   1.000  H
  H963     1.0000 0.75253  0.27437  0.15387  Biso   1.000  H
  H964     1.0000 0.14483  0.05897  0.17947  Biso   1.000  H
  H965     1.0000 0.72563  0.47817  0.15387  Biso   1.000  H
  H966     1.0000 0.52183  0.24747  0.15387  Biso   1.000  H
  H967     1.0000 0.27437  0.75253  0.84613  Biso   1.000  H
  H968     1.0000 0.24747  0.52183  0.84613  Biso   1.000  H
  H969     1.0000 0.08587  0.94103  0.82053  Biso   1.000  H
  H970     1.0000 0.47817  0.72563  0.84613  Biso   1.000  H
  H971     1.0000 0.05897  0.14483  0.82053  Biso   1.000  H
  H972     1.0000 0.85517  0.91413  0.82053  Biso   1.000  H
  H973     1.0000 0.61880  0.37250  0.50040  Biso   1.000  H
  H974     1.0000 0.62750  0.24630  0.50040  Biso   1.000  H
  H975     1.0000 0.37250  0.61880  0.49960  Biso   1.000  H
  H976     1.0000 0.75370  0.38120  0.50040  Biso   1.000  H
  H977     1.0000 0.38120  0.75370  0.49960  Biso   1.000  H
  H978     1.0000 0.24630  0.62750  0.49960  Biso   1.000  H
  H979     1.0000 0.95213  0.03917  0.16707  Biso   1.000  H
  H980     1.0000 0.96083  0.91297  0.16707  Biso   1.000  H
  H981     1.0000 0.70583  0.28547  0.16627  Biso   1.000  H
  H982     1.0000 0.08703  0.04787  0.16707  Biso   1.000  H
  H983     1.0000 0.71453  0.42037  0.16627  Biso   1.000  H
  H984     1.0000 0.57963  0.29417  0.16627  Biso   1.000  H
  H985     1.0000 0.28547  0.70583  0.83373  Biso   1.000  H
  H986     1.0000 0.29417  0.57963  0.83373  Biso   1.000  H
  H987     1.0000 0.03917  0.95213  0.83293  Biso   1.000  H
  H988     1.0000 0.42037  0.71453  0.83373  Biso   1.000  H
  H989     1.0000 0.04787  0.08703  0.83293  Biso   1.000  H
  H990     1.0000 0.91297  0.96083  0.83293  Biso   1.000  H
  H991     1.0000 0.66910  0.42730  0.51340  Biso   1.000  H
  H992     1.0000 0.57270  0.24180  0.51340  Biso   1.000  H
  H993     1.0000 0.42730  0.66910  0.48660  Biso   1.000  H
  H994     1.0000 0.75820  0.33090  0.51340  Biso   1.000  H
  H995     1.0000 0.33090  0.75820  0.48660  Biso   1.000  H
  H996     1.0000 0.24180  0.57270  0.48660  Biso   1.000  H
  H997     1.0000 0.00243  0.09397  0.18007  Biso   1.000  H
  H998     1.0000 0.90603  0.90847  0.18007  Biso   1.000  H
  H999     1.0000 0.76063  0.33577  0.15327  Biso   1.000  H
  H1000    1.0000 0.09153  0.99757  0.18007  Biso   1.000  H
  H1001    1.0000 0.66423  0.42487  0.15327  Biso   1.000  H
  H1002    1.0000 0.57513  0.23937  0.15327  Biso   1.000  H
  H1003    1.0000 0.33577  0.76063  0.84673  Biso   1.000  H
  H1004    1.0000 0.23937  0.57513  0.84673  Biso   1.000  H
  H1005    1.0000 0.09397  0.00243  0.81993  Biso   1.000  H
  H1006    1.0000 0.42487  0.66423  0.84673  Biso   1.000  H
  H1007    1.0000 0.99757  0.09153  0.81993  Biso   1.000  H
  H1008    1.0000 0.90847  0.90603  0.81993  Biso   1.000  H
  C1045    1.0000 0.66670  0.33330  0.33330  Biso   1.000  C
  C1046    1.0000 0.33330  0.66670  0.66670  Biso   1.000  C
  C1047    1.0000 0.00003  0.99997  0.99997  Biso   1.000  C
  H1009    1.0000 0.69850  0.32880  0.33400  Biso   1.000  H
  H1010    1.0000 0.67120  0.36970  0.33400  Biso   1.000  H
  H1011    1.0000 0.32880  0.69850  0.66600  Biso   1.000  H
  H1012    1.0000 0.63030  0.30150  0.33400  Biso   1.000  H
  H1013    1.0000 0.30150  0.63030  0.66600  Biso   1.000  H
  H1014    1.0000 0.36970  0.67120  0.66600  Biso   1.000  H
  H1015    1.0000 0.03183  0.99547  0.00067  Biso   1.000  H
  H1016    1.0000 0.00453  0.03637  0.00067  Biso   1.000  H
  H1017    1.0000 0.66213  0.36517  0.33267  Biso   1.000  H
  H1018    1.0000 0.96363  0.96817  0.00067  Biso   1.000  H
  H1019    1.0000 0.63483  0.29697  0.33267  Biso   1.000  H
  H1020    1.0000 0.70303  0.33787  0.33267  Biso   1.000  H
  H1021    1.0000 0.36517  0.66213  0.66733  Biso   1.000  H
  H1022    1.0000 0.33787  0.70303  0.66733  Biso   1.000  H
  H1023    1.0000 0.99547  0.03183  0.99933  Biso   1.000  H
  H1024    1.0000 0.29697  0.63483  0.66733  Biso   1.000  H
  H1025    1.0000 0.96817  0.96363  0.99933  Biso   1.000  H
  H1026    1.0000 0.03637  0.00453  0.99933  Biso   1.000  H
  C1048    1.0000 0.56000  0.27000  0.34000  Biso   1.000  C
  C1049    1.0000 0.73000  0.29000  0.34000  Biso   1.000  C
  C1050    1.0000 0.27000  0.56000  0.66000  Biso   1.000  C
  C1051    1.0000 0.71000  0.44000  0.34000  Biso   1.000  C
  C1052    1.0000 0.44000  0.71000  0.66000  Biso   1.000  C
  C1053    1.0000 0.29000  0.73000  0.66000  Biso   1.000  C
  C1054    1.0000 0.89333  0.93667  0.00667  Biso   1.000  C
  C1055    1.0000 0.06333  0.95667  0.00667  Biso   1.000  C
  C1056    1.0000 0.60333  0.22667  0.32667  Biso   1.000  C
  C1057    1.0000 0.04333  0.10667  0.00667  Biso   1.000  C
  C1058    1.0000 0.77333  0.37667  0.32667  Biso   1.000  C
  C1059    1.0000 0.62333  0.39667  0.32667  Biso   1.000  C
  C1060    1.0000 0.22667  0.60333  0.67333  Biso   1.000  C
  C1061    1.0000 0.39667  0.62333  0.67333  Biso   1.000  C
  C1062    1.0000 0.93667  0.89333  0.99333  Biso   1.000  C
  C1063    1.0000 0.37667  0.77333  0.67333  Biso   1.000  C
  C1064    1.0000 0.10667  0.04333  0.99333  Biso   1.000  C
  C1065    1.0000 0.95667  0.06333  0.99333  Biso   1.000  C
  H1027    1.0000 0.55270  0.26570  0.35210  Biso   1.000  H
  H1028    1.0000 0.73430  0.28700  0.35210  Biso   1.000  H
  H1029    1.0000 0.26570  0.55270  0.64790  Biso   1.000  H
  H1030    1.0000 0.71300  0.44730  0.35210  Biso   1.000  H
  H1031    1.0000 0.44730  0.71300  0.64790  Biso   1.000  H
  H1032    1.0000 0.28700  0.73430  0.64790  Biso   1.000  H
  H1033    1.0000 0.88603  0.93237  0.01877  Biso   1.000  H
  H1034    1.0000 0.06763  0.95367  0.01877  Biso   1.000  H
  H1035    1.0000 0.59903  0.21937  0.31457  Biso   1.000  H
  H1036    1.0000 0.04633  0.11397  0.01877  Biso   1.000  H
  H1037    1.0000 0.78063  0.37967  0.31457  Biso   1.000  H
  H1038    1.0000 0.62033  0.40097  0.31457  Biso   1.000  H
  H1039    1.0000 0.21937  0.59903  0.68543  Biso   1.000  H
  H1040    1.0000 0.40097  0.62033  0.68543  Biso   1.000  H
  H1041    1.0000 0.93237  0.88603  0.98123  Biso   1.000  H
  H1042    1.0000 0.37967  0.78063  0.68543  Biso   1.000  H
  H1043    1.0000 0.11397  0.04633  0.98123  Biso   1.000  H
  H1044    1.0000 0.95367  0.06763  0.98123  Biso   1.000  H
  H1045    1.0000 0.54210  0.22660  0.32710  Biso   1.000  H
  H1046    1.0000 0.77340  0.31550  0.32710  Biso   1.000  H
  H1047    1.0000 0.22660  0.54210  0.67290  Biso   1.000  H
  H1048    1.0000 0.68450  0.45790  0.32710  Biso   1.000  H
  H1049    1.0000 0.45790  0.68450  0.67290  Biso   1.000  H
  H1050    1.0000 0.31550  0.77340  0.67290  Biso   1.000  H
  H1051    1.0000 0.87543  0.89327  0.99377  Biso   1.000  H
  H1052    1.0000 0.10673  0.98217  0.99377  Biso   1.000  H
  H1053    1.0000 0.55993  0.20877  0.33957  Biso   1.000  H
  H1054    1.0000 0.01783  0.12457  0.99377  Biso   1.000  H
  H1055    1.0000 0.79123  0.35117  0.33957  Biso   1.000  H
  H1056    1.0000 0.64883  0.44007  0.33957  Biso   1.000  H
  H1057    1.0000 0.20877  0.55993  0.66043  Biso   1.000  H
  H1058    1.0000 0.44007  0.64883  0.66043  Biso   1.000  H
  H1059    1.0000 0.89327  0.87543  0.00623  Biso   1.000  H
  H1060    1.0000 0.35117  0.79123  0.66043  Biso   1.000  H
  H1061    1.0000 0.12457  0.01783  0.00623  Biso   1.000  H
  H1062    1.0000 0.98217  0.10673  0.00623  Biso   1.000  H
  H1063    1.0000 0.56100  0.29110  0.32310  Biso   1.000  H
  H1064    1.0000 0.70890  0.26990  0.32310  Biso   1.000  H
  H1065    1.0000 0.29110  0.56100  0.67690  Biso   1.000  H
  H1066    1.0000 0.73010  0.43900  0.32310  Biso   1.000  H
  H1067    1.0000 0.43900  0.73010  0.67690  Biso   1.000  H
  H1068    1.0000 0.26990  0.70890  0.67690  Biso   1.000  H
  H1069    1.0000 0.89433  0.95777  0.98977  Biso   1.000  H
  H1070    1.0000 0.04223  0.93657  0.98977  Biso   1.000  H
  H1071    1.0000 0.62443  0.22767  0.34357  Biso   1.000  H
  H1072    1.0000 0.06343  0.10567  0.98977  Biso   1.000  H
  H1073    1.0000 0.77233  0.39677  0.34357  Biso   1.000  H
  H1074    1.0000 0.60323  0.37557  0.34357  Biso   1.000  H
  H1075    1.0000 0.22767  0.62443  0.65643  Biso   1.000  H
  H1076    1.0000 0.37557  0.60323  0.65643  Biso   1.000  H
  H1077    1.0000 0.95777  0.89433  0.01023  Biso   1.000  H
  H1078    1.0000 0.39677  0.77233  0.65643  Biso   1.000  H
  H1079    1.0000 0.10567  0.06343  0.01023  Biso   1.000  H
  H1080    1.0000 0.93657  0.04223  0.01023  Biso   1.000  H
  C1066    1.0000 0.56000  0.30000  0.33000  Biso   1.000  C
  C1067    1.0000 0.70000  0.26000  0.33000  Biso   1.000  C
  C1068    1.0000 0.30000  0.56000  0.67000  Biso   1.000  C
  C1069    1.0000 0.74000  0.44000  0.33000  Biso   1.000  C
  C1070    1.0000 0.44000  0.74000  0.67000  Biso   1.000  C
  C1071    1.0000 0.26000  0.70000  0.67000  Biso   1.000  C
  C1072    1.0000 0.89333  0.96667  0.99667  Biso   1.000  C
  C1073    1.0000 0.03333  0.92667  0.99667  Biso   1.000  C
  C1074    1.0000 0.63333  0.22667  0.33667  Biso   1.000  C
  C1075    1.0000 0.07333  0.10667  0.99667  Biso   1.000  C
  C1076    1.0000 0.77333  0.40667  0.33667  Biso   1.000  C
  C1077    1.0000 0.59333  0.36667  0.33667  Biso   1.000  C
  C1078    1.0000 0.22667  0.63333  0.66333  Biso   1.000  C
  C1079    1.0000 0.36667  0.59333  0.66333  Biso   1.000  C
  C1080    1.0000 0.96667  0.89333  0.00333  Biso   1.000  C
  C1081    1.0000 0.40667  0.77333  0.66333  Biso   1.000  C
  C1082    1.0000 0.10667  0.07333  0.00333  Biso   1.000  C
  C1083    1.0000 0.92667  0.03333  0.00333  Biso   1.000  C
  H1081    1.0000 0.56310  0.33140  0.33930  Biso   1.000  H
  H1082    1.0000 0.66860  0.23170  0.33930  Biso   1.000  H
  H1083    1.0000 0.33140  0.56310  0.66070  Biso   1.000  H
  H1084    1.0000 0.76830  0.43690  0.33930  Biso   1.000  H
  H1085    1.0000 0.43690  0.76830  0.66070  Biso   1.000  H
  H1086    1.0000 0.23170  0.66860  0.66070  Biso   1.000  H
  H1087    1.0000 0.89643  0.99807  0.00597  Biso   1.000  H
  H1088    1.0000 0.00193  0.89837  0.00597  Biso   1.000  H
  H1089    1.0000 0.66473  0.22977  0.32737  Biso   1.000  H
  H1090    1.0000 0.10163  0.10357  0.00597  Biso   1.000  H
  H1091    1.0000 0.77023  0.43497  0.32737  Biso   1.000  H
  H1092    1.0000 0.56503  0.33527  0.32737  Biso   1.000  H
  H1093    1.0000 0.22977  0.66473  0.67263  Biso   1.000  H
  H1094    1.0000 0.33527  0.56503  0.67263  Biso   1.000  H
  H1095    1.0000 0.99807  0.89643  0.99403  Biso   1.000  H
  H1096    1.0000 0.43497  0.77023  0.67263  Biso   1.000  H
  H1097    1.0000 0.10357  0.10163  0.99403  Biso   1.000  H
  H1098    1.0000 0.89837  0.00193  0.99403  Biso   1.000  H
  H1099    1.0000 0.52450  0.26520  0.33620  Biso   1.000  H
  H1100    1.0000 0.73480  0.25930  0.33620  Biso   1.000  H
  H1101    1.0000 0.26520  0.52450  0.66380  Biso   1.000  H
  H1102    1.0000 0.74070  0.47550  0.33620  Biso   1.000  H
  H1103    1.0000 0.47550  0.74070  0.66380  Biso   1.000  H
  H1104    1.0000 0.25930  0.73480  0.66380  Biso   1.000  H
  H1105    1.0000 0.85783  0.93187  0.00287  Biso   1.000  H
  H1106    1.0000 0.06813  0.92597  0.00287  Biso   1.000  H
  H1107    1.0000 0.59853  0.19117  0.33047  Biso   1.000  H
  H1108    1.0000 0.07403  0.14217  0.00287  Biso   1.000  H
  H1109    1.0000 0.80883  0.40737  0.33047  Biso   1.000  H
  H1110    1.0000 0.59263  0.40147  0.33047  Biso   1.000  H
  H1111    1.0000 0.19117  0.59853  0.66953  Biso   1.000  H
  H1112    1.0000 0.40147  0.59263  0.66953  Biso   1.000  H
  H1113    1.0000 0.93187  0.85783  0.99713  Biso   1.000  H
  H1114    1.0000 0.40737  0.80883  0.66953  Biso   1.000  H
  H1115    1.0000 0.14217  0.07403  0.99713  Biso   1.000  H
  H1116    1.0000 0.92597  0.06813  0.99713  Biso   1.000  H
  H1117    1.0000 0.55120  0.30340  0.31070  Biso   1.000  H
  H1118    1.0000 0.69660  0.24780  0.31070  Biso   1.000  H
  H1119    1.0000 0.30340  0.55120  0.68930  Biso   1.000  H
  H1120    1.0000 0.75220  0.44880  0.31070  Biso   1.000  H
  H1121    1.0000 0.44880  0.75220  0.68930  Biso   1.000  H
  H1122    1.0000 0.24780  0.69660  0.68930  Biso   1.000  H
  H1123    1.0000 0.88453  0.97007  0.97737  Biso   1.000  H
  H1124    1.0000 0.02993  0.91447  0.97737  Biso   1.000  H
  H1125    1.0000 0.63673  0.21787  0.35597  Biso   1.000  H
  H1126    1.0000 0.08553  0.11547  0.97737  Biso   1.000  H
  H1127    1.0000 0.78213  0.41887  0.35597  Biso   1.000  H
  H1128    1.0000 0.58113  0.36327  0.35597  Biso   1.000  H
  H1129    1.0000 0.21787  0.63673  0.64403  Biso   1.000  H
  H1130    1.0000 0.36327  0.58113  0.64403  Biso   1.000  H
  H1131    1.0000 0.97007  0.88453  0.02263  Biso   1.000  H
  H1132    1.0000 0.41887  0.78213  0.64403  Biso   1.000  H
  H1133    1.0000 0.11547  0.08553  0.02263  Biso   1.000  H
  H1134    1.0000 0.91447  0.02993  0.02263  Biso   1.000  H
  C1084    1.0000 0.55000  0.11500  0.70200  Biso   1.000  C
  C1085    1.0000 0.88500  0.43500  0.70200  Biso   1.000  C
  C1086    1.0000 0.11500  0.55000  0.29800  Biso   1.000  C
  C1087    1.0000 0.56500  0.45000  0.70200  Biso   1.000  C
  C1088    1.0000 0.45000  0.56500  0.29800  Biso   1.000  C
  C1089    1.0000 0.43500  0.88500  0.29800  Biso   1.000  C
  C1090    1.0000 0.88333  0.78167  0.36867  Biso   1.000  C
  C1091    1.0000 0.21833  0.10167  0.36867  Biso   1.000  C
  C1092    1.0000 0.44833  0.21667  0.96467  Biso   1.000  C
  C1093    1.0000 0.89833  0.11667  0.36867  Biso   1.000  C
  C1094    1.0000 0.78333  0.23167  0.96467  Biso   1.000  C
  C1095    1.0000 0.76833  0.55167  0.96467  Biso   1.000  C
  C1096    1.0000 0.21667  0.44833  0.03533  Biso   1.000  C
  C1097    1.0000 0.55167  0.76833  0.03533  Biso   1.000  C
  C1098    1.0000 0.78167  0.88333  0.63133  Biso   1.000  C
  C1099    1.0000 0.23167  0.78333  0.03533  Biso   1.000  C
  C1100    1.0000 0.11667  0.89833  0.63133  Biso   1.000  C
  C1101    1.0000 0.10167  0.21833  0.63133  Biso   1.000  C
  H1135    1.0000 0.58310  0.11560  0.70740  Biso   1.000  H
  H1136    1.0000 0.88440  0.46750  0.70740  Biso   1.000  H
  H1137    1.0000 0.11560  0.58310  0.29260  Biso   1.000  H
  H1138    1.0000 0.53250  0.41690  0.70740  Biso   1.000  H
  H1139    1.0000 0.41690  0.53250  0.29260  Biso   1.000  H
  H1140    1.0000 0.46750  0.88440  0.29260  Biso   1.000  H
  H1141    1.0000 0.91643  0.78227  0.37407  Biso   1.000  H
  H1142    1.0000 0.21773  0.13417  0.37407  Biso   1.000  H
  H1143    1.0000 0.44893  0.24977  0.95927  Biso   1.000  H
  H1144    1.0000 0.86583  0.08357  0.37407  Biso   1.000  H
  H1145    1.0000 0.75023  0.19917  0.95927  Biso   1.000  H
  H1146    1.0000 0.80083  0.55107  0.95927  Biso   1.000  H
  H1147    1.0000 0.24977  0.44893  0.04073  Biso   1.000  H
  H1148    1.0000 0.55107  0.80083  0.04073  Biso   1.000  H
  H1149    1.0000 0.78227  0.91643  0.62593  Biso   1.000  H
  H1150    1.0000 0.19917  0.75023  0.04073  Biso   1.000  H
  H1151    1.0000 0.08357  0.86583  0.62593  Biso   1.000  H
  H1152    1.0000 0.13417  0.21773  0.62593  Biso   1.000  H
  C1102    1.0000 0.58900  0.21600  0.71300  Biso   1.000  C
  C1103    1.0000 0.78400  0.37300  0.71300  Biso   1.000  C
  C1104    1.0000 0.21600  0.58900  0.28700  Biso   1.000  C
  C1105    1.0000 0.62700  0.41100  0.71300  Biso   1.000  C
  C1106    1.0000 0.41100  0.62700  0.28700  Biso   1.000  C
  C1107    1.0000 0.37300  0.78400  0.28700  Biso   1.000  C
  C1108    1.0000 0.92233  0.88267  0.37967  Biso   1.000  C
  C1109    1.0000 0.11733  0.03967  0.37967  Biso   1.000  C
  C1110    1.0000 0.54933  0.25567  0.95367  Biso   1.000  C
  C1111    1.0000 0.96033  0.07767  0.37967  Biso   1.000  C
  C1112    1.0000 0.74433  0.29367  0.95367  Biso   1.000  C
  C1113    1.0000 0.70633  0.45067  0.95367  Biso   1.000  C
  C1114    1.0000 0.25567  0.54933  0.04633  Biso   1.000  C
  C1115    1.0000 0.45067  0.70633  0.04633  Biso   1.000  C
  C1116    1.0000 0.88267  0.92233  0.62033  Biso   1.000  C
  C1117    1.0000 0.29367  0.74433  0.04633  Biso   1.000  C
  C1118    1.0000 0.07767  0.96033  0.62033  Biso   1.000  C
  C1119    1.0000 0.03967  0.11733  0.62033  Biso   1.000  C
  H1153    1.0000 0.62560  0.21970  0.70860  Biso   1.000  H
  H1154    1.0000 0.78030  0.40590  0.70860  Biso   1.000  H
  H1155    1.0000 0.21970  0.62560  0.29140  Biso   1.000  H
  H1156    1.0000 0.59410  0.37440  0.70860  Biso   1.000  H
  H1157    1.0000 0.37440  0.59410  0.29140  Biso   1.000  H
  H1158    1.0000 0.40590  0.78030  0.29140  Biso   1.000  H
  H1159    1.0000 0.95893  0.88637  0.37527  Biso   1.000  H
  H1160    1.0000 0.11363  0.07257  0.37527  Biso   1.000  H
  H1161    1.0000 0.55303  0.29227  0.95807  Biso   1.000  H
  H1162    1.0000 0.92743  0.04107  0.37527  Biso   1.000  H
  H1163    1.0000 0.70773  0.26077  0.95807  Biso   1.000  H
  H1164    1.0000 0.73923  0.44697  0.95807  Biso   1.000  H
  H1165    1.0000 0.29227  0.55303  0.04193  Biso   1.000  H
  H1166    1.0000 0.44697  0.73923  0.04193  Biso   1.000  H
  H1167    1.0000 0.88637  0.95893  0.62473  Biso   1.000  H
  H1168    1.0000 0.26077  0.70773  0.04193  Biso   1.000  H
  H1169    1.0000 0.04107  0.92743  0.62473  Biso   1.000  H
  H1170    1.0000 0.07257  0.11363  0.62473  Biso   1.000  H
  H1171    1.0000 0.58540  0.21710  0.73190  Biso   1.000  H
  H1172    1.0000 0.78290  0.36830  0.73190  Biso   1.000  H
  H1173    1.0000 0.21710  0.58540  0.26810  Biso   1.000  H
  H1174    1.0000 0.63170  0.41460  0.73190  Biso   1.000  H
  H1175    1.0000 0.41460  0.63170  0.26810  Biso   1.000  H
  H1176    1.0000 0.36830  0.78290  0.26810  Biso   1.000  H
  H1177    1.0000 0.91873  0.88377  0.39857  Biso   1.000  H
  H1178    1.0000 0.11623  0.03497  0.39857  Biso   1.000  H
  H1179    1.0000 0.55043  0.25207  0.93477  Biso   1.000  H
  H1180    1.0000 0.96503  0.08127  0.39857  Biso   1.000  H
  H1181    1.0000 0.74793  0.29837  0.93477  Biso   1.000  H
  H1182    1.0000 0.70163  0.44957  0.93477  Biso   1.000  H
  H1183    1.0000 0.25207  0.55043  0.06523  Biso   1.000  H
  H1184    1.0000 0.44957  0.70163  0.06523  Biso   1.000  H
  H1185    1.0000 0.88377  0.91873  0.60143  Biso   1.000  H
  H1186    1.0000 0.29837  0.74793  0.06523  Biso   1.000  H
  H1187    1.0000 0.08127  0.96503  0.60143  Biso   1.000  H
  H1188    1.0000 0.03497  0.11623  0.60143  Biso   1.000  H
  H1189    1.0000 0.58620  0.24600  0.70450  Biso   1.000  H
  H1190    1.0000 0.75400  0.34020  0.70450  Biso   1.000  H
  H1191    1.0000 0.24600  0.58620  0.29550  Biso   1.000  H
  H1192    1.0000 0.65980  0.41380  0.70450  Biso   1.000  H
  H1193    1.0000 0.41380  0.65980  0.29550  Biso   1.000  H
  H1194    1.0000 0.34020  0.75400  0.29550  Biso   1.000  H
  H1195    1.0000 0.91953  0.91267  0.37117  Biso   1.000  H
  H1196    1.0000 0.08733  0.00687  0.37117  Biso   1.000  H
  H1197    1.0000 0.57933  0.25287  0.96217  Biso   1.000  H
  H1198    1.0000 0.99313  0.08047  0.37117  Biso   1.000  H
  H1199    1.0000 0.74713  0.32647  0.96217  Biso   1.000  H
  H1200    1.0000 0.67353  0.42067  0.96217  Biso   1.000  H
  H1201    1.0000 0.25287  0.57933  0.03783  Biso   1.000  H
  H1202    1.0000 0.42067  0.67353  0.03783  Biso   1.000  H
  H1203    1.0000 0.91267  0.91953  0.62883  Biso   1.000  H
  H1204    1.0000 0.32647  0.74713  0.03783  Biso   1.000  H
  H1205    1.0000 0.08047  0.99313  0.62883  Biso   1.000  H
  H1206    1.0000 0.00687  0.08733  0.62883  Biso   1.000  H
  C1120    1.0000 0.49000  0.16000  0.69300  Biso   1.000  C
  C1121    1.0000 0.84000  0.33000  0.69300  Biso   1.000  C
  C1122    1.0000 0.16000  0.49000  0.30700  Biso   1.000  C
  C1123    1.0000 0.67000  0.51000  0.69300  Biso   1.000  C
  C1124    1.0000 0.51000  0.67000  0.30700  Biso   1.000  C
  C1125    1.0000 0.33000  0.84000  0.30700  Biso   1.000  C
  C1126    1.0000 0.82333  0.82667  0.35967  Biso   1.000  C
  C1127    1.0000 0.17333  0.99667  0.35967  Biso   1.000  C
  C1128    1.0000 0.49333  0.15667  0.97367  Biso   1.000  C
  C1129    1.0000 0.00333  0.17667  0.35967  Biso   1.000  C
  C1130    1.0000 0.84333  0.33667  0.97367  Biso   1.000  C
  C1131    1.0000 0.66333  0.50667  0.97367  Biso   1.000  C
  C1132    1.0000 0.15667  0.49333  0.02633  Biso   1.000  C
  C1133    1.0000 0.50667  0.66333  0.02633  Biso   1.000  C
  C1134    1.0000 0.82667  0.82333  0.64033  Biso   1.000  C
  C1135    1.0000 0.33667  0.84333  0.02633  Biso   1.000  C
  C1136    1.0000 0.17667  0.00333  0.64033  Biso   1.000  C
  C1137    1.0000 0.99667  0.17333  0.64033  Biso   1.000  C
  H1207    1.0000 0.50070  0.18500  0.67830  Biso   1.000  H
  H1208    1.0000 0.81500  0.31570  0.67830  Biso   1.000  H
  H1209    1.0000 0.18500  0.50070  0.32170  Biso   1.000  H
  H1210    1.0000 0.68430  0.49930  0.67830  Biso   1.000  H
  H1211    1.0000 0.49930  0.68430  0.32170  Biso   1.000  H
  H1212    1.0000 0.31570  0.81500  0.32170  Biso   1.000  H
  H1213    1.0000 0.83403  0.85167  0.34497  Biso   1.000  H
  H1214    1.0000 0.14833  0.98237  0.34497  Biso   1.000  H
  H1215    1.0000 0.51833  0.16737  0.98837  Biso   1.000  H
  H1216    1.0000 0.01763  0.16597  0.34497  Biso   1.000  H
  H1217    1.0000 0.83263  0.35097  0.98837  Biso   1.000  H
  H1218    1.0000 0.64903  0.48167  0.98837  Biso   1.000  H
  H1219    1.0000 0.16737  0.51833  0.01163  Biso   1.000  H
  H1220    1.0000 0.48167  0.64903  0.01163  Biso   1.000  H
  H1221    1.0000 0.85167  0.83403  0.65503  Biso   1.000  H
  H1222    1.0000 0.35097  0.83263  0.01163  Biso   1.000  H
  H1223    1.0000 0.16597  0.01763  0.65503  Biso   1.000  H
  H1224    1.0000 0.98237  0.14833  0.65503  Biso   1.000  H
  H1225    1.0000 0.47690  0.17200  0.70780  Biso   1.000  H
  H1226    1.0000 0.82800  0.30490  0.70780  Biso   1.000  H
  H1227    1.0000 0.17200  0.47690  0.29220  Biso   1.000  H
  H1228    1.0000 0.69510  0.52310  0.70780  Biso   1.000  H
  H1229    1.0000 0.52310  0.69510  0.29220  Biso   1.000  H
  H1230    1.0000 0.30490  0.82800  0.29220  Biso   1.000  H
  H1231    1.0000 0.81023  0.83867  0.37447  Biso   1.000  H
  H1232    1.0000 0.16133  0.97157  0.37447  Biso   1.000  H
  H1233    1.0000 0.50533  0.14357  0.95887  Biso   1.000  H
  H1234    1.0000 0.02843  0.18977  0.37447  Biso   1.000  H
  H1235    1.0000 0.85643  0.36177  0.95887  Biso   1.000  H
  H1236    1.0000 0.63823  0.49467  0.95887  Biso   1.000  H
  H1237    1.0000 0.14357  0.50533  0.04113  Biso   1.000  H
  H1238    1.0000 0.49467  0.63823  0.04113  Biso   1.000  H
  H1239    1.0000 0.83867  0.81023  0.62553  Biso   1.000  H
  H1240    1.0000 0.36177  0.85643  0.04113  Biso   1.000  H
  H1241    1.0000 0.18977  0.02843  0.62553  Biso   1.000  H
  H1242    1.0000 0.97157  0.16133  0.62553  Biso   1.000  H
  H1243    1.0000 0.46380  0.12180  0.68810  Biso   1.000  H
  H1244    1.0000 0.87820  0.34200  0.68810  Biso   1.000  H
  H1245    1.0000 0.12180  0.46380  0.31190  Biso   1.000  H
  H1246    1.0000 0.65800  0.53620  0.68810  Biso   1.000  H
  H1247    1.0000 0.53620  0.65800  0.31190  Biso   1.000  H
  H1248    1.0000 0.34200  0.87820  0.31190  Biso   1.000  H
  H1249    1.0000 0.79713  0.78847  0.35477  Biso   1.000  H
  H1250    1.0000 0.21153  0.00867  0.35477  Biso   1.000  H
  H1251    1.0000 0.45513  0.13047  0.97857  Biso   1.000  H
  H1252    1.0000 0.99133  0.20287  0.35477  Biso   1.000  H
  H1253    1.0000 0.86953  0.32467  0.97857  Biso   1.000  H
  H1254    1.0000 0.67533  0.54487  0.97857  Biso   1.000  H
  H1255    1.0000 0.13047  0.45513  0.02143  Biso   1.000  H
  H1256    1.0000 0.54487  0.67533  0.02143  Biso   1.000  H
  H1257    1.0000 0.78847  0.79713  0.64523  Biso   1.000  H
  H1258    1.0000 0.32467  0.86953  0.02143  Biso   1.000  H
  H1259    1.0000 0.20287  0.99133  0.64523  Biso   1.000  H
  H1260    1.0000 0.00867  0.21153  0.64523  Biso   1.000  H
  C1138    1.0000 0.48000  0.13400  0.67500  Biso   1.000  C
  C1139    1.0000 0.86600  0.34600  0.67500  Biso   1.000  C
  C1140    1.0000 0.13400  0.48000  0.32500  Biso   1.000  C
  C1141    1.0000 0.65400  0.52000  0.67500  Biso   1.000  C
  C1142    1.0000 0.52000  0.65400  0.32500  Biso   1.000  C
  C1143    1.0000 0.34600  0.86600  0.32500  Biso   1.000  C
  C1144    1.0000 0.81333  0.80067  0.34167  Biso   1.000  C
  C1145    1.0000 0.19933  0.01267  0.34167  Biso   1.000  C
  C1146    1.0000 0.46733  0.14667  0.99167  Biso   1.000  C
  C1147    1.0000 0.98733  0.18667  0.34167  Biso   1.000  C
  C1148    1.0000 0.85333  0.32067  0.99167  Biso   1.000  C
  C1149    1.0000 0.67933  0.53267  0.99167  Biso   1.000  C
  C1150    1.0000 0.14667  0.46733  0.00833  Biso   1.000  C
  C1151    1.0000 0.53267  0.67933  0.00833  Biso   1.000  C
  C1152    1.0000 0.80067  0.81333  0.65833  Biso   1.000  C
  C1153    1.0000 0.32067  0.85333  0.00833  Biso   1.000  C
  C1154    1.0000 0.18667  0.98733  0.65833  Biso   1.000  C
  C1155    1.0000 0.01267  0.19933  0.65833  Biso   1.000  C
  H1261    1.0000 0.47550  0.13320  0.65610  Biso   1.000  H
  H1262    1.0000 0.86680  0.34230  0.65610  Biso   1.000  H
  H1263    1.0000 0.13320  0.47550  0.34390  Biso   1.000  H
  H1264    1.0000 0.65770  0.52450  0.65610  Biso   1.000  H
  H1265    1.0000 0.52450  0.65770  0.34390  Biso   1.000  H
  H1266    1.0000 0.34230  0.86680  0.34390  Biso   1.000  H
  H1267    1.0000 0.80883  0.79987  0.32277  Biso   1.000  H
  H1268    1.0000 0.20013  0.00897  0.32277  Biso   1.000  H
  H1269    1.0000 0.46653  0.14217  0.01057  Biso   1.000  H
  H1270    1.0000 0.99103  0.19117  0.32277  Biso   1.000  H
  H1271    1.0000 0.85783  0.32437  0.01057  Biso   1.000  H
  H1272    1.0000 0.67563  0.53347  0.01057  Biso   1.000  H
  H1273    1.0000 0.14217  0.46653  0.98943  Biso   1.000  H
  H1274    1.0000 0.53347  0.67563  0.98943  Biso   1.000  H
  H1275    1.0000 0.79987  0.80883  0.67723  Biso   1.000  H
  H1276    1.0000 0.32437  0.85783  0.98943  Biso   1.000  H
  H1277    1.0000 0.19117  0.99103  0.67723  Biso   1.000  H
  H1278    1.0000 0.00897  0.20013  0.67723  Biso   1.000  H
  C1156    1.0000 0.53000  0.16000  0.71800  Biso   1.000  C
  C1157    1.0000 0.84000  0.37000  0.71800  Biso   1.000  C
  C1158    1.0000 0.16000  0.53000  0.28200  Biso   1.000  C
  C1159    1.0000 0.63000  0.47000  0.71800  Biso   1.000  C
  C1160    1.0000 0.47000  0.63000  0.28200  Biso   1.000  C
  C1161    1.0000 0.37000  0.84000  0.28200  Biso   1.000  C
  C1162    1.0000 0.86333  0.82667  0.38467  Biso   1.000  C
  C1163    1.0000 0.17333  0.03667  0.38467  Biso   1.000  C
  C1164    1.0000 0.49333  0.19667  0.94867  Biso   1.000  C
  C1165    1.0000 0.96333  0.13667  0.38467  Biso   1.000  C
  C1166    1.0000 0.80333  0.29667  0.94867  Biso   1.000  C
  C1167    1.0000 0.70333  0.50667  0.94867  Biso   1.000  C
  C1168    1.0000 0.19667  0.49333  0.05133  Biso   1.000  C
  C1169    1.0000 0.50667  0.70333  0.05133  Biso   1.000  C
  C1170    1.0000 0.82667  0.86333  0.61533  Biso   1.000  C
  C1171    1.0000 0.29667  0.80333  0.05133  Biso   1.000  C
  C1172    1.0000 0.13667  0.96333  0.61533  Biso   1.000  C
  C1173    1.0000 0.03667  0.17333  0.61533  Biso   1.000  C
  H1279    1.0000 0.52120  0.19120  0.72500  Biso   1.000  H
  H1280    1.0000 0.80880  0.33000  0.72500  Biso   1.000  H
  H1281    1.0000 0.19120  0.52120  0.27500  Biso   1.000  H
  H1282    1.0000 0.67000  0.47880  0.72500  Biso   1.000  H
  H1283    1.0000 0.47880  0.67000  0.27500  Biso   1.000  H
  H1284    1.0000 0.33000  0.80880  0.27500  Biso   1.000  H
  H1285    1.0000 0.85453  0.85787  0.39167  Biso   1.000  H
  H1286    1.0000 0.14213  0.99667  0.39167  Biso   1.000  H
  H1287    1.0000 0.52453  0.18787  0.94167  Biso   1.000  H
  H1288    1.0000 0.00333  0.14547  0.39167  Biso   1.000  H
  H1289    1.0000 0.81213  0.33667  0.94167  Biso   1.000  H
  H1290    1.0000 0.66333  0.47547  0.94167  Biso   1.000  H
  H1291    1.0000 0.18787  0.52453  0.05833  Biso   1.000  H
  H1292    1.0000 0.47547  0.66333  0.05833  Biso   1.000  H
  H1293    1.0000 0.85787  0.85453  0.60833  Biso   1.000  H
  H1294    1.0000 0.33667  0.81213  0.05833  Biso   1.000  H
  H1295    1.0000 0.14547  0.00333  0.60833  Biso   1.000  H
  H1296    1.0000 0.99667  0.14213  0.60833  Biso   1.000  H
  H1297    1.0000 0.57050  0.17720  0.72220  Biso   1.000  H
  H1298    1.0000 0.82280  0.39330  0.72220  Biso   1.000  H
  H1299    1.0000 0.17720  0.57050  0.27780  Biso   1.000  H
  H1300    1.0000 0.60670  0.42950  0.72220  Biso   1.000  H
  H1301    1.0000 0.42950  0.60670  0.27780  Biso   1.000  H
  H1302    1.0000 0.39330  0.82280  0.27780  Biso   1.000  H
  H1303    1.0000 0.90383  0.84387  0.38887  Biso   1.000  H
  H1304    1.0000 0.15613  0.05997  0.38887  Biso   1.000  H
  H1305    1.0000 0.51053  0.23717  0.94447  Biso   1.000  H
  H1306    1.0000 0.94003  0.09617  0.38887  Biso   1.000  H
  H1307    1.0000 0.76283  0.27337  0.94447  Biso   1.000  H
  H1308    1.0000 0.72663  0.48947  0.94447  Biso   1.000  H
  H1309    1.0000 0.23717  0.51053  0.05553  Biso   1.000  H
  H1310    1.0000 0.48947  0.72663  0.05553  Biso   1.000  H
  H1311    1.0000 0.84387  0.90383  0.61113  Biso   1.000  H
  H1312    1.0000 0.27337  0.76283  0.05553  Biso   1.000  H
  H1313    1.0000 0.09617  0.94003  0.61113  Biso   1.000  H
  H1314    1.0000 0.05997  0.15613  0.61113  Biso   1.000  H
  H1315    1.0000 0.50750  0.12780  0.72620  Biso   1.000  H
  H1316    1.0000 0.87220  0.37970  0.72620  Biso   1.000  H
  H1317    1.0000 0.12780  0.50750  0.27380  Biso   1.000  H
  H1318    1.0000 0.62030  0.49250  0.72620  Biso   1.000  H
  H1319    1.0000 0.49250  0.62030  0.27380  Biso   1.000  H
  H1320    1.0000 0.37970  0.87220  0.27380  Biso   1.000  H
  H1321    1.0000 0.84083  0.79447  0.39287  Biso   1.000  H
  H1322    1.0000 0.20553  0.04637  0.39287  Biso   1.000  H
  H1323    1.0000 0.46113  0.17417  0.94047  Biso   1.000  H
  H1324    1.0000 0.95363  0.15917  0.39287  Biso   1.000  H
  H1325    1.0000 0.82583  0.28697  0.94047  Biso   1.000  H
  H1326    1.0000 0.71303  0.53887  0.94047  Biso   1.000  H
  H1327    1.0000 0.17417  0.46113  0.05953  Biso   1.000  H
  H1328    1.0000 0.53887  0.71303  0.05953  Biso   1.000  H
  H1329    1.0000 0.79447  0.84083  0.60713  Biso   1.000  H
  H1330    1.0000 0.28697  0.82583  0.05953  Biso   1.000  H
  H1331    1.0000 0.15917  0.95363  0.60713  Biso   1.000  H
  H1332    1.0000 0.04637  0.20553  0.60713  Biso   1.000  H
  C1174    1.0000 0.58200  0.19200  0.68100  Biso   1.000  C
  C1175    1.0000 0.80800  0.39000  0.68100  Biso   1.000  C
  C1176    1.0000 0.19200  0.58200  0.31900  Biso   1.000  C
  C1177    1.0000 0.61000  0.41800  0.68100  Biso   1.000  C
  C1178    1.0000 0.41800  0.61000  0.31900  Biso   1.000  C
  C1179    1.0000 0.39000  0.80800  0.31900  Biso   1.000  C
  C1180    1.0000 0.91533  0.85867  0.34767  Biso   1.000  C
  C1181    1.0000 0.14133  0.05667  0.34767  Biso   1.000  C
  C1182    1.0000 0.52533  0.24867  0.98567  Biso   1.000  C
  C1183    1.0000 0.94333  0.08467  0.34767  Biso   1.000  C
  C1184    1.0000 0.75133  0.27667  0.98567  Biso   1.000  C
  C1185    1.0000 0.72333  0.47467  0.98567  Biso   1.000  C
  C1186    1.0000 0.24867  0.52533  0.01433  Biso   1.000  C
  C1187    1.0000 0.47467  0.72333  0.01433  Biso   1.000  C
  C1188    1.0000 0.85867  0.91533  0.65233  Biso   1.000  C
  C1189    1.0000 0.27667  0.75133  0.01433  Biso   1.000  C
  C1190    1.0000 0.08467  0.94333  0.65233  Biso   1.000  C
  C1191    1.0000 0.05667  0.14133  0.65233  Biso   1.000  C
  H1333    1.0000 0.58870  0.22550  0.67130  Biso   1.000  H
  H1334    1.0000 0.77450  0.36320  0.67130  Biso   1.000  H
  H1335    1.0000 0.22550  0.58870  0.32870  Biso   1.000  H
  H1336    1.0000 0.63680  0.41130  0.67130  Biso   1.000  H
  H1337    1.0000 0.41130  0.63680  0.32870  Biso   1.000  H
  H1338    1.0000 0.36320  0.77450  0.32870  Biso   1.000  H
  H1339    1.0000 0.92203  0.89217  0.33797  Biso   1.000  H
  H1340    1.0000 0.10783  0.02987  0.33797  Biso   1.000  H
  H1341    1.0000 0.55883  0.25537  0.99537  Biso   1.000  H
  H1342    1.0000 0.97013  0.07797  0.33797  Biso   1.000  H
  H1343    1.0000 0.74463  0.30347  0.99537  Biso   1.000  H
  H1344    1.0000 0.69653  0.44117  0.99537  Biso   1.000  H
  H1345    1.0000 0.25537  0.55883  0.00463  Biso   1.000  H
  H1346    1.0000 0.44117  0.69653  0.00463  Biso   1.000  H
  H1347    1.0000 0.89217  0.92203  0.66203  Biso   1.000  H
  H1348    1.0000 0.30347  0.74463  0.00463  Biso   1.000  H
  H1349    1.0000 0.07797  0.97013  0.66203  Biso   1.000  H
  H1350    1.0000 0.02987  0.10783  0.66203  Biso   1.000  H
  H1351    1.0000 0.59110  0.16900  0.66920  Biso   1.000  H
  H1352    1.0000 0.83100  0.42210  0.66920  Biso   1.000  H
  H1353    1.0000 0.16900  0.59110  0.33080  Biso   1.000  H
  H1354    1.0000 0.57790  0.40890  0.66920  Biso   1.000  H
  H1355    1.0000 0.40890  0.57790  0.33080  Biso   1.000  H
  H1356    1.0000 0.42210  0.83100  0.33080  Biso   1.000  H
  H1357    1.0000 0.92443  0.83567  0.33587  Biso   1.000  H
  H1358    1.0000 0.16433  0.08877  0.33587  Biso   1.000  H
  H1359    1.0000 0.50233  0.25777  0.99747  Biso   1.000  H
  H1360    1.0000 0.91123  0.07557  0.33587  Biso   1.000  H
  H1361    1.0000 0.74223  0.24457  0.99747  Biso   1.000  H
  H1362    1.0000 0.75543  0.49767  0.99747  Biso   1.000  H
  H1363    1.0000 0.25777  0.50233  0.00253  Biso   1.000  H
  H1364    1.0000 0.49767  0.75543  0.00253  Biso   1.000  H
  H1365    1.0000 0.83567  0.92443  0.66413  Biso   1.000  H
  H1366    1.0000 0.24457  0.74223  0.00253  Biso   1.000  H
  H1367    1.0000 0.07557  0.91123  0.66413  Biso   1.000  H
  H1368    1.0000 0.08877  0.16433  0.66413  Biso   1.000  H
  H1369    1.0000 0.60650  0.20290  0.69630  Biso   1.000  H
  H1370    1.0000 0.79710  0.40360  0.69630  Biso   1.000  H
  H1371    1.0000 0.20290  0.60650  0.30370  Biso   1.000  H
  H1372    1.0000 0.59640  0.39350  0.69630  Biso   1.000  H
  H1373    1.0000 0.39350  0.59640  0.30370  Biso   1.000  H
  H1374    1.0000 0.40360  0.79710  0.30370  Biso   1.000  H
  H1375    1.0000 0.93983  0.86957  0.36297  Biso   1.000  H
  H1376    1.0000 0.13043  0.07027  0.36297  Biso   1.000  H
  H1377    1.0000 0.53623  0.27317  0.97037  Biso   1.000  H
  H1378    1.0000 0.92973  0.06017  0.36297  Biso   1.000  H
  H1379    1.0000 0.72683  0.26307  0.97037  Biso   1.000  H
  H1380    1.0000 0.73693  0.46377  0.97037  Biso   1.000  H
  H1381    1.0000 0.27317  0.53623  0.02963  Biso   1.000  H
  H1382    1.0000 0.46377  0.73693  0.02963  Biso   1.000  H
  H1383    1.0000 0.86957  0.93983  0.63703  Biso   1.000  H
  H1384    1.0000 0.26307  0.72683  0.02963  Biso   1.000  H
  H1385    1.0000 0.06017  0.92973  0.63703  Biso   1.000  H
  H1386    1.0000 0.07027  0.13043  0.63703  Biso   1.000  H
  Cl73     1.0000 0.57300  0.05400  0.77100  Biso   1.000  Cl
  Cl74     1.0000 0.94600  0.51900  0.77100  Biso   1.000  Cl
  Cl75     1.0000 0.05400  0.57300  0.22900  Biso   1.000  Cl
  Cl76     1.0000 0.48100  0.42700  0.77100  Biso   1.000  Cl
  Cl77     1.0000 0.42700  0.48100  0.22900  Biso   1.000  Cl
  Cl78     1.0000 0.51900  0.94600  0.22900  Biso   1.000  Cl
  Cl79     1.0000 0.90633  0.72067  0.43767  Biso   1.000  Cl
  Cl80     1.0000 0.27933  0.18567  0.43767  Biso   1.000  Cl
  Cl81     1.0000 0.38733  0.23967  0.89567  Biso   1.000  Cl
  Cl82     1.0000 0.81433  0.09367  0.43767  Biso   1.000  Cl
  Cl83     1.0000 0.76033  0.14767  0.89567  Biso   1.000  Cl
  Cl84     1.0000 0.85233  0.61267  0.89567  Biso   1.000  Cl
  Cl85     1.0000 0.23967  0.38733  0.10433  Biso   1.000  Cl
  Cl86     1.0000 0.61267  0.85233  0.10433  Biso   1.000  Cl
  Cl87     1.0000 0.72067  0.90633  0.56233  Biso   1.000  Cl
  Cl88     1.0000 0.14767  0.76033  0.10433  Biso   1.000  Cl
  Cl89     1.0000 0.09367  0.81433  0.56233  Biso   1.000  Cl
  Cl90     1.0000 0.18567  0.27933  0.56233  Biso   1.000  Cl
