data_image0
_cell_length_a       34.2896
_cell_length_b       34.2896
_cell_length_c       34.2896
_cell_angle_alpha    90
_cell_angle_beta     90
_cell_angle_gamma    90

_symmetry_space_group_name_H-M    "P 1"
_symmetry_int_tables_number       1

loop_
  _symmetry_equiv_pos_as_xyz
  'x, y, z'

loop_
  _atom_site_label
  _atom_site_occupancy
  _atom_site_fract_x
  _atom_site_fract_y
  _atom_site_fract_z
  _atom_site_thermal_displace_type
  _atom_site_B_iso_or_equiv
  _atom_site_type_symbol
  Cu1      1.0000 0.99851  0.64602  0.07544  Biso   1.000  Cu
  Cu2      1.0000 0.50149  0.35398  0.57544  Biso   1.000  Cu
  Cu3      1.0000 0.00149  0.14602  0.42456  Biso   1.000  Cu
  Cu4      1.0000 0.49851  0.85398  0.92456  Biso   1.000  Cu
  Cu5      1.0000 0.07544  0.99851  0.64602  Biso   1.000  Cu
  Cu6      1.0000 0.57544  0.50149  0.35398  Biso   1.000  Cu
  Cu7      1.0000 0.42456  0.00149  0.14602  Biso   1.000  Cu
  Cu8      1.0000 0.92456  0.49851  0.85398  Biso   1.000  Cu
  Cu9      1.0000 0.64602  0.07544  0.99851  Biso   1.000  Cu
  Cu10     1.0000 0.35398  0.57544  0.50149  Biso   1.000  Cu
  Cu11     1.0000 0.14602  0.42456  0.00149  Biso   1.000  Cu
  Cu12     1.0000 0.85398  0.92456  0.49851  Biso   1.000  Cu
  Cu13     1.0000 0.39602  0.24851  0.17456  Biso   1.000  Cu
  Cu14     1.0000 0.10398  0.75149  0.67456  Biso   1.000  Cu
  Cu15     1.0000 0.89602  0.25149  0.82544  Biso   1.000  Cu
  Cu16     1.0000 0.60398  0.74851  0.32544  Biso   1.000  Cu
  Cu17     1.0000 0.74851  0.32544  0.60398  Biso   1.000  Cu
  Cu18     1.0000 0.25149  0.82544  0.89602  Biso   1.000  Cu
  Cu19     1.0000 0.75149  0.67456  0.10398  Biso   1.000  Cu
  Cu20     1.0000 0.24851  0.17456  0.39602  Biso   1.000  Cu
  Cu21     1.0000 0.82544  0.89602  0.25149  Biso   1.000  Cu
  Cu22     1.0000 0.32544  0.60398  0.74851  Biso   1.000  Cu
  Cu23     1.0000 0.17456  0.39602  0.24851  Biso   1.000  Cu
  Cu24     1.0000 0.67456  0.10398  0.75149  Biso   1.000  Cu
  Cu25     1.0000 0.49851  0.14602  0.57544  Biso   1.000  Cu
  Cu26     1.0000 0.00149  0.85398  0.07544  Biso   1.000  Cu
  Cu27     1.0000 0.50149  0.64602  0.92456  Biso   1.000  Cu
  Cu28     1.0000 0.99851  0.35398  0.42456  Biso   1.000  Cu
  Cu29     1.0000 0.57544  0.49851  0.14602  Biso   1.000  Cu
  Cu30     1.0000 0.07544  0.00149  0.85398  Biso   1.000  Cu
  Cu31     1.0000 0.92456  0.50149  0.64602  Biso   1.000  Cu
  Cu32     1.0000 0.42456  0.99851  0.35398  Biso   1.000  Cu
  Cu33     1.0000 0.14602  0.57544  0.49851  Biso   1.000  Cu
  Cu34     1.0000 0.85398  0.07544  0.00149  Biso   1.000  Cu
  Cu35     1.0000 0.64602  0.92456  0.50149  Biso   1.000  Cu
  Cu36     1.0000 0.35398  0.42456  0.99851  Biso   1.000  Cu
  Cu37     1.0000 0.89602  0.74851  0.67456  Biso   1.000  Cu
  Cu38     1.0000 0.60398  0.25149  0.17456  Biso   1.000  Cu
  Cu39     1.0000 0.39602  0.75149  0.32544  Biso   1.000  Cu
  Cu40     1.0000 0.10398  0.24851  0.82544  Biso   1.000  Cu
  Cu41     1.0000 0.24851  0.82544  0.10398  Biso   1.000  Cu
  Cu42     1.0000 0.75149  0.32544  0.39602  Biso   1.000  Cu
  Cu43     1.0000 0.25149  0.17456  0.60398  Biso   1.000  Cu
  Cu44     1.0000 0.74851  0.67456  0.89602  Biso   1.000  Cu
  Cu45     1.0000 0.32544  0.39602  0.75149  Biso   1.000  Cu
  Cu46     1.0000 0.82544  0.10398  0.24851  Biso   1.000  Cu
  Cu47     1.0000 0.67456  0.89602  0.74851  Biso   1.000  Cu
  Cu48     1.0000 0.17456  0.60398  0.25149  Biso   1.000  Cu
  Cu49     1.0000 0.00149  0.35398  0.92456  Biso   1.000  Cu
  Cu50     1.0000 0.49851  0.64602  0.42456  Biso   1.000  Cu
  Cu51     1.0000 0.99851  0.85398  0.57544  Biso   1.000  Cu
  Cu52     1.0000 0.50149  0.14602  0.07544  Biso   1.000  Cu
  Cu53     1.0000 0.92456  0.00149  0.35398  Biso   1.000  Cu
  Cu54     1.0000 0.42456  0.49851  0.64602  Biso   1.000  Cu
  Cu55     1.0000 0.57544  0.99851  0.85398  Biso   1.000  Cu
  Cu56     1.0000 0.07544  0.50149  0.14602  Biso   1.000  Cu
  Cu57     1.0000 0.35398  0.92456  0.00149  Biso   1.000  Cu
  Cu58     1.0000 0.64602  0.42456  0.49851  Biso   1.000  Cu
  Cu59     1.0000 0.85398  0.57544  0.99851  Biso   1.000  Cu
  Cu60     1.0000 0.14602  0.07544  0.50149  Biso   1.000  Cu
  Cu61     1.0000 0.10398  0.25149  0.32544  Biso   1.000  Cu
  Cu62     1.0000 0.39602  0.74851  0.82544  Biso   1.000  Cu
  Cu63     1.0000 0.60398  0.24851  0.67456  Biso   1.000  Cu
  Cu64     1.0000 0.89602  0.75149  0.17456  Biso   1.000  Cu
  Cu65     1.0000 0.75149  0.17456  0.89602  Biso   1.000  Cu
  Cu66     1.0000 0.24851  0.67456  0.60398  Biso   1.000  Cu
  Cu67     1.0000 0.74851  0.82544  0.39602  Biso   1.000  Cu
  Cu68     1.0000 0.25149  0.32544  0.10398  Biso   1.000  Cu
  Cu69     1.0000 0.67456  0.60398  0.24851  Biso   1.000  Cu
  Cu70     1.0000 0.17456  0.89602  0.75149  Biso   1.000  Cu
  Cu71     1.0000 0.32544  0.10398  0.25149  Biso   1.000  Cu
  Cu72     1.0000 0.82544  0.39602  0.74851  Biso   1.000  Cu
  Cu73     1.0000 0.50149  0.85398  0.42456  Biso   1.000  Cu
  Cu74     1.0000 0.99851  0.14602  0.92456  Biso   1.000  Cu
  Cu75     1.0000 0.49851  0.35398  0.07544  Biso   1.000  Cu
  Cu76     1.0000 0.00149  0.64602  0.57544  Biso   1.000  Cu
  Cu77     1.0000 0.42456  0.50149  0.85398  Biso   1.000  Cu
  Cu78     1.0000 0.92456  0.99851  0.14602  Biso   1.000  Cu
  Cu79     1.0000 0.07544  0.49851  0.35398  Biso   1.000  Cu
  Cu80     1.0000 0.57544  0.00149  0.64602  Biso   1.000  Cu
  Cu81     1.0000 0.85398  0.42456  0.50149  Biso   1.000  Cu
  Cu82     1.0000 0.14602  0.92456  0.99851  Biso   1.000  Cu
  Cu83     1.0000 0.35398  0.07544  0.49851  Biso   1.000  Cu
  Cu84     1.0000 0.64602  0.57544  0.00149  Biso   1.000  Cu
  Cu85     1.0000 0.60398  0.75149  0.82544  Biso   1.000  Cu
  Cu86     1.0000 0.89602  0.24851  0.32544  Biso   1.000  Cu
  Cu87     1.0000 0.10398  0.74851  0.17456  Biso   1.000  Cu
  Cu88     1.0000 0.39602  0.25149  0.67456  Biso   1.000  Cu
  Cu89     1.0000 0.25149  0.67456  0.39602  Biso   1.000  Cu
  Cu90     1.0000 0.74851  0.17456  0.10398  Biso   1.000  Cu
  Cu91     1.0000 0.24851  0.32544  0.89602  Biso   1.000  Cu
  Cu92     1.0000 0.75149  0.82544  0.60398  Biso   1.000  Cu
  Cu93     1.0000 0.17456  0.10398  0.74851  Biso   1.000  Cu
  Cu94     1.0000 0.67456  0.39602  0.25149  Biso   1.000  Cu
  Cu95     1.0000 0.82544  0.60398  0.75149  Biso   1.000  Cu
  Cu96     1.0000 0.32544  0.89602  0.24851  Biso   1.000  Cu
  N1       1.0000 0.96245  0.62908  0.03482  Biso   1.000  N
  N2       1.0000 0.53755  0.37092  0.53482  Biso   1.000  N
  N3       1.0000 0.03755  0.12908  0.46518  Biso   1.000  N
  N4       1.0000 0.46245  0.87092  0.96518  Biso   1.000  N
  N5       1.0000 0.03482  0.96245  0.62908  Biso   1.000  N
  N6       1.0000 0.53482  0.53755  0.37092  Biso   1.000  N
  N7       1.0000 0.46518  0.03755  0.12908  Biso   1.000  N
  N8       1.0000 0.96518  0.46245  0.87092  Biso   1.000  N
  N9       1.0000 0.62908  0.03482  0.96245  Biso   1.000  N
  N10      1.0000 0.37092  0.53482  0.53755  Biso   1.000  N
  N11      1.0000 0.12908  0.46518  0.03755  Biso   1.000  N
  N12      1.0000 0.87092  0.96518  0.46245  Biso   1.000  N
  N13      1.0000 0.37908  0.21245  0.21518  Biso   1.000  N
  N14      1.0000 0.12092  0.78755  0.71518  Biso   1.000  N
  N15      1.0000 0.87908  0.28755  0.78482  Biso   1.000  N
  N16      1.0000 0.62092  0.71245  0.28482  Biso   1.000  N
  N17      1.0000 0.71245  0.28482  0.62092  Biso   1.000  N
  N18      1.0000 0.28755  0.78482  0.87908  Biso   1.000  N
  N19      1.0000 0.78755  0.71518  0.12092  Biso   1.000  N
  N20      1.0000 0.21245  0.21518  0.37908  Biso   1.000  N
  N21      1.0000 0.78482  0.87908  0.28755  Biso   1.000  N
  N22      1.0000 0.28482  0.62092  0.71245  Biso   1.000  N
  N23      1.0000 0.21518  0.37908  0.21245  Biso   1.000  N
  N24      1.0000 0.71518  0.12092  0.78755  Biso   1.000  N
  N25      1.0000 0.46245  0.12908  0.53482  Biso   1.000  N
  N26      1.0000 0.03755  0.87092  0.03482  Biso   1.000  N
  N27      1.0000 0.53755  0.62908  0.96518  Biso   1.000  N
  N28      1.0000 0.96245  0.37092  0.46518  Biso   1.000  N
  N29      1.0000 0.53482  0.46245  0.12908  Biso   1.000  N
  N30      1.0000 0.03482  0.03755  0.87092  Biso   1.000  N
  N31      1.0000 0.96518  0.53755  0.62908  Biso   1.000  N
  N32      1.0000 0.46518  0.96245  0.37092  Biso   1.000  N
  N33      1.0000 0.12908  0.53482  0.46245  Biso   1.000  N
  N34      1.0000 0.87092  0.03482  0.03755  Biso   1.000  N
  N35      1.0000 0.62908  0.96518  0.53755  Biso   1.000  N
  N36      1.0000 0.37092  0.46518  0.96245  Biso   1.000  N
  N37      1.0000 0.87908  0.71245  0.71518  Biso   1.000  N
  N38      1.0000 0.62092  0.28755  0.21518  Biso   1.000  N
  N39      1.0000 0.37908  0.78755  0.28482  Biso   1.000  N
  N40      1.0000 0.12092  0.21245  0.78482  Biso   1.000  N
  N41      1.0000 0.21245  0.78482  0.12092  Biso   1.000  N
  N42      1.0000 0.78755  0.28482  0.37908  Biso   1.000  N
  N43      1.0000 0.28755  0.21518  0.62092  Biso   1.000  N
  N44      1.0000 0.71245  0.71518  0.87908  Biso   1.000  N
  N45      1.0000 0.28482  0.37908  0.78755  Biso   1.000  N
  N46      1.0000 0.78482  0.12092  0.21245  Biso   1.000  N
  N47      1.0000 0.71518  0.87908  0.71245  Biso   1.000  N
  N48      1.0000 0.21518  0.62092  0.28755  Biso   1.000  N
  N49      1.0000 0.03755  0.37092  0.96518  Biso   1.000  N
  N50      1.0000 0.46245  0.62908  0.46518  Biso   1.000  N
  N51      1.0000 0.96245  0.87092  0.53482  Biso   1.000  N
  N52      1.0000 0.53755  0.12908  0.03482  Biso   1.000  N
  N53      1.0000 0.96518  0.03755  0.37092  Biso   1.000  N
  N54      1.0000 0.46518  0.46245  0.62908  Biso   1.000  N
  N55      1.0000 0.53482  0.96245  0.87092  Biso   1.000  N
  N56      1.0000 0.03482  0.53755  0.12908  Biso   1.000  N
  N57      1.0000 0.37092  0.96518  0.03755  Biso   1.000  N
  N58      1.0000 0.62908  0.46518  0.46245  Biso   1.000  N
  N59      1.0000 0.87092  0.53482  0.96245  Biso   1.000  N
  N60      1.0000 0.12908  0.03482  0.53755  Biso   1.000  N
  N61      1.0000 0.12092  0.28755  0.28482  Biso   1.000  N
  N62      1.0000 0.37908  0.71245  0.78482  Biso   1.000  N
  N63      1.0000 0.62092  0.21245  0.71518  Biso   1.000  N
  N64      1.0000 0.87908  0.78755  0.21518  Biso   1.000  N
  N65      1.0000 0.78755  0.21518  0.87908  Biso   1.000  N
  N66      1.0000 0.21245  0.71518  0.62092  Biso   1.000  N
  N67      1.0000 0.71245  0.78482  0.37908  Biso   1.000  N
  N68      1.0000 0.28755  0.28482  0.12092  Biso   1.000  N
  N69      1.0000 0.71518  0.62092  0.21245  Biso   1.000  N
  N70      1.0000 0.21518  0.87908  0.78755  Biso   1.000  N
  N71      1.0000 0.28482  0.12092  0.28755  Biso   1.000  N
  N72      1.0000 0.78482  0.37908  0.71245  Biso   1.000  N
  N73      1.0000 0.53755  0.87092  0.46518  Biso   1.000  N
  N74      1.0000 0.96245  0.12908  0.96518  Biso   1.000  N
  N75      1.0000 0.46245  0.37092  0.03482  Biso   1.000  N
  N76      1.0000 0.03755  0.62908  0.53482  Biso   1.000  N
  N77      1.0000 0.46518  0.53755  0.87092  Biso   1.000  N
  N78      1.0000 0.96518  0.96245  0.12908  Biso   1.000  N
  N79      1.0000 0.03482  0.46245  0.37092  Biso   1.000  N
  N80      1.0000 0.53482  0.03755  0.62908  Biso   1.000  N
  N81      1.0000 0.87092  0.46518  0.53755  Biso   1.000  N
  N82      1.0000 0.12908  0.96518  0.96245  Biso   1.000  N
  N83      1.0000 0.37092  0.03482  0.46245  Biso   1.000  N
  N84      1.0000 0.62908  0.53482  0.03755  Biso   1.000  N
  N85      1.0000 0.62092  0.78755  0.78482  Biso   1.000  N
  N86      1.0000 0.87908  0.21245  0.28482  Biso   1.000  N
  N87      1.0000 0.12092  0.71245  0.21518  Biso   1.000  N
  N88      1.0000 0.37908  0.28755  0.71518  Biso   1.000  N
  N89      1.0000 0.28755  0.71518  0.37908  Biso   1.000  N
  N90      1.0000 0.71245  0.21518  0.12092  Biso   1.000  N
  N91      1.0000 0.21245  0.28482  0.87908  Biso   1.000  N
  N92      1.0000 0.78755  0.78482  0.62092  Biso   1.000  N
  N93      1.0000 0.21518  0.12092  0.71245  Biso   1.000  N
  N94      1.0000 0.71518  0.37908  0.28755  Biso   1.000  N
  N95      1.0000 0.78482  0.62092  0.78755  Biso   1.000  N
  N96      1.0000 0.28482  0.87908  0.21245  Biso   1.000  N
  N97      1.0000 0.91173  0.60292  0.00346  Biso   1.000  N
  N98      1.0000 0.58827  0.39708  0.50346  Biso   1.000  N
  N99      1.0000 0.08827  0.10292  0.49654  Biso   1.000  N
  N100     1.0000 0.41173  0.89708  0.99654  Biso   1.000  N
  N101     1.0000 0.00346  0.91173  0.60292  Biso   1.000  N
  N102     1.0000 0.50346  0.58827  0.39708  Biso   1.000  N
  N103     1.0000 0.49654  0.08827  0.10292  Biso   1.000  N
  N104     1.0000 0.99654  0.41173  0.89708  Biso   1.000  N
  N105     1.0000 0.60292  0.00346  0.91173  Biso   1.000  N
  N106     1.0000 0.39708  0.50346  0.58827  Biso   1.000  N
  N107     1.0000 0.10292  0.49654  0.08827  Biso   1.000  N
  N108     1.0000 0.89708  0.99654  0.41173  Biso   1.000  N
  N109     1.0000 0.35292  0.16173  0.24654  Biso   1.000  N
  N110     1.0000 0.14708  0.83827  0.74654  Biso   1.000  N
  N111     1.0000 0.85292  0.33827  0.75346  Biso   1.000  N
  N112     1.0000 0.64708  0.66173  0.25346  Biso   1.000  N
  N113     1.0000 0.66173  0.25346  0.64708  Biso   1.000  N
  N114     1.0000 0.33827  0.75346  0.85292  Biso   1.000  N
  N115     1.0000 0.83827  0.74654  0.14708  Biso   1.000  N
  N116     1.0000 0.16173  0.24654  0.35292  Biso   1.000  N
  N117     1.0000 0.75346  0.85292  0.33827  Biso   1.000  N
  N118     1.0000 0.25346  0.64708  0.66173  Biso   1.000  N
  N119     1.0000 0.24654  0.35292  0.16173  Biso   1.000  N
  N120     1.0000 0.74654  0.14708  0.83827  Biso   1.000  N
  N121     1.0000 0.41173  0.10292  0.50346  Biso   1.000  N
  N122     1.0000 0.08827  0.89708  0.00346  Biso   1.000  N
  N123     1.0000 0.58827  0.60292  0.99654  Biso   1.000  N
  N124     1.0000 0.91173  0.39708  0.49654  Biso   1.000  N
  N125     1.0000 0.50346  0.41173  0.10292  Biso   1.000  N
  N126     1.0000 0.00346  0.08827  0.89708  Biso   1.000  N
  N127     1.0000 0.99654  0.58827  0.60292  Biso   1.000  N
  N128     1.0000 0.49654  0.91173  0.39708  Biso   1.000  N
  N129     1.0000 0.10292  0.50346  0.41173  Biso   1.000  N
  N130     1.0000 0.89708  0.00346  0.08827  Biso   1.000  N
  N131     1.0000 0.60292  0.99654  0.58827  Biso   1.000  N
  N132     1.0000 0.39708  0.49654  0.91173  Biso   1.000  N
  N133     1.0000 0.85292  0.66173  0.74654  Biso   1.000  N
  N134     1.0000 0.64708  0.33827  0.24654  Biso   1.000  N
  N135     1.0000 0.35292  0.83827  0.25346  Biso   1.000  N
  N136     1.0000 0.14708  0.16173  0.75346  Biso   1.000  N
  N137     1.0000 0.16173  0.75346  0.14708  Biso   1.000  N
  N138     1.0000 0.83827  0.25346  0.35292  Biso   1.000  N
  N139     1.0000 0.33827  0.24654  0.64708  Biso   1.000  N
  N140     1.0000 0.66173  0.74654  0.85292  Biso   1.000  N
  N141     1.0000 0.25346  0.35292  0.83827  Biso   1.000  N
  N142     1.0000 0.75346  0.14708  0.16173  Biso   1.000  N
  N143     1.0000 0.74654  0.85292  0.66173  Biso   1.000  N
  N144     1.0000 0.24654  0.64708  0.33827  Biso   1.000  N
  N145     1.0000 0.08827  0.39708  0.99654  Biso   1.000  N
  N146     1.0000 0.41173  0.60292  0.49654  Biso   1.000  N
  N147     1.0000 0.91173  0.89708  0.50346  Biso   1.000  N
  N148     1.0000 0.58827  0.10292  0.00346  Biso   1.000  N
  N149     1.0000 0.99654  0.08827  0.39708  Biso   1.000  N
  N150     1.0000 0.49654  0.41173  0.60292  Biso   1.000  N
  N151     1.0000 0.50346  0.91173  0.89708  Biso   1.000  N
  N152     1.0000 0.00346  0.58827  0.10292  Biso   1.000  N
  N153     1.0000 0.39708  0.99654  0.08827  Biso   1.000  N
  N154     1.0000 0.60292  0.49654  0.41173  Biso   1.000  N
  N155     1.0000 0.89708  0.50346  0.91173  Biso   1.000  N
  N156     1.0000 0.10292  0.00346  0.58827  Biso   1.000  N
  N157     1.0000 0.14708  0.33827  0.25346  Biso   1.000  N
  N158     1.0000 0.35292  0.66173  0.75346  Biso   1.000  N
  N159     1.0000 0.64708  0.16173  0.74654  Biso   1.000  N
  N160     1.0000 0.85292  0.83827  0.24654  Biso   1.000  N
  N161     1.0000 0.83827  0.24654  0.85292  Biso   1.000  N
  N162     1.0000 0.16173  0.74654  0.64708  Biso   1.000  N
  N163     1.0000 0.66173  0.75346  0.35292  Biso   1.000  N
  N164     1.0000 0.33827  0.25346  0.14708  Biso   1.000  N
  N165     1.0000 0.74654  0.64708  0.16173  Biso   1.000  N
  N166     1.0000 0.24654  0.85292  0.83827  Biso   1.000  N
  N167     1.0000 0.25346  0.14708  0.33827  Biso   1.000  N
  N168     1.0000 0.75346  0.35292  0.66173  Biso   1.000  N
  N169     1.0000 0.58827  0.89708  0.49654  Biso   1.000  N
  N170     1.0000 0.91173  0.10292  0.99654  Biso   1.000  N
  N171     1.0000 0.41173  0.39708  0.00346  Biso   1.000  N
  N172     1.0000 0.08827  0.60292  0.50346  Biso   1.000  N
  N173     1.0000 0.49654  0.58827  0.89708  Biso   1.000  N
  N174     1.0000 0.99654  0.91173  0.10292  Biso   1.000  N
  N175     1.0000 0.00346  0.41173  0.39708  Biso   1.000  N
  N176     1.0000 0.50346  0.08827  0.60292  Biso   1.000  N
  N177     1.0000 0.89708  0.49654  0.58827  Biso   1.000  N
  N178     1.0000 0.10292  0.99654  0.91173  Biso   1.000  N
  N179     1.0000 0.39708  0.00346  0.41173  Biso   1.000  N
  N180     1.0000 0.60292  0.50346  0.08827  Biso   1.000  N
  N181     1.0000 0.64708  0.83827  0.75346  Biso   1.000  N
  N182     1.0000 0.85292  0.16173  0.25346  Biso   1.000  N
  N183     1.0000 0.14708  0.66173  0.24654  Biso   1.000  N
  N184     1.0000 0.35292  0.33827  0.74654  Biso   1.000  N
  N185     1.0000 0.33827  0.74654  0.35292  Biso   1.000  N
  N186     1.0000 0.66173  0.24654  0.14708  Biso   1.000  N
  N187     1.0000 0.16173  0.25346  0.85292  Biso   1.000  N
  N188     1.0000 0.83827  0.75346  0.64708  Biso   1.000  N
  N189     1.0000 0.24654  0.14708  0.66173  Biso   1.000  N
  N190     1.0000 0.74654  0.35292  0.33827  Biso   1.000  N
  N191     1.0000 0.75346  0.64708  0.83827  Biso   1.000  N
  N192     1.0000 0.25346  0.85292  0.16173  Biso   1.000  N
  C1       1.0000 0.92406  0.62393  0.03370  Biso   1.000  C
  C2       1.0000 0.57594  0.37607  0.53370  Biso   1.000  C
  C3       1.0000 0.07594  0.12393  0.46630  Biso   1.000  C
  C4       1.0000 0.42406  0.87607  0.96630  Biso   1.000  C
  C5       1.0000 0.03370  0.92406  0.62393  Biso   1.000  C
  C6       1.0000 0.53370  0.57594  0.37607  Biso   1.000  C
  C7       1.0000 0.46630  0.07594  0.12393  Biso   1.000  C
  C8       1.0000 0.96630  0.42406  0.87607  Biso   1.000  C
  C9       1.0000 0.62393  0.03370  0.92406  Biso   1.000  C
  C10      1.0000 0.37607  0.53370  0.57594  Biso   1.000  C
  C11      1.0000 0.12393  0.46630  0.07594  Biso   1.000  C
  C12      1.0000 0.87607  0.96630  0.42406  Biso   1.000  C
  C13      1.0000 0.37393  0.17406  0.21630  Biso   1.000  C
  C14      1.0000 0.12607  0.82594  0.71630  Biso   1.000  C
  C15      1.0000 0.87393  0.32594  0.78370  Biso   1.000  C
  C16      1.0000 0.62607  0.67406  0.28370  Biso   1.000  C
  C17      1.0000 0.67406  0.28370  0.62607  Biso   1.000  C
  C18      1.0000 0.32594  0.78370  0.87393  Biso   1.000  C
  C19      1.0000 0.82594  0.71630  0.12607  Biso   1.000  C
  C20      1.0000 0.17406  0.21630  0.37393  Biso   1.000  C
  C21      1.0000 0.78370  0.87393  0.32594  Biso   1.000  C
  C22      1.0000 0.28370  0.62607  0.67406  Biso   1.000  C
  C23      1.0000 0.21630  0.37393  0.17406  Biso   1.000  C
  C24      1.0000 0.71630  0.12607  0.82594  Biso   1.000  C
  C25      1.0000 0.42406  0.12393  0.53370  Biso   1.000  C
  C26      1.0000 0.07594  0.87607  0.03370  Biso   1.000  C
  C27      1.0000 0.57594  0.62393  0.96630  Biso   1.000  C
  C28      1.0000 0.92406  0.37607  0.46630  Biso   1.000  C
  C29      1.0000 0.53370  0.42406  0.12393  Biso   1.000  C
  C30      1.0000 0.03370  0.07594  0.87607  Biso   1.000  C
  C31      1.0000 0.96630  0.57594  0.62393  Biso   1.000  C
  C32      1.0000 0.46630  0.92406  0.37607  Biso   1.000  C
  C33      1.0000 0.12393  0.53370  0.42406  Biso   1.000  C
  C34      1.0000 0.87607  0.03370  0.07594  Biso   1.000  C
  C35      1.0000 0.62393  0.96630  0.57594  Biso   1.000  C
  C36      1.0000 0.37607  0.46630  0.92406  Biso   1.000  C
  C37      1.0000 0.87393  0.67406  0.71630  Biso   1.000  C
  C38      1.0000 0.62607  0.32594  0.21630  Biso   1.000  C
  C39      1.0000 0.37393  0.82594  0.28370  Biso   1.000  C
  C40      1.0000 0.12607  0.17406  0.78370  Biso   1.000  C
  C41      1.0000 0.17406  0.78370  0.12607  Biso   1.000  C
  C42      1.0000 0.82594  0.28370  0.37393  Biso   1.000  C
  C43      1.0000 0.32594  0.21630  0.62607  Biso   1.000  C
  C44      1.0000 0.67406  0.71630  0.87393  Biso   1.000  C
  C45      1.0000 0.28370  0.37393  0.82594  Biso   1.000  C
  C46      1.0000 0.78370  0.12607  0.17406  Biso   1.000  C
  C47      1.0000 0.71630  0.87393  0.67406  Biso   1.000  C
  C48      1.0000 0.21630  0.62607  0.32594  Biso   1.000  C
  C49      1.0000 0.07594  0.37607  0.96630  Biso   1.000  C
  C50      1.0000 0.42406  0.62393  0.46630  Biso   1.000  C
  C51      1.0000 0.92406  0.87607  0.53370  Biso   1.000  C
  C52      1.0000 0.57594  0.12393  0.03370  Biso   1.000  C
  C53      1.0000 0.96630  0.07594  0.37607  Biso   1.000  C
  C54      1.0000 0.46630  0.42406  0.62393  Biso   1.000  C
  C55      1.0000 0.53370  0.92406  0.87607  Biso   1.000  C
  C56      1.0000 0.03370  0.57594  0.12393  Biso   1.000  C
  C57      1.0000 0.37607  0.96630  0.07594  Biso   1.000  C
  C58      1.0000 0.62393  0.46630  0.42406  Biso   1.000  C
  C59      1.0000 0.87607  0.53370  0.92406  Biso   1.000  C
  C60      1.0000 0.12393  0.03370  0.57594  Biso   1.000  C
  C61      1.0000 0.12607  0.32594  0.28370  Biso   1.000  C
  C62      1.0000 0.37393  0.67406  0.78370  Biso   1.000  C
  C63      1.0000 0.62607  0.17406  0.71630  Biso   1.000  C
  C64      1.0000 0.87393  0.82594  0.21630  Biso   1.000  C
  C65      1.0000 0.82594  0.21630  0.87393  Biso   1.000  C
  C66      1.0000 0.17406  0.71630  0.62607  Biso   1.000  C
  C67      1.0000 0.67406  0.78370  0.37393  Biso   1.000  C
  C68      1.0000 0.32594  0.28370  0.12607  Biso   1.000  C
  C69      1.0000 0.71630  0.62607  0.17406  Biso   1.000  C
  C70      1.0000 0.21630  0.87393  0.82594  Biso   1.000  C
  C71      1.0000 0.28370  0.12607  0.32594  Biso   1.000  C
  C72      1.0000 0.78370  0.37393  0.67406  Biso   1.000  C
  C73      1.0000 0.57594  0.87607  0.46630  Biso   1.000  C
  C74      1.0000 0.92406  0.12393  0.96630  Biso   1.000  C
  C75      1.0000 0.42406  0.37607  0.03370  Biso   1.000  C
  C76      1.0000 0.07594  0.62393  0.53370  Biso   1.000  C
  C77      1.0000 0.46630  0.57594  0.87607  Biso   1.000  C
  C78      1.0000 0.96630  0.92406  0.12393  Biso   1.000  C
  C79      1.0000 0.03370  0.42406  0.37607  Biso   1.000  C
  C80      1.0000 0.53370  0.07594  0.62393  Biso   1.000  C
  C81      1.0000 0.87607  0.46630  0.57594  Biso   1.000  C
  C82      1.0000 0.12393  0.96630  0.92406  Biso   1.000  C
  C83      1.0000 0.37607  0.03370  0.42406  Biso   1.000  C
  C84      1.0000 0.62393  0.53370  0.07594  Biso   1.000  C
  C85      1.0000 0.62607  0.82594  0.78370  Biso   1.000  C
  C86      1.0000 0.87393  0.17406  0.28370  Biso   1.000  C
  C87      1.0000 0.12607  0.67406  0.21630  Biso   1.000  C
  C88      1.0000 0.37393  0.32594  0.71630  Biso   1.000  C
  C89      1.0000 0.32594  0.71630  0.37393  Biso   1.000  C
  C90      1.0000 0.67406  0.21630  0.12607  Biso   1.000  C
  C91      1.0000 0.17406  0.28370  0.87393  Biso   1.000  C
  C92      1.0000 0.82594  0.78370  0.62607  Biso   1.000  C
  C93      1.0000 0.21630  0.12607  0.67406  Biso   1.000  C
  C94      1.0000 0.71630  0.37393  0.32594  Biso   1.000  C
  C95      1.0000 0.78370  0.62607  0.82594  Biso   1.000  C
  C96      1.0000 0.28370  0.87393  0.17406  Biso   1.000  C
  H1       1.0000 0.90730  0.63410  0.05240  Biso   1.000  H
  H2       1.0000 0.59270  0.36590  0.55240  Biso   1.000  H
  H3       1.0000 0.09270  0.13410  0.44760  Biso   1.000  H
  H4       1.0000 0.40730  0.86590  0.94760  Biso   1.000  H
  H5       1.0000 0.05240  0.90730  0.63410  Biso   1.000  H
  H6       1.0000 0.55240  0.59270  0.36590  Biso   1.000  H
  H7       1.0000 0.44760  0.09270  0.13410  Biso   1.000  H
  H8       1.0000 0.94760  0.40730  0.86590  Biso   1.000  H
  H9       1.0000 0.63410  0.05240  0.90730  Biso   1.000  H
  H10      1.0000 0.36590  0.55240  0.59270  Biso   1.000  H
  H11      1.0000 0.13410  0.44760  0.09270  Biso   1.000  H
  H12      1.0000 0.86590  0.94760  0.40730  Biso   1.000  H
  H13      1.0000 0.38410  0.15730  0.19760  Biso   1.000  H
  H14      1.0000 0.11590  0.84270  0.69760  Biso   1.000  H
  H15      1.0000 0.88410  0.34270  0.80240  Biso   1.000  H
  H16      1.0000 0.61590  0.65730  0.30240  Biso   1.000  H
  H17      1.0000 0.65730  0.30240  0.61590  Biso   1.000  H
  H18      1.0000 0.34270  0.80240  0.88410  Biso   1.000  H
  H19      1.0000 0.84270  0.69760  0.11590  Biso   1.000  H
  H20      1.0000 0.15730  0.19760  0.38410  Biso   1.000  H
  H21      1.0000 0.80240  0.88410  0.34270  Biso   1.000  H
  H22      1.0000 0.30240  0.61590  0.65730  Biso   1.000  H
  H23      1.0000 0.19760  0.38410  0.15730  Biso   1.000  H
  H24      1.0000 0.69760  0.11590  0.84270  Biso   1.000  H
  H25      1.0000 0.40730  0.13410  0.55240  Biso   1.000  H
  H26      1.0000 0.09270  0.86590  0.05240  Biso   1.000  H
  H27      1.0000 0.59270  0.63410  0.94760  Biso   1.000  H
  H28      1.0000 0.90730  0.36590  0.44760  Biso   1.000  H
  H29      1.0000 0.55240  0.40730  0.13410  Biso   1.000  H
  H30      1.0000 0.05240  0.09270  0.86590  Biso   1.000  H
  H31      1.0000 0.94760  0.59270  0.63410  Biso   1.000  H
  H32      1.0000 0.44760  0.90730  0.36590  Biso   1.000  H
  H33      1.0000 0.13410  0.55240  0.40730  Biso   1.000  H
  H34      1.0000 0.86590  0.05240  0.09270  Biso   1.000  H
  H35      1.0000 0.63410  0.94760  0.59270  Biso   1.000  H
  H36      1.0000 0.36590  0.44760  0.90730  Biso   1.000  H
  H37      1.0000 0.88410  0.65730  0.69760  Biso   1.000  H
  H38      1.0000 0.61590  0.34270  0.19760  Biso   1.000  H
  H39      1.0000 0.38410  0.84270  0.30240  Biso   1.000  H
  H40      1.0000 0.11590  0.15730  0.80240  Biso   1.000  H
  H41      1.0000 0.15730  0.80240  0.11590  Biso   1.000  H
  H42      1.0000 0.84270  0.30240  0.38410  Biso   1.000  H
  H43      1.0000 0.34270  0.19760  0.61590  Biso   1.000  H
  H44      1.0000 0.65730  0.69760  0.88410  Biso   1.000  H
  H45      1.0000 0.30240  0.38410  0.84270  Biso   1.000  H
  H46      1.0000 0.80240  0.11590  0.15730  Biso   1.000  H
  H47      1.0000 0.69760  0.88410  0.65730  Biso   1.000  H
  H48      1.0000 0.19760  0.61590  0.34270  Biso   1.000  H
  H49      1.0000 0.09270  0.36590  0.94760  Biso   1.000  H
  H50      1.0000 0.40730  0.63410  0.44760  Biso   1.000  H
  H51      1.0000 0.90730  0.86590  0.55240  Biso   1.000  H
  H52      1.0000 0.59270  0.13410  0.05240  Biso   1.000  H
  H53      1.0000 0.94760  0.09270  0.36590  Biso   1.000  H
  H54      1.0000 0.44760  0.40730  0.63410  Biso   1.000  H
  H55      1.0000 0.55240  0.90730  0.86590  Biso   1.000  H
  H56      1.0000 0.05240  0.59270  0.13410  Biso   1.000  H
  H57      1.0000 0.36590  0.94760  0.09270  Biso   1.000  H
  H58      1.0000 0.63410  0.44760  0.40730  Biso   1.000  H
  H59      1.0000 0.86590  0.55240  0.90730  Biso   1.000  H
  H60      1.0000 0.13410  0.05240  0.59270  Biso   1.000  H
  H61      1.0000 0.11590  0.34270  0.30240  Biso   1.000  H
  H62      1.0000 0.38410  0.65730  0.80240  Biso   1.000  H
  H63      1.0000 0.61590  0.15730  0.69760  Biso   1.000  H
  H64      1.0000 0.88410  0.84270  0.19760  Biso   1.000  H
  H65      1.0000 0.84270  0.19760  0.88410  Biso   1.000  H
  H66      1.0000 0.15730  0.69760  0.61590  Biso   1.000  H
  H67      1.0000 0.65730  0.80240  0.38410  Biso   1.000  H
  H68      1.0000 0.34270  0.30240  0.11590  Biso   1.000  H
  H69      1.0000 0.69760  0.61590  0.15730  Biso   1.000  H
  H70      1.0000 0.19760  0.88410  0.84270  Biso   1.000  H
  H71      1.0000 0.30240  0.11590  0.34270  Biso   1.000  H
  H72      1.0000 0.80240  0.38410  0.65730  Biso   1.000  H
  H73      1.0000 0.59270  0.86590  0.44760  Biso   1.000  H
  H74      1.0000 0.90730  0.13410  0.94760  Biso   1.000  H
  H75      1.0000 0.40730  0.36590  0.05240  Biso   1.000  H
  H76      1.0000 0.09270  0.63410  0.55240  Biso   1.000  H
  H77      1.0000 0.44760  0.59270  0.86590  Biso   1.000  H
  H78      1.0000 0.94760  0.90730  0.13410  Biso   1.000  H
  H79      1.0000 0.05240  0.40730  0.36590  Biso   1.000  H
  H80      1.0000 0.55240  0.09270  0.63410  Biso   1.000  H
  H81      1.0000 0.86590  0.44760  0.59270  Biso   1.000  H
  H82      1.0000 0.13410  0.94760  0.90730  Biso   1.000  H
  H83      1.0000 0.36590  0.05240  0.40730  Biso   1.000  H
  H84      1.0000 0.63410  0.55240  0.09270  Biso   1.000  H
  H85      1.0000 0.61590  0.84270  0.80240  Biso   1.000  H
  H86      1.0000 0.88410  0.15730  0.30240  Biso   1.000  H
  H87      1.0000 0.11590  0.65730  0.19760  Biso   1.000  H
  H88      1.0000 0.38410  0.34270  0.69760  Biso   1.000  H
  H89      1.0000 0.34270  0.69760  0.38410  Biso   1.000  H
  H90      1.0000 0.65730  0.19760  0.11590  Biso   1.000  H
  H91      1.0000 0.15730  0.30240  0.88410  Biso   1.000  H
  H92      1.0000 0.84270  0.80240  0.61590  Biso   1.000  H
  H93      1.0000 0.19760  0.11590  0.65730  Biso   1.000  H
  H94      1.0000 0.69760  0.38410  0.34270  Biso   1.000  H
  H95      1.0000 0.80240  0.61590  0.84270  Biso   1.000  H
  H96      1.0000 0.30240  0.88410  0.15730  Biso   1.000  H
  N193     1.0000 0.04122  0.67325  0.10201  Biso   1.000  N
  N194     1.0000 0.45878  0.32675  0.60201  Biso   1.000  N
  N195     1.0000 0.95878  0.17325  0.39799  Biso   1.000  N
  N196     1.0000 0.54122  0.82675  0.89799  Biso   1.000  N
  N197     1.0000 0.10201  0.04122  0.67325  Biso   1.000  N
  N198     1.0000 0.60201  0.45878  0.32675  Biso   1.000  N
  N199     1.0000 0.39799  0.95878  0.17325  Biso   1.000  N
  N200     1.0000 0.89799  0.54122  0.82675  Biso   1.000  N
  N201     1.0000 0.67325  0.10201  0.04122  Biso   1.000  N
  N202     1.0000 0.32675  0.60201  0.45878  Biso   1.000  N
  N203     1.0000 0.17325  0.39799  0.95878  Biso   1.000  N
  N204     1.0000 0.82675  0.89799  0.54122  Biso   1.000  N
  N205     1.0000 0.42325  0.29122  0.14799  Biso   1.000  N
  N206     1.0000 0.07675  0.70878  0.64799  Biso   1.000  N
  N207     1.0000 0.92325  0.20878  0.85201  Biso   1.000  N
  N208     1.0000 0.57675  0.79122  0.35201  Biso   1.000  N
  N209     1.0000 0.79122  0.35201  0.57675  Biso   1.000  N
  N210     1.0000 0.20878  0.85201  0.92325  Biso   1.000  N
  N211     1.0000 0.70878  0.64799  0.07675  Biso   1.000  N
  N212     1.0000 0.29122  0.14799  0.42325  Biso   1.000  N
  N213     1.0000 0.85201  0.92325  0.20878  Biso   1.000  N
  N214     1.0000 0.35201  0.57675  0.79122  Biso   1.000  N
  N215     1.0000 0.14799  0.42325  0.29122  Biso   1.000  N
  N216     1.0000 0.64799  0.07675  0.70878  Biso   1.000  N
  N217     1.0000 0.54122  0.17325  0.60201  Biso   1.000  N
  N218     1.0000 0.95878  0.82675  0.10201  Biso   1.000  N
  N219     1.0000 0.45878  0.67325  0.89799  Biso   1.000  N
  N220     1.0000 0.04122  0.32675  0.39799  Biso   1.000  N
  N221     1.0000 0.60201  0.54122  0.17325  Biso   1.000  N
  N222     1.0000 0.10201  0.95878  0.82675  Biso   1.000  N
  N223     1.0000 0.89799  0.45878  0.67325  Biso   1.000  N
  N224     1.0000 0.39799  0.04122  0.32675  Biso   1.000  N
  N225     1.0000 0.17325  0.60201  0.54122  Biso   1.000  N
  N226     1.0000 0.82675  0.10201  0.95878  Biso   1.000  N
  N227     1.0000 0.67325  0.89799  0.45878  Biso   1.000  N
  N228     1.0000 0.32675  0.39799  0.04122  Biso   1.000  N
  N229     1.0000 0.92325  0.79122  0.64799  Biso   1.000  N
  N230     1.0000 0.57675  0.20878  0.14799  Biso   1.000  N
  N231     1.0000 0.42325  0.70878  0.35201  Biso   1.000  N
  N232     1.0000 0.07675  0.29122  0.85201  Biso   1.000  N
  N233     1.0000 0.29122  0.85201  0.07675  Biso   1.000  N
  N234     1.0000 0.70878  0.35201  0.42325  Biso   1.000  N
  N235     1.0000 0.20878  0.14799  0.57675  Biso   1.000  N
  N236     1.0000 0.79122  0.64799  0.92325  Biso   1.000  N
  N237     1.0000 0.35201  0.42325  0.70878  Biso   1.000  N
  N238     1.0000 0.85201  0.07675  0.29122  Biso   1.000  N
  N239     1.0000 0.64799  0.92325  0.79122  Biso   1.000  N
  N240     1.0000 0.14799  0.57675  0.20878  Biso   1.000  N
  N241     1.0000 0.95878  0.32675  0.89799  Biso   1.000  N
  N242     1.0000 0.54122  0.67325  0.39799  Biso   1.000  N
  N243     1.0000 0.04122  0.82675  0.60201  Biso   1.000  N
  N244     1.0000 0.45878  0.17325  0.10201  Biso   1.000  N
  N245     1.0000 0.89799  0.95878  0.32675  Biso   1.000  N
  N246     1.0000 0.39799  0.54122  0.67325  Biso   1.000  N
  N247     1.0000 0.60201  0.04122  0.82675  Biso   1.000  N
  N248     1.0000 0.10201  0.45878  0.17325  Biso   1.000  N
  N249     1.0000 0.32675  0.89799  0.95878  Biso   1.000  N
  N250     1.0000 0.67325  0.39799  0.54122  Biso   1.000  N
  N251     1.0000 0.82675  0.60201  0.04122  Biso   1.000  N
  N252     1.0000 0.17325  0.10201  0.45878  Biso   1.000  N
  N253     1.0000 0.07675  0.20878  0.35201  Biso   1.000  N
  N254     1.0000 0.42325  0.79122  0.85201  Biso   1.000  N
  N255     1.0000 0.57675  0.29122  0.64799  Biso   1.000  N
  N256     1.0000 0.92325  0.70878  0.14799  Biso   1.000  N
  N257     1.0000 0.70878  0.14799  0.92325  Biso   1.000  N
  N258     1.0000 0.29122  0.64799  0.57675  Biso   1.000  N
  N259     1.0000 0.79122  0.85201  0.42325  Biso   1.000  N
  N260     1.0000 0.20878  0.35201  0.07675  Biso   1.000  N
  N261     1.0000 0.64799  0.57675  0.29122  Biso   1.000  N
  N262     1.0000 0.14799  0.92325  0.70878  Biso   1.000  N
  N263     1.0000 0.35201  0.07675  0.20878  Biso   1.000  N
  N264     1.0000 0.85201  0.42325  0.79122  Biso   1.000  N
  N265     1.0000 0.45878  0.82675  0.39799  Biso   1.000  N
  N266     1.0000 0.04122  0.17325  0.89799  Biso   1.000  N
  N267     1.0000 0.54122  0.32675  0.10201  Biso   1.000  N
  N268     1.0000 0.95878  0.67325  0.60201  Biso   1.000  N
  N269     1.0000 0.39799  0.45878  0.82675  Biso   1.000  N
  N270     1.0000 0.89799  0.04122  0.17325  Biso   1.000  N
  N271     1.0000 0.10201  0.54122  0.32675  Biso   1.000  N
  N272     1.0000 0.60201  0.95878  0.67325  Biso   1.000  N
  N273     1.0000 0.82675  0.39799  0.45878  Biso   1.000  N
  N274     1.0000 0.17325  0.89799  0.04122  Biso   1.000  N
  N275     1.0000 0.32675  0.10201  0.54122  Biso   1.000  N
  N276     1.0000 0.67325  0.60201  0.95878  Biso   1.000  N
  N277     1.0000 0.57675  0.70878  0.85201  Biso   1.000  N
  N278     1.0000 0.92325  0.29122  0.35201  Biso   1.000  N
  N279     1.0000 0.07675  0.79122  0.14799  Biso   1.000  N
  N280     1.0000 0.42325  0.20878  0.64799  Biso   1.000  N
  N281     1.0000 0.20878  0.64799  0.42325  Biso   1.000  N
  N282     1.0000 0.79122  0.14799  0.07675  Biso   1.000  N
  N283     1.0000 0.29122  0.35201  0.92325  Biso   1.000  N
  N284     1.0000 0.70878  0.85201  0.57675  Biso   1.000  N
  N285     1.0000 0.14799  0.07675  0.79122  Biso   1.000  N
  N286     1.0000 0.64799  0.42325  0.20878  Biso   1.000  N
  N287     1.0000 0.85201  0.57675  0.70878  Biso   1.000  N
  N288     1.0000 0.35201  0.92325  0.29122  Biso   1.000  N
  C97      1.0000 0.07817  0.66832  0.08766  Biso   1.000  C
  C98      1.0000 0.42183  0.33168  0.58766  Biso   1.000  C
  C99      1.0000 0.92183  0.16832  0.41234  Biso   1.000  C
  C100     1.0000 0.57817  0.83168  0.91234  Biso   1.000  C
  C101     1.0000 0.08766  0.07817  0.66832  Biso   1.000  C
  C102     1.0000 0.58766  0.42183  0.33168  Biso   1.000  C
  C103     1.0000 0.41234  0.92183  0.16832  Biso   1.000  C
  C104     1.0000 0.91234  0.57817  0.83168  Biso   1.000  C
  C105     1.0000 0.66832  0.08766  0.07817  Biso   1.000  C
  C106     1.0000 0.33168  0.58766  0.42183  Biso   1.000  C
  C107     1.0000 0.16832  0.41234  0.92183  Biso   1.000  C
  C108     1.0000 0.83168  0.91234  0.57817  Biso   1.000  C
  C109     1.0000 0.41832  0.32817  0.16234  Biso   1.000  C
  C110     1.0000 0.08168  0.67183  0.66234  Biso   1.000  C
  C111     1.0000 0.91832  0.17183  0.83766  Biso   1.000  C
  C112     1.0000 0.58168  0.82817  0.33766  Biso   1.000  C
  C113     1.0000 0.82817  0.33766  0.58168  Biso   1.000  C
  C114     1.0000 0.17183  0.83766  0.91832  Biso   1.000  C
  C115     1.0000 0.67183  0.66234  0.08168  Biso   1.000  C
  C116     1.0000 0.32817  0.16234  0.41832  Biso   1.000  C
  C117     1.0000 0.83766  0.91832  0.17183  Biso   1.000  C
  C118     1.0000 0.33766  0.58168  0.82817  Biso   1.000  C
  C119     1.0000 0.16234  0.41832  0.32817  Biso   1.000  C
  C120     1.0000 0.66234  0.08168  0.67183  Biso   1.000  C
  C121     1.0000 0.57817  0.16832  0.58766  Biso   1.000  C
  C122     1.0000 0.92183  0.83168  0.08766  Biso   1.000  C
  C123     1.0000 0.42183  0.66832  0.91234  Biso   1.000  C
  C124     1.0000 0.07817  0.33168  0.41234  Biso   1.000  C
  C125     1.0000 0.58766  0.57817  0.16832  Biso   1.000  C
  C126     1.0000 0.08766  0.92183  0.83168  Biso   1.000  C
  C127     1.0000 0.91234  0.42183  0.66832  Biso   1.000  C
  C128     1.0000 0.41234  0.07817  0.33168  Biso   1.000  C
  C129     1.0000 0.16832  0.58766  0.57817  Biso   1.000  C
  C130     1.0000 0.83168  0.08766  0.92183  Biso   1.000  C
  C131     1.0000 0.66832  0.91234  0.42183  Biso   1.000  C
  C132     1.0000 0.33168  0.41234  0.07817  Biso   1.000  C
  C133     1.0000 0.91832  0.82817  0.66234  Biso   1.000  C
  C134     1.0000 0.58168  0.17183  0.16234  Biso   1.000  C
  C135     1.0000 0.41832  0.67183  0.33766  Biso   1.000  C
  C136     1.0000 0.08168  0.32817  0.83766  Biso   1.000  C
  C137     1.0000 0.32817  0.83766  0.08168  Biso   1.000  C
  C138     1.0000 0.67183  0.33766  0.41832  Biso   1.000  C
  C139     1.0000 0.17183  0.16234  0.58168  Biso   1.000  C
  C140     1.0000 0.82817  0.66234  0.91832  Biso   1.000  C
  C141     1.0000 0.33766  0.41832  0.67183  Biso   1.000  C
  C142     1.0000 0.83766  0.08168  0.32817  Biso   1.000  C
  C143     1.0000 0.66234  0.91832  0.82817  Biso   1.000  C
  C144     1.0000 0.16234  0.58168  0.17183  Biso   1.000  C
  C145     1.0000 0.92183  0.33168  0.91234  Biso   1.000  C
  C146     1.0000 0.57817  0.66832  0.41234  Biso   1.000  C
  C147     1.0000 0.07817  0.83168  0.58766  Biso   1.000  C
  C148     1.0000 0.42183  0.16832  0.08766  Biso   1.000  C
  C149     1.0000 0.91234  0.92183  0.33168  Biso   1.000  C
  C150     1.0000 0.41234  0.57817  0.66832  Biso   1.000  C
  C151     1.0000 0.58766  0.07817  0.83168  Biso   1.000  C
  C152     1.0000 0.08766  0.42183  0.16832  Biso   1.000  C
  C153     1.0000 0.33168  0.91234  0.92183  Biso   1.000  C
  C154     1.0000 0.66832  0.41234  0.57817  Biso   1.000  C
  C155     1.0000 0.83168  0.58766  0.07817  Biso   1.000  C
  C156     1.0000 0.16832  0.08766  0.42183  Biso   1.000  C
  C157     1.0000 0.08168  0.17183  0.33766  Biso   1.000  C
  C158     1.0000 0.41832  0.82817  0.83766  Biso   1.000  C
  C159     1.0000 0.58168  0.32817  0.66234  Biso   1.000  C
  C160     1.0000 0.91832  0.67183  0.16234  Biso   1.000  C
  C161     1.0000 0.67183  0.16234  0.91832  Biso   1.000  C
  C162     1.0000 0.32817  0.66234  0.58168  Biso   1.000  C
  C163     1.0000 0.82817  0.83766  0.41832  Biso   1.000  C
  C164     1.0000 0.17183  0.33766  0.08168  Biso   1.000  C
  C165     1.0000 0.66234  0.58168  0.32817  Biso   1.000  C
  C166     1.0000 0.16234  0.91832  0.67183  Biso   1.000  C
  C167     1.0000 0.33766  0.08168  0.17183  Biso   1.000  C
  C168     1.0000 0.83766  0.41832  0.82817  Biso   1.000  C
  C169     1.0000 0.42183  0.83168  0.41234  Biso   1.000  C
  C170     1.0000 0.07817  0.16832  0.91234  Biso   1.000  C
  C171     1.0000 0.57817  0.33168  0.08766  Biso   1.000  C
  C172     1.0000 0.92183  0.66832  0.58766  Biso   1.000  C
  C173     1.0000 0.41234  0.42183  0.83168  Biso   1.000  C
  C174     1.0000 0.91234  0.07817  0.16832  Biso   1.000  C
  C175     1.0000 0.08766  0.57817  0.33168  Biso   1.000  C
  C176     1.0000 0.58766  0.92183  0.66832  Biso   1.000  C
  C177     1.0000 0.83168  0.41234  0.42183  Biso   1.000  C
  C178     1.0000 0.16832  0.91234  0.07817  Biso   1.000  C
  C179     1.0000 0.33168  0.08766  0.57817  Biso   1.000  C
  C180     1.0000 0.66832  0.58766  0.92183  Biso   1.000  C
  C181     1.0000 0.58168  0.67183  0.83766  Biso   1.000  C
  C182     1.0000 0.91832  0.32817  0.33766  Biso   1.000  C
  C183     1.0000 0.08168  0.82817  0.16234  Biso   1.000  C
  C184     1.0000 0.41832  0.17183  0.66234  Biso   1.000  C
  C185     1.0000 0.17183  0.66234  0.41832  Biso   1.000  C
  C186     1.0000 0.82817  0.16234  0.08168  Biso   1.000  C
  C187     1.0000 0.32817  0.33766  0.91832  Biso   1.000  C
  C188     1.0000 0.67183  0.83766  0.58168  Biso   1.000  C
  C189     1.0000 0.16234  0.08168  0.82817  Biso   1.000  C
  C190     1.0000 0.66234  0.41832  0.17183  Biso   1.000  C
  C191     1.0000 0.83766  0.58168  0.67183  Biso   1.000  C
  C192     1.0000 0.33766  0.91832  0.32817  Biso   1.000  C
  C193     1.0000 0.94463  0.59371  0.98398  Biso   1.000  C
  C194     1.0000 0.55537  0.40629  0.48398  Biso   1.000  C
  C195     1.0000 0.05537  0.09371  0.51602  Biso   1.000  C
  C196     1.0000 0.44463  0.90629  0.01602  Biso   1.000  C
  C197     1.0000 0.98398  0.94463  0.59371  Biso   1.000  C
  C198     1.0000 0.48398  0.55537  0.40629  Biso   1.000  C
  C199     1.0000 0.51602  0.05537  0.09371  Biso   1.000  C
  C200     1.0000 0.01602  0.44463  0.90629  Biso   1.000  C
  C201     1.0000 0.59371  0.98398  0.94463  Biso   1.000  C
  C202     1.0000 0.40629  0.48398  0.55537  Biso   1.000  C
  C203     1.0000 0.09371  0.51602  0.05537  Biso   1.000  C
  C204     1.0000 0.90629  0.01602  0.44463  Biso   1.000  C
  C205     1.0000 0.34371  0.19463  0.26602  Biso   1.000  C
  C206     1.0000 0.15629  0.80537  0.76602  Biso   1.000  C
  C207     1.0000 0.84371  0.30537  0.73398  Biso   1.000  C
  C208     1.0000 0.65629  0.69463  0.23398  Biso   1.000  C
  C209     1.0000 0.69463  0.23398  0.65629  Biso   1.000  C
  C210     1.0000 0.30537  0.73398  0.84371  Biso   1.000  C
  C211     1.0000 0.80537  0.76602  0.15629  Biso   1.000  C
  C212     1.0000 0.19463  0.26602  0.34371  Biso   1.000  C
  C213     1.0000 0.73398  0.84371  0.30537  Biso   1.000  C
  C214     1.0000 0.23398  0.65629  0.69463  Biso   1.000  C
  C215     1.0000 0.26602  0.34371  0.19463  Biso   1.000  C
  C216     1.0000 0.76602  0.15629  0.80537  Biso   1.000  C
  C217     1.0000 0.44463  0.09371  0.48398  Biso   1.000  C
  C218     1.0000 0.05537  0.90629  0.98398  Biso   1.000  C
  C219     1.0000 0.55537  0.59371  0.01602  Biso   1.000  C
  C220     1.0000 0.94463  0.40629  0.51602  Biso   1.000  C
  C221     1.0000 0.48398  0.44463  0.09371  Biso   1.000  C
  C222     1.0000 0.98398  0.05537  0.90629  Biso   1.000  C
  C223     1.0000 0.01602  0.55537  0.59371  Biso   1.000  C
  C224     1.0000 0.51602  0.94463  0.40629  Biso   1.000  C
  C225     1.0000 0.09371  0.48398  0.44463  Biso   1.000  C
  C226     1.0000 0.90629  0.98398  0.05537  Biso   1.000  C
  C227     1.0000 0.59371  0.01602  0.55537  Biso   1.000  C
  C228     1.0000 0.40629  0.51602  0.94463  Biso   1.000  C
  C229     1.0000 0.84371  0.69463  0.76602  Biso   1.000  C
  C230     1.0000 0.65629  0.30537  0.26602  Biso   1.000  C
  C231     1.0000 0.34371  0.80537  0.23398  Biso   1.000  C
  C232     1.0000 0.15629  0.19463  0.73398  Biso   1.000  C
  C233     1.0000 0.19463  0.73398  0.15629  Biso   1.000  C
  C234     1.0000 0.80537  0.23398  0.34371  Biso   1.000  C
  C235     1.0000 0.30537  0.26602  0.65629  Biso   1.000  C
  C236     1.0000 0.69463  0.76602  0.84371  Biso   1.000  C
  C237     1.0000 0.23398  0.34371  0.80537  Biso   1.000  C
  C238     1.0000 0.73398  0.15629  0.19463  Biso   1.000  C
  C239     1.0000 0.76602  0.84371  0.69463  Biso   1.000  C
  C240     1.0000 0.26602  0.65629  0.30537  Biso   1.000  C
  C241     1.0000 0.05537  0.40629  0.01602  Biso   1.000  C
  C242     1.0000 0.44463  0.59371  0.51602  Biso   1.000  C
  C243     1.0000 0.94463  0.90629  0.48398  Biso   1.000  C
  C244     1.0000 0.55537  0.09371  0.98398  Biso   1.000  C
  C245     1.0000 0.01602  0.05537  0.40629  Biso   1.000  C
  C246     1.0000 0.51602  0.44463  0.59371  Biso   1.000  C
  C247     1.0000 0.48398  0.94463  0.90629  Biso   1.000  C
  C248     1.0000 0.98398  0.55537  0.09371  Biso   1.000  C
  C249     1.0000 0.40629  0.01602  0.05537  Biso   1.000  C
  C250     1.0000 0.59371  0.51602  0.44463  Biso   1.000  C
  C251     1.0000 0.90629  0.48398  0.94463  Biso   1.000  C
  C252     1.0000 0.09371  0.98398  0.55537  Biso   1.000  C
  C253     1.0000 0.15629  0.30537  0.23398  Biso   1.000  C
  C254     1.0000 0.34371  0.69463  0.73398  Biso   1.000  C
  C255     1.0000 0.65629  0.19463  0.76602  Biso   1.000  C
  C256     1.0000 0.84371  0.80537  0.26602  Biso   1.000  C
  C257     1.0000 0.80537  0.26602  0.84371  Biso   1.000  C
  C258     1.0000 0.19463  0.76602  0.65629  Biso   1.000  C
  C259     1.0000 0.69463  0.73398  0.34371  Biso   1.000  C
  C260     1.0000 0.30537  0.23398  0.15629  Biso   1.000  C
  C261     1.0000 0.76602  0.65629  0.19463  Biso   1.000  C
  C262     1.0000 0.26602  0.84371  0.80537  Biso   1.000  C
  C263     1.0000 0.23398  0.15629  0.30537  Biso   1.000  C
  C264     1.0000 0.73398  0.34371  0.69463  Biso   1.000  C
  C265     1.0000 0.55537  0.90629  0.51602  Biso   1.000  C
  C266     1.0000 0.94463  0.09371  0.01602  Biso   1.000  C
  C267     1.0000 0.44463  0.40629  0.98398  Biso   1.000  C
  C268     1.0000 0.05537  0.59371  0.48398  Biso   1.000  C
  C269     1.0000 0.51602  0.55537  0.90629  Biso   1.000  C
  C270     1.0000 0.01602  0.94463  0.09371  Biso   1.000  C
  C271     1.0000 0.98398  0.44463  0.40629  Biso   1.000  C
  C272     1.0000 0.48398  0.05537  0.59371  Biso   1.000  C
  C273     1.0000 0.90629  0.51602  0.55537  Biso   1.000  C
  C274     1.0000 0.09371  0.01602  0.94463  Biso   1.000  C
  C275     1.0000 0.40629  0.98398  0.44463  Biso   1.000  C
  C276     1.0000 0.59371  0.48398  0.05537  Biso   1.000  C
  C277     1.0000 0.65629  0.80537  0.73398  Biso   1.000  C
  C278     1.0000 0.84371  0.19463  0.23398  Biso   1.000  C
  C279     1.0000 0.15629  0.69463  0.26602  Biso   1.000  C
  C280     1.0000 0.34371  0.30537  0.76602  Biso   1.000  C
  C281     1.0000 0.30537  0.76602  0.34371  Biso   1.000  C
  C282     1.0000 0.69463  0.26602  0.15629  Biso   1.000  C
  C283     1.0000 0.19463  0.23398  0.84371  Biso   1.000  C
  C284     1.0000 0.80537  0.73398  0.65629  Biso   1.000  C
  C285     1.0000 0.26602  0.15629  0.69463  Biso   1.000  C
  C286     1.0000 0.76602  0.34371  0.30537  Biso   1.000  C
  C287     1.0000 0.73398  0.65629  0.80537  Biso   1.000  C
  C288     1.0000 0.23398  0.84371  0.19463  Biso   1.000  C
  H97      1.0000 0.94580  0.57900  0.96120  Biso   1.000  H
  H98      1.0000 0.55420  0.42100  0.46120  Biso   1.000  H
  H99      1.0000 0.05420  0.07900  0.53880  Biso   1.000  H
  H100     1.0000 0.44580  0.92100  0.03880  Biso   1.000  H
  H101     1.0000 0.96120  0.94580  0.57900  Biso   1.000  H
  H102     1.0000 0.46120  0.55420  0.42100  Biso   1.000  H
  H103     1.0000 0.53880  0.05420  0.07900  Biso   1.000  H
  H104     1.0000 0.03880  0.44580  0.92100  Biso   1.000  H
  H105     1.0000 0.57900  0.96120  0.94580  Biso   1.000  H
  H106     1.0000 0.42100  0.46120  0.55420  Biso   1.000  H
  H107     1.0000 0.07900  0.53880  0.05420  Biso   1.000  H
  H108     1.0000 0.92100  0.03880  0.44580  Biso   1.000  H
  H109     1.0000 0.32900  0.19580  0.28880  Biso   1.000  H
  H110     1.0000 0.17100  0.80420  0.78880  Biso   1.000  H
  H111     1.0000 0.82900  0.30420  0.71120  Biso   1.000  H
  H112     1.0000 0.67100  0.69580  0.21120  Biso   1.000  H
  H113     1.0000 0.69580  0.21120  0.67100  Biso   1.000  H
  H114     1.0000 0.30420  0.71120  0.82900  Biso   1.000  H
  H115     1.0000 0.80420  0.78880  0.17100  Biso   1.000  H
  H116     1.0000 0.19580  0.28880  0.32900  Biso   1.000  H
  H117     1.0000 0.71120  0.82900  0.30420  Biso   1.000  H
  H118     1.0000 0.21120  0.67100  0.69580  Biso   1.000  H
  H119     1.0000 0.28880  0.32900  0.19580  Biso   1.000  H
  H120     1.0000 0.78880  0.17100  0.80420  Biso   1.000  H
  H121     1.0000 0.44580  0.07900  0.46120  Biso   1.000  H
  H122     1.0000 0.05420  0.92100  0.96120  Biso   1.000  H
  H123     1.0000 0.55420  0.57900  0.03880  Biso   1.000  H
  H124     1.0000 0.94580  0.42100  0.53880  Biso   1.000  H
  H125     1.0000 0.46120  0.44580  0.07900  Biso   1.000  H
  H126     1.0000 0.96120  0.05420  0.92100  Biso   1.000  H
  H127     1.0000 0.03880  0.55420  0.57900  Biso   1.000  H
  H128     1.0000 0.53880  0.94580  0.42100  Biso   1.000  H
  H129     1.0000 0.07900  0.46120  0.44580  Biso   1.000  H
  H130     1.0000 0.92100  0.96120  0.05420  Biso   1.000  H
  H131     1.0000 0.57900  0.03880  0.55420  Biso   1.000  H
  H132     1.0000 0.42100  0.53880  0.94580  Biso   1.000  H
  H133     1.0000 0.82900  0.69580  0.78880  Biso   1.000  H
  H134     1.0000 0.67100  0.30420  0.28880  Biso   1.000  H
  H135     1.0000 0.32900  0.80420  0.21120  Biso   1.000  H
  H136     1.0000 0.17100  0.19580  0.71120  Biso   1.000  H
  H137     1.0000 0.19580  0.71120  0.17100  Biso   1.000  H
  H138     1.0000 0.80420  0.21120  0.32900  Biso   1.000  H
  H139     1.0000 0.30420  0.28880  0.67100  Biso   1.000  H
  H140     1.0000 0.69580  0.78880  0.82900  Biso   1.000  H
  H141     1.0000 0.21120  0.32900  0.80420  Biso   1.000  H
  H142     1.0000 0.71120  0.17100  0.19580  Biso   1.000  H
  H143     1.0000 0.78880  0.82900  0.69580  Biso   1.000  H
  H144     1.0000 0.28880  0.67100  0.30420  Biso   1.000  H
  H145     1.0000 0.05420  0.42100  0.03880  Biso   1.000  H
  H146     1.0000 0.44580  0.57900  0.53880  Biso   1.000  H
  H147     1.0000 0.94580  0.92100  0.46120  Biso   1.000  H
  H148     1.0000 0.55420  0.07900  0.96120  Biso   1.000  H
  H149     1.0000 0.03880  0.05420  0.42100  Biso   1.000  H
  H150     1.0000 0.53880  0.44580  0.57900  Biso   1.000  H
  H151     1.0000 0.46120  0.94580  0.92100  Biso   1.000  H
  H152     1.0000 0.96120  0.55420  0.07900  Biso   1.000  H
  H153     1.0000 0.42100  0.03880  0.05420  Biso   1.000  H
  H154     1.0000 0.57900  0.53880  0.44580  Biso   1.000  H
  H155     1.0000 0.92100  0.46120  0.94580  Biso   1.000  H
  H156     1.0000 0.07900  0.96120  0.55420  Biso   1.000  H
  H157     1.0000 0.17100  0.30420  0.21120  Biso   1.000  H
  H158     1.0000 0.32900  0.69580  0.71120  Biso   1.000  H
  H159     1.0000 0.67100  0.19580  0.78880  Biso   1.000  H
  H160     1.0000 0.82900  0.80420  0.28880  Biso   1.000  H
  H161     1.0000 0.80420  0.28880  0.82900  Biso   1.000  H
  H162     1.0000 0.19580  0.78880  0.67100  Biso   1.000  H
  H163     1.0000 0.69580  0.71120  0.32900  Biso   1.000  H
  H164     1.0000 0.30420  0.21120  0.17100  Biso   1.000  H
  H165     1.0000 0.78880  0.67100  0.19580  Biso   1.000  H
  H166     1.0000 0.28880  0.82900  0.80420  Biso   1.000  H
  H167     1.0000 0.21120  0.17100  0.30420  Biso   1.000  H
  H168     1.0000 0.71120  0.32900  0.69580  Biso   1.000  H
  H169     1.0000 0.55420  0.92100  0.53880  Biso   1.000  H
  H170     1.0000 0.94580  0.07900  0.03880  Biso   1.000  H
  H171     1.0000 0.44580  0.42100  0.96120  Biso   1.000  H
  H172     1.0000 0.05420  0.57900  0.46120  Biso   1.000  H
  H173     1.0000 0.53880  0.55420  0.92100  Biso   1.000  H
  H174     1.0000 0.03880  0.94580  0.07900  Biso   1.000  H
  H175     1.0000 0.96120  0.44580  0.42100  Biso   1.000  H
  H176     1.0000 0.46120  0.05420  0.57900  Biso   1.000  H
  H177     1.0000 0.92100  0.53880  0.55420  Biso   1.000  H
  H178     1.0000 0.07900  0.03880  0.94580  Biso   1.000  H
  H179     1.0000 0.42100  0.96120  0.44580  Biso   1.000  H
  H180     1.0000 0.57900  0.46120  0.05420  Biso   1.000  H
  H181     1.0000 0.67100  0.80420  0.71120  Biso   1.000  H
  H182     1.0000 0.82900  0.19580  0.21120  Biso   1.000  H
  H183     1.0000 0.17100  0.69580  0.28880  Biso   1.000  H
  H184     1.0000 0.32900  0.30420  0.78880  Biso   1.000  H
  H185     1.0000 0.30420  0.78880  0.32900  Biso   1.000  H
  H186     1.0000 0.69580  0.28880  0.17100  Biso   1.000  H
  H187     1.0000 0.19580  0.21120  0.82900  Biso   1.000  H
  H188     1.0000 0.80420  0.71120  0.67100  Biso   1.000  H
  H189     1.0000 0.28880  0.17100  0.69580  Biso   1.000  H
  H190     1.0000 0.78880  0.32900  0.30420  Biso   1.000  H
  H191     1.0000 0.71120  0.67100  0.80420  Biso   1.000  H
  H192     1.0000 0.21120  0.82900  0.19580  Biso   1.000  H
  C289     1.0000 0.97600  0.60927  0.00283  Biso   1.000  C
  C290     1.0000 0.52400  0.39073  0.50283  Biso   1.000  C
  C291     1.0000 0.02400  0.10927  0.49717  Biso   1.000  C
  C292     1.0000 0.47600  0.89073  0.99717  Biso   1.000  C
  C293     1.0000 0.00283  0.97600  0.60927  Biso   1.000  C
  C294     1.0000 0.50283  0.52400  0.39073  Biso   1.000  C
  C295     1.0000 0.49717  0.02400  0.10927  Biso   1.000  C
  C296     1.0000 0.99717  0.47600  0.89073  Biso   1.000  C
  C297     1.0000 0.60927  0.00283  0.97600  Biso   1.000  C
  C298     1.0000 0.39073  0.50283  0.52400  Biso   1.000  C
  C299     1.0000 0.10927  0.49717  0.02400  Biso   1.000  C
  C300     1.0000 0.89073  0.99717  0.47600  Biso   1.000  C
  C301     1.0000 0.35927  0.22600  0.24717  Biso   1.000  C
  C302     1.0000 0.14073  0.77400  0.74717  Biso   1.000  C
  C303     1.0000 0.85927  0.27400  0.75283  Biso   1.000  C
  C304     1.0000 0.64073  0.72600  0.25283  Biso   1.000  C
  C305     1.0000 0.72600  0.25283  0.64073  Biso   1.000  C
  C306     1.0000 0.27400  0.75283  0.85927  Biso   1.000  C
  C307     1.0000 0.77400  0.74717  0.14073  Biso   1.000  C
  C308     1.0000 0.22600  0.24717  0.35927  Biso   1.000  C
  C309     1.0000 0.75283  0.85927  0.27400  Biso   1.000  C
  C310     1.0000 0.25283  0.64073  0.72600  Biso   1.000  C
  C311     1.0000 0.24717  0.35927  0.22600  Biso   1.000  C
  C312     1.0000 0.74717  0.14073  0.77400  Biso   1.000  C
  C313     1.0000 0.47600  0.10927  0.50283  Biso   1.000  C
  C314     1.0000 0.02400  0.89073  0.00283  Biso   1.000  C
  C315     1.0000 0.52400  0.60927  0.99717  Biso   1.000  C
  C316     1.0000 0.97600  0.39073  0.49717  Biso   1.000  C
  C317     1.0000 0.50283  0.47600  0.10927  Biso   1.000  C
  C318     1.0000 0.00283  0.02400  0.89073  Biso   1.000  C
  C319     1.0000 0.99717  0.52400  0.60927  Biso   1.000  C
  C320     1.0000 0.49717  0.97600  0.39073  Biso   1.000  C
  C321     1.0000 0.10927  0.50283  0.47600  Biso   1.000  C
  C322     1.0000 0.89073  0.00283  0.02400  Biso   1.000  C
  C323     1.0000 0.60927  0.99717  0.52400  Biso   1.000  C
  C324     1.0000 0.39073  0.49717  0.97600  Biso   1.000  C
  C325     1.0000 0.85927  0.72600  0.74717  Biso   1.000  C
  C326     1.0000 0.64073  0.27400  0.24717  Biso   1.000  C
  C327     1.0000 0.35927  0.77400  0.25283  Biso   1.000  C
  C328     1.0000 0.14073  0.22600  0.75283  Biso   1.000  C
  C329     1.0000 0.22600  0.75283  0.14073  Biso   1.000  C
  C330     1.0000 0.77400  0.25283  0.35927  Biso   1.000  C
  C331     1.0000 0.27400  0.24717  0.64073  Biso   1.000  C
  C332     1.0000 0.72600  0.74717  0.85927  Biso   1.000  C
  C333     1.0000 0.25283  0.35927  0.77400  Biso   1.000  C
  C334     1.0000 0.75283  0.14073  0.22600  Biso   1.000  C
  C335     1.0000 0.74717  0.85927  0.72600  Biso   1.000  C
  C336     1.0000 0.24717  0.64073  0.27400  Biso   1.000  C
  C337     1.0000 0.02400  0.39073  0.99717  Biso   1.000  C
  C338     1.0000 0.47600  0.60927  0.49717  Biso   1.000  C
  C339     1.0000 0.97600  0.89073  0.50283  Biso   1.000  C
  C340     1.0000 0.52400  0.10927  0.00283  Biso   1.000  C
  C341     1.0000 0.99717  0.02400  0.39073  Biso   1.000  C
  C342     1.0000 0.49717  0.47600  0.60927  Biso   1.000  C
  C343     1.0000 0.50283  0.97600  0.89073  Biso   1.000  C
  C344     1.0000 0.00283  0.52400  0.10927  Biso   1.000  C
  C345     1.0000 0.39073  0.99717  0.02400  Biso   1.000  C
  C346     1.0000 0.60927  0.49717  0.47600  Biso   1.000  C
  C347     1.0000 0.89073  0.50283  0.97600  Biso   1.000  C
  C348     1.0000 0.10927  0.00283  0.52400  Biso   1.000  C
  C349     1.0000 0.14073  0.27400  0.25283  Biso   1.000  C
  C350     1.0000 0.35927  0.72600  0.75283  Biso   1.000  C
  C351     1.0000 0.64073  0.22600  0.74717  Biso   1.000  C
  C352     1.0000 0.85927  0.77400  0.24717  Biso   1.000  C
  C353     1.0000 0.77400  0.24717  0.85927  Biso   1.000  C
  C354     1.0000 0.22600  0.74717  0.64073  Biso   1.000  C
  C355     1.0000 0.72600  0.75283  0.35927  Biso   1.000  C
  C356     1.0000 0.27400  0.25283  0.14073  Biso   1.000  C
  C357     1.0000 0.74717  0.64073  0.22600  Biso   1.000  C
  C358     1.0000 0.24717  0.85927  0.77400  Biso   1.000  C
  C359     1.0000 0.25283  0.14073  0.27400  Biso   1.000  C
  C360     1.0000 0.75283  0.35927  0.72600  Biso   1.000  C
  C361     1.0000 0.52400  0.89073  0.49717  Biso   1.000  C
  C362     1.0000 0.97600  0.10927  0.99717  Biso   1.000  C
  C363     1.0000 0.47600  0.39073  0.00283  Biso   1.000  C
  C364     1.0000 0.02400  0.60927  0.50283  Biso   1.000  C
  C365     1.0000 0.49717  0.52400  0.89073  Biso   1.000  C
  C366     1.0000 0.99717  0.97600  0.10927  Biso   1.000  C
  C367     1.0000 0.00283  0.47600  0.39073  Biso   1.000  C
  C368     1.0000 0.50283  0.02400  0.60927  Biso   1.000  C
  C369     1.0000 0.89073  0.49717  0.52400  Biso   1.000  C
  C370     1.0000 0.10927  0.99717  0.97600  Biso   1.000  C
  C371     1.0000 0.39073  0.00283  0.47600  Biso   1.000  C
  C372     1.0000 0.60927  0.50283  0.02400  Biso   1.000  C
  C373     1.0000 0.64073  0.77400  0.75283  Biso   1.000  C
  C374     1.0000 0.85927  0.22600  0.25283  Biso   1.000  C
  C375     1.0000 0.14073  0.72600  0.24717  Biso   1.000  C
  C376     1.0000 0.35927  0.27400  0.74717  Biso   1.000  C
  C377     1.0000 0.27400  0.74717  0.35927  Biso   1.000  C
  C378     1.0000 0.72600  0.24717  0.14073  Biso   1.000  C
  C379     1.0000 0.22600  0.25283  0.85927  Biso   1.000  C
  C380     1.0000 0.77400  0.75283  0.64073  Biso   1.000  C
  C381     1.0000 0.24717  0.14073  0.72600  Biso   1.000  C
  C382     1.0000 0.74717  0.35927  0.27400  Biso   1.000  C
  C383     1.0000 0.75283  0.64073  0.77400  Biso   1.000  C
  C384     1.0000 0.25283  0.85927  0.22600  Biso   1.000  C
  C385     1.0000 0.04566  0.69647  0.13261  Biso   1.000  C
  C386     1.0000 0.45434  0.30353  0.63261  Biso   1.000  C
  C387     1.0000 0.95434  0.19647  0.36739  Biso   1.000  C
  C388     1.0000 0.54566  0.80353  0.86739  Biso   1.000  C
  C389     1.0000 0.13261  0.04566  0.69647  Biso   1.000  C
  C390     1.0000 0.63261  0.45434  0.30353  Biso   1.000  C
  C391     1.0000 0.36739  0.95434  0.19647  Biso   1.000  C
  C392     1.0000 0.86739  0.54566  0.80353  Biso   1.000  C
  C393     1.0000 0.69647  0.13261  0.04566  Biso   1.000  C
  C394     1.0000 0.30353  0.63261  0.45434  Biso   1.000  C
  C395     1.0000 0.19647  0.36739  0.95434  Biso   1.000  C
  C396     1.0000 0.80353  0.86739  0.54566  Biso   1.000  C
  C397     1.0000 0.44647  0.29566  0.11739  Biso   1.000  C
  C398     1.0000 0.05353  0.70434  0.61739  Biso   1.000  C
  C399     1.0000 0.94647  0.20434  0.88261  Biso   1.000  C
  C400     1.0000 0.55353  0.79566  0.38261  Biso   1.000  C
  C401     1.0000 0.79566  0.38261  0.55353  Biso   1.000  C
  C402     1.0000 0.20434  0.88261  0.94647  Biso   1.000  C
  C403     1.0000 0.70434  0.61739  0.05353  Biso   1.000  C
  C404     1.0000 0.29566  0.11739  0.44647  Biso   1.000  C
  C405     1.0000 0.88261  0.94647  0.20434  Biso   1.000  C
  C406     1.0000 0.38261  0.55353  0.79566  Biso   1.000  C
  C407     1.0000 0.11739  0.44647  0.29566  Biso   1.000  C
  C408     1.0000 0.61739  0.05353  0.70434  Biso   1.000  C
  C409     1.0000 0.54566  0.19647  0.63261  Biso   1.000  C
  C410     1.0000 0.95434  0.80353  0.13261  Biso   1.000  C
  C411     1.0000 0.45434  0.69647  0.86739  Biso   1.000  C
  C412     1.0000 0.04566  0.30353  0.36739  Biso   1.000  C
  C413     1.0000 0.63261  0.54566  0.19647  Biso   1.000  C
  C414     1.0000 0.13261  0.95434  0.80353  Biso   1.000  C
  C415     1.0000 0.86739  0.45434  0.69647  Biso   1.000  C
  C416     1.0000 0.36739  0.04566  0.30353  Biso   1.000  C
  C417     1.0000 0.19647  0.63261  0.54566  Biso   1.000  C
  C418     1.0000 0.80353  0.13261  0.95434  Biso   1.000  C
  C419     1.0000 0.69647  0.86739  0.45434  Biso   1.000  C
  C420     1.0000 0.30353  0.36739  0.04566  Biso   1.000  C
  C421     1.0000 0.94647  0.79566  0.61739  Biso   1.000  C
  C422     1.0000 0.55353  0.20434  0.11739  Biso   1.000  C
  C423     1.0000 0.44647  0.70434  0.38261  Biso   1.000  C
  C424     1.0000 0.05353  0.29566  0.88261  Biso   1.000  C
  C425     1.0000 0.29566  0.88261  0.05353  Biso   1.000  C
  C426     1.0000 0.70434  0.38261  0.44647  Biso   1.000  C
  C427     1.0000 0.20434  0.11739  0.55353  Biso   1.000  C
  C428     1.0000 0.79566  0.61739  0.94647  Biso   1.000  C
  C429     1.0000 0.38261  0.44647  0.70434  Biso   1.000  C
  C430     1.0000 0.88261  0.05353  0.29566  Biso   1.000  C
  C431     1.0000 0.61739  0.94647  0.79566  Biso   1.000  C
  C432     1.0000 0.11739  0.55353  0.20434  Biso   1.000  C
  C433     1.0000 0.95434  0.30353  0.86739  Biso   1.000  C
  C434     1.0000 0.54566  0.69647  0.36739  Biso   1.000  C
  C435     1.0000 0.04566  0.80353  0.63261  Biso   1.000  C
  C436     1.0000 0.45434  0.19647  0.13261  Biso   1.000  C
  C437     1.0000 0.86739  0.95434  0.30353  Biso   1.000  C
  C438     1.0000 0.36739  0.54566  0.69647  Biso   1.000  C
  C439     1.0000 0.63261  0.04566  0.80353  Biso   1.000  C
  C440     1.0000 0.13261  0.45434  0.19647  Biso   1.000  C
  C441     1.0000 0.30353  0.86739  0.95434  Biso   1.000  C
  C442     1.0000 0.69647  0.36739  0.54566  Biso   1.000  C
  C443     1.0000 0.80353  0.63261  0.04566  Biso   1.000  C
  C444     1.0000 0.19647  0.13261  0.45434  Biso   1.000  C
  C445     1.0000 0.05353  0.20434  0.38261  Biso   1.000  C
  C446     1.0000 0.44647  0.79566  0.88261  Biso   1.000  C
  C447     1.0000 0.55353  0.29566  0.61739  Biso   1.000  C
  C448     1.0000 0.94647  0.70434  0.11739  Biso   1.000  C
  C449     1.0000 0.70434  0.11739  0.94647  Biso   1.000  C
  C450     1.0000 0.29566  0.61739  0.55353  Biso   1.000  C
  C451     1.0000 0.79566  0.88261  0.44647  Biso   1.000  C
  C452     1.0000 0.20434  0.38261  0.05353  Biso   1.000  C
  C453     1.0000 0.61739  0.55353  0.29566  Biso   1.000  C
  C454     1.0000 0.11739  0.94647  0.70434  Biso   1.000  C
  C455     1.0000 0.38261  0.05353  0.20434  Biso   1.000  C
  C456     1.0000 0.88261  0.44647  0.79566  Biso   1.000  C
  C457     1.0000 0.45434  0.80353  0.36739  Biso   1.000  C
  C458     1.0000 0.04566  0.19647  0.86739  Biso   1.000  C
  C459     1.0000 0.54566  0.30353  0.13261  Biso   1.000  C
  C460     1.0000 0.95434  0.69647  0.63261  Biso   1.000  C
  C461     1.0000 0.36739  0.45434  0.80353  Biso   1.000  C
  C462     1.0000 0.86739  0.04566  0.19647  Biso   1.000  C
  C463     1.0000 0.13261  0.54566  0.30353  Biso   1.000  C
  C464     1.0000 0.63261  0.95434  0.69647  Biso   1.000  C
  C465     1.0000 0.80353  0.36739  0.45434  Biso   1.000  C
  C466     1.0000 0.19647  0.86739  0.04566  Biso   1.000  C
  C467     1.0000 0.30353  0.13261  0.54566  Biso   1.000  C
  C468     1.0000 0.69647  0.63261  0.95434  Biso   1.000  C
  C469     1.0000 0.55353  0.70434  0.88261  Biso   1.000  C
  C470     1.0000 0.94647  0.29566  0.38261  Biso   1.000  C
  C471     1.0000 0.05353  0.79566  0.11739  Biso   1.000  C
  C472     1.0000 0.44647  0.20434  0.61739  Biso   1.000  C
  C473     1.0000 0.20434  0.61739  0.44647  Biso   1.000  C
  C474     1.0000 0.79566  0.11739  0.05353  Biso   1.000  C
  C475     1.0000 0.29566  0.38261  0.94647  Biso   1.000  C
  C476     1.0000 0.70434  0.88261  0.55353  Biso   1.000  C
  C477     1.0000 0.11739  0.05353  0.79566  Biso   1.000  C
  C478     1.0000 0.61739  0.44647  0.20434  Biso   1.000  C
  C479     1.0000 0.88261  0.55353  0.70434  Biso   1.000  C
  C480     1.0000 0.38261  0.94647  0.29566  Biso   1.000  C
  H193     1.0000 0.02510  0.70430  0.14840  Biso   1.000  H
  H194     1.0000 0.47490  0.29570  0.64840  Biso   1.000  H
  H195     1.0000 0.97490  0.20430  0.35160  Biso   1.000  H
  H196     1.0000 0.52510  0.79570  0.85160  Biso   1.000  H
  H197     1.0000 0.14840  0.02510  0.70430  Biso   1.000  H
  H198     1.0000 0.64840  0.47490  0.29570  Biso   1.000  H
  H199     1.0000 0.35160  0.97490  0.20430  Biso   1.000  H
  H200     1.0000 0.85160  0.52510  0.79570  Biso   1.000  H
  H201     1.0000 0.70430  0.14840  0.02510  Biso   1.000  H
  H202     1.0000 0.29570  0.64840  0.47490  Biso   1.000  H
  H203     1.0000 0.20430  0.35160  0.97490  Biso   1.000  H
  H204     1.0000 0.79570  0.85160  0.52510  Biso   1.000  H
  H205     1.0000 0.45430  0.27510  0.10160  Biso   1.000  H
  H206     1.0000 0.04570  0.72490  0.60160  Biso   1.000  H
  H207     1.0000 0.95430  0.22490  0.89840  Biso   1.000  H
  H208     1.0000 0.54570  0.77510  0.39840  Biso   1.000  H
  H209     1.0000 0.77510  0.39840  0.54570  Biso   1.000  H
  H210     1.0000 0.22490  0.89840  0.95430  Biso   1.000  H
  H211     1.0000 0.72490  0.60160  0.04570  Biso   1.000  H
  H212     1.0000 0.27510  0.10160  0.45430  Biso   1.000  H
  H213     1.0000 0.89840  0.95430  0.22490  Biso   1.000  H
  H214     1.0000 0.39840  0.54570  0.77510  Biso   1.000  H
  H215     1.0000 0.10160  0.45430  0.27510  Biso   1.000  H
  H216     1.0000 0.60160  0.04570  0.72490  Biso   1.000  H
  H217     1.0000 0.52510  0.20430  0.64840  Biso   1.000  H
  H218     1.0000 0.97490  0.79570  0.14840  Biso   1.000  H
  H219     1.0000 0.47490  0.70430  0.85160  Biso   1.000  H
  H220     1.0000 0.02510  0.29570  0.35160  Biso   1.000  H
  H221     1.0000 0.64840  0.52510  0.20430  Biso   1.000  H
  H222     1.0000 0.14840  0.97490  0.79570  Biso   1.000  H
  H223     1.0000 0.85160  0.47490  0.70430  Biso   1.000  H
  H224     1.0000 0.35160  0.02510  0.29570  Biso   1.000  H
  H225     1.0000 0.20430  0.64840  0.52510  Biso   1.000  H
  H226     1.0000 0.79570  0.14840  0.97490  Biso   1.000  H
  H227     1.0000 0.70430  0.85160  0.47490  Biso   1.000  H
  H228     1.0000 0.29570  0.35160  0.02510  Biso   1.000  H
  H229     1.0000 0.95430  0.77510  0.60160  Biso   1.000  H
  H230     1.0000 0.54570  0.22490  0.10160  Biso   1.000  H
  H231     1.0000 0.45430  0.72490  0.39840  Biso   1.000  H
  H232     1.0000 0.04570  0.27510  0.89840  Biso   1.000  H
  H233     1.0000 0.27510  0.89840  0.04570  Biso   1.000  H
  H234     1.0000 0.72490  0.39840  0.45430  Biso   1.000  H
  H235     1.0000 0.22490  0.10160  0.54570  Biso   1.000  H
  H236     1.0000 0.77510  0.60160  0.95430  Biso   1.000  H
  H237     1.0000 0.39840  0.45430  0.72490  Biso   1.000  H
  H238     1.0000 0.89840  0.04570  0.27510  Biso   1.000  H
  H239     1.0000 0.60160  0.95430  0.77510  Biso   1.000  H
  H240     1.0000 0.10160  0.54570  0.22490  Biso   1.000  H
  H241     1.0000 0.97490  0.29570  0.85160  Biso   1.000  H
  H242     1.0000 0.52510  0.70430  0.35160  Biso   1.000  H
  H243     1.0000 0.02510  0.79570  0.64840  Biso   1.000  H
  H244     1.0000 0.47490  0.20430  0.14840  Biso   1.000  H
  H245     1.0000 0.85160  0.97490  0.29570  Biso   1.000  H
  H246     1.0000 0.35160  0.52510  0.70430  Biso   1.000  H
  H247     1.0000 0.64840  0.02510  0.79570  Biso   1.000  H
  H248     1.0000 0.14840  0.47490  0.20430  Biso   1.000  H
  H249     1.0000 0.29570  0.85160  0.97490  Biso   1.000  H
  H250     1.0000 0.70430  0.35160  0.52510  Biso   1.000  H
  H251     1.0000 0.79570  0.64840  0.02510  Biso   1.000  H
  H252     1.0000 0.20430  0.14840  0.47490  Biso   1.000  H
  H253     1.0000 0.04570  0.22490  0.39840  Biso   1.000  H
  H254     1.0000 0.45430  0.77510  0.89840  Biso   1.000  H
  H255     1.0000 0.54570  0.27510  0.60160  Biso   1.000  H
  H256     1.0000 0.95430  0.72490  0.10160  Biso   1.000  H
  H257     1.0000 0.72490  0.10160  0.95430  Biso   1.000  H
  H258     1.0000 0.27510  0.60160  0.54570  Biso   1.000  H
  H259     1.0000 0.77510  0.89840  0.45430  Biso   1.000  H
  H260     1.0000 0.22490  0.39840  0.04570  Biso   1.000  H
  H261     1.0000 0.60160  0.54570  0.27510  Biso   1.000  H
  H262     1.0000 0.10160  0.95430  0.72490  Biso   1.000  H
  H263     1.0000 0.39840  0.04570  0.22490  Biso   1.000  H
  H264     1.0000 0.89840  0.45430  0.77510  Biso   1.000  H
  H265     1.0000 0.47490  0.79570  0.35160  Biso   1.000  H
  H266     1.0000 0.02510  0.20430  0.85160  Biso   1.000  H
  H267     1.0000 0.52510  0.29570  0.14840  Biso   1.000  H
  H268     1.0000 0.97490  0.70430  0.64840  Biso   1.000  H
  H269     1.0000 0.35160  0.47490  0.79570  Biso   1.000  H
  H270     1.0000 0.85160  0.02510  0.20430  Biso   1.000  H
  H271     1.0000 0.14840  0.52510  0.29570  Biso   1.000  H
  H272     1.0000 0.64840  0.97490  0.70430  Biso   1.000  H
  H273     1.0000 0.79570  0.35160  0.47490  Biso   1.000  H
  H274     1.0000 0.20430  0.85160  0.02510  Biso   1.000  H
  H275     1.0000 0.29570  0.14840  0.52510  Biso   1.000  H
  H276     1.0000 0.70430  0.64840  0.97490  Biso   1.000  H
  H277     1.0000 0.54570  0.72490  0.89840  Biso   1.000  H
  H278     1.0000 0.95430  0.27510  0.39840  Biso   1.000  H
  H279     1.0000 0.04570  0.77510  0.10160  Biso   1.000  H
  H280     1.0000 0.45430  0.22490  0.60160  Biso   1.000  H
  H281     1.0000 0.22490  0.60160  0.45430  Biso   1.000  H
  H282     1.0000 0.77510  0.10160  0.04570  Biso   1.000  H
  H283     1.0000 0.27510  0.39840  0.95430  Biso   1.000  H
  H284     1.0000 0.72490  0.89840  0.54570  Biso   1.000  H
  H285     1.0000 0.10160  0.04570  0.77510  Biso   1.000  H
  H286     1.0000 0.60160  0.45430  0.22490  Biso   1.000  H
  H287     1.0000 0.89840  0.54570  0.72490  Biso   1.000  H
  H288     1.0000 0.39840  0.95430  0.27510  Biso   1.000  H
  C481     1.0000 0.10349  0.68956  0.11060  Biso   1.000  C
  C482     1.0000 0.39651  0.31044  0.61060  Biso   1.000  C
  C483     1.0000 0.89651  0.18956  0.38940  Biso   1.000  C
  C484     1.0000 0.60349  0.81044  0.88940  Biso   1.000  C
  C485     1.0000 0.11060  0.10349  0.68956  Biso   1.000  C
  C486     1.0000 0.61060  0.39651  0.31044  Biso   1.000  C
  C487     1.0000 0.38940  0.89651  0.18956  Biso   1.000  C
  C488     1.0000 0.88940  0.60349  0.81044  Biso   1.000  C
  C489     1.0000 0.68956  0.11060  0.10349  Biso   1.000  C
  C490     1.0000 0.31044  0.61060  0.39651  Biso   1.000  C
  C491     1.0000 0.18956  0.38940  0.89651  Biso   1.000  C
  C492     1.0000 0.81044  0.88940  0.60349  Biso   1.000  C
  C493     1.0000 0.43956  0.35349  0.13940  Biso   1.000  C
  C494     1.0000 0.06044  0.64651  0.63940  Biso   1.000  C
  C495     1.0000 0.93956  0.14651  0.86060  Biso   1.000  C
  C496     1.0000 0.56044  0.85349  0.36060  Biso   1.000  C
  C497     1.0000 0.85349  0.36060  0.56044  Biso   1.000  C
  C498     1.0000 0.14651  0.86060  0.93956  Biso   1.000  C
  C499     1.0000 0.64651  0.63940  0.06044  Biso   1.000  C
  C500     1.0000 0.35349  0.13940  0.43956  Biso   1.000  C
  C501     1.0000 0.86060  0.93956  0.14651  Biso   1.000  C
  C502     1.0000 0.36060  0.56044  0.85349  Biso   1.000  C
  C503     1.0000 0.13940  0.43956  0.35349  Biso   1.000  C
  C504     1.0000 0.63940  0.06044  0.64651  Biso   1.000  C
  C505     1.0000 0.60349  0.18956  0.61060  Biso   1.000  C
  C506     1.0000 0.89651  0.81044  0.11060  Biso   1.000  C
  C507     1.0000 0.39651  0.68956  0.88940  Biso   1.000  C
  C508     1.0000 0.10349  0.31044  0.38940  Biso   1.000  C
  C509     1.0000 0.61060  0.60349  0.18956  Biso   1.000  C
  C510     1.0000 0.11060  0.89651  0.81044  Biso   1.000  C
  C511     1.0000 0.88940  0.39651  0.68956  Biso   1.000  C
  C512     1.0000 0.38940  0.10349  0.31044  Biso   1.000  C
  C513     1.0000 0.18956  0.61060  0.60349  Biso   1.000  C
  C514     1.0000 0.81044  0.11060  0.89651  Biso   1.000  C
  C515     1.0000 0.68956  0.88940  0.39651  Biso   1.000  C
  C516     1.0000 0.31044  0.38940  0.10349  Biso   1.000  C
  C517     1.0000 0.93956  0.85349  0.63940  Biso   1.000  C
  C518     1.0000 0.56044  0.14651  0.13940  Biso   1.000  C
  C519     1.0000 0.43956  0.64651  0.36060  Biso   1.000  C
  C520     1.0000 0.06044  0.35349  0.86060  Biso   1.000  C
  C521     1.0000 0.35349  0.86060  0.06044  Biso   1.000  C
  C522     1.0000 0.64651  0.36060  0.43956  Biso   1.000  C
  C523     1.0000 0.14651  0.13940  0.56044  Biso   1.000  C
  C524     1.0000 0.85349  0.63940  0.93956  Biso   1.000  C
  C525     1.0000 0.36060  0.43956  0.64651  Biso   1.000  C
  C526     1.0000 0.86060  0.06044  0.35349  Biso   1.000  C
  C527     1.0000 0.63940  0.93956  0.85349  Biso   1.000  C
  C528     1.0000 0.13940  0.56044  0.14651  Biso   1.000  C
  C529     1.0000 0.89651  0.31044  0.88940  Biso   1.000  C
  C530     1.0000 0.60349  0.68956  0.38940  Biso   1.000  C
  C531     1.0000 0.10349  0.81044  0.61060  Biso   1.000  C
  C532     1.0000 0.39651  0.18956  0.11060  Biso   1.000  C
  C533     1.0000 0.88940  0.89651  0.31044  Biso   1.000  C
  C534     1.0000 0.38940  0.60349  0.68956  Biso   1.000  C
  C535     1.0000 0.61060  0.10349  0.81044  Biso   1.000  C
  C536     1.0000 0.11060  0.39651  0.18956  Biso   1.000  C
  C537     1.0000 0.31044  0.88940  0.89651  Biso   1.000  C
  C538     1.0000 0.68956  0.38940  0.60349  Biso   1.000  C
  C539     1.0000 0.81044  0.61060  0.10349  Biso   1.000  C
  C540     1.0000 0.18956  0.11060  0.39651  Biso   1.000  C
  C541     1.0000 0.06044  0.14651  0.36060  Biso   1.000  C
  C542     1.0000 0.43956  0.85349  0.86060  Biso   1.000  C
  C543     1.0000 0.56044  0.35349  0.63940  Biso   1.000  C
  C544     1.0000 0.93956  0.64651  0.13940  Biso   1.000  C
  C545     1.0000 0.64651  0.13940  0.93956  Biso   1.000  C
  C546     1.0000 0.35349  0.63940  0.56044  Biso   1.000  C
  C547     1.0000 0.85349  0.86060  0.43956  Biso   1.000  C
  C548     1.0000 0.14651  0.36060  0.06044  Biso   1.000  C
  C549     1.0000 0.63940  0.56044  0.35349  Biso   1.000  C
  C550     1.0000 0.13940  0.93956  0.64651  Biso   1.000  C
  C551     1.0000 0.36060  0.06044  0.14651  Biso   1.000  C
  C552     1.0000 0.86060  0.43956  0.85349  Biso   1.000  C
  C553     1.0000 0.39651  0.81044  0.38940  Biso   1.000  C
  C554     1.0000 0.10349  0.18956  0.88940  Biso   1.000  C
  C555     1.0000 0.60349  0.31044  0.11060  Biso   1.000  C
  C556     1.0000 0.89651  0.68956  0.61060  Biso   1.000  C
  C557     1.0000 0.38940  0.39651  0.81044  Biso   1.000  C
  C558     1.0000 0.88940  0.10349  0.18956  Biso   1.000  C
  C559     1.0000 0.11060  0.60349  0.31044  Biso   1.000  C
  C560     1.0000 0.61060  0.89651  0.68956  Biso   1.000  C
  C561     1.0000 0.81044  0.38940  0.39651  Biso   1.000  C
  C562     1.0000 0.18956  0.88940  0.10349  Biso   1.000  C
  C563     1.0000 0.31044  0.11060  0.60349  Biso   1.000  C
  C564     1.0000 0.68956  0.61060  0.89651  Biso   1.000  C
  C565     1.0000 0.56044  0.64651  0.86060  Biso   1.000  C
  C566     1.0000 0.93956  0.35349  0.36060  Biso   1.000  C
  C567     1.0000 0.06044  0.85349  0.13940  Biso   1.000  C
  C568     1.0000 0.43956  0.14651  0.63940  Biso   1.000  C
  C569     1.0000 0.14651  0.63940  0.43956  Biso   1.000  C
  C570     1.0000 0.85349  0.13940  0.06044  Biso   1.000  C
  C571     1.0000 0.35349  0.36060  0.93956  Biso   1.000  C
  C572     1.0000 0.64651  0.86060  0.56044  Biso   1.000  C
  C573     1.0000 0.13940  0.06044  0.85349  Biso   1.000  C
  C574     1.0000 0.63940  0.43956  0.14651  Biso   1.000  C
  C575     1.0000 0.86060  0.56044  0.64651  Biso   1.000  C
  C576     1.0000 0.36060  0.93956  0.35349  Biso   1.000  C
  H289     1.0000 0.13030  0.69110  0.10720  Biso   1.000  H
  H290     1.0000 0.36970  0.30890  0.60720  Biso   1.000  H
  H291     1.0000 0.86970  0.19110  0.39280  Biso   1.000  H
  H292     1.0000 0.63030  0.80890  0.89280  Biso   1.000  H
  H293     1.0000 0.10720  0.13030  0.69110  Biso   1.000  H
  H294     1.0000 0.60720  0.36970  0.30890  Biso   1.000  H
  H295     1.0000 0.39280  0.86970  0.19110  Biso   1.000  H
  H296     1.0000 0.89280  0.63030  0.80890  Biso   1.000  H
  H297     1.0000 0.69110  0.10720  0.13030  Biso   1.000  H
  H298     1.0000 0.30890  0.60720  0.36970  Biso   1.000  H
  H299     1.0000 0.19110  0.39280  0.86970  Biso   1.000  H
  H300     1.0000 0.80890  0.89280  0.63030  Biso   1.000  H
  H301     1.0000 0.44110  0.38030  0.14280  Biso   1.000  H
  H302     1.0000 0.05890  0.61970  0.64280  Biso   1.000  H
  H303     1.0000 0.94110  0.11970  0.85720  Biso   1.000  H
  H304     1.0000 0.55890  0.88030  0.35720  Biso   1.000  H
  H305     1.0000 0.88030  0.35720  0.55890  Biso   1.000  H
  H306     1.0000 0.11970  0.85720  0.94110  Biso   1.000  H
  H307     1.0000 0.61970  0.64280  0.05890  Biso   1.000  H
  H308     1.0000 0.38030  0.14280  0.44110  Biso   1.000  H
  H309     1.0000 0.85720  0.94110  0.11970  Biso   1.000  H
  H310     1.0000 0.35720  0.55890  0.88030  Biso   1.000  H
  H311     1.0000 0.14280  0.44110  0.38030  Biso   1.000  H
  H312     1.0000 0.64280  0.05890  0.61970  Biso   1.000  H
  H313     1.0000 0.63030  0.19110  0.60720  Biso   1.000  H
  H314     1.0000 0.86970  0.80890  0.10720  Biso   1.000  H
  H315     1.0000 0.36970  0.69110  0.89280  Biso   1.000  H
  H316     1.0000 0.13030  0.30890  0.39280  Biso   1.000  H
  H317     1.0000 0.60720  0.63030  0.19110  Biso   1.000  H
  H318     1.0000 0.10720  0.86970  0.80890  Biso   1.000  H
  H319     1.0000 0.89280  0.36970  0.69110  Biso   1.000  H
  H320     1.0000 0.39280  0.13030  0.30890  Biso   1.000  H
  H321     1.0000 0.19110  0.60720  0.63030  Biso   1.000  H
  H322     1.0000 0.80890  0.10720  0.86970  Biso   1.000  H
  H323     1.0000 0.69110  0.89280  0.36970  Biso   1.000  H
  H324     1.0000 0.30890  0.39280  0.13030  Biso   1.000  H
  H325     1.0000 0.94110  0.88030  0.64280  Biso   1.000  H
  H326     1.0000 0.55890  0.11970  0.14280  Biso   1.000  H
  H327     1.0000 0.44110  0.61970  0.35720  Biso   1.000  H
  H328     1.0000 0.05890  0.38030  0.85720  Biso   1.000  H
  H329     1.0000 0.38030  0.85720  0.05890  Biso   1.000  H
  H330     1.0000 0.61970  0.35720  0.44110  Biso   1.000  H
  H331     1.0000 0.11970  0.14280  0.55890  Biso   1.000  H
  H332     1.0000 0.88030  0.64280  0.94110  Biso   1.000  H
  H333     1.0000 0.35720  0.44110  0.61970  Biso   1.000  H
  H334     1.0000 0.85720  0.05890  0.38030  Biso   1.000  H
  H335     1.0000 0.64280  0.94110  0.88030  Biso   1.000  H
  H336     1.0000 0.14280  0.55890  0.11970  Biso   1.000  H
  H337     1.0000 0.86970  0.30890  0.89280  Biso   1.000  H
  H338     1.0000 0.63030  0.69110  0.39280  Biso   1.000  H
  H339     1.0000 0.13030  0.80890  0.60720  Biso   1.000  H
  H340     1.0000 0.36970  0.19110  0.10720  Biso   1.000  H
  H341     1.0000 0.89280  0.86970  0.30890  Biso   1.000  H
  H342     1.0000 0.39280  0.63030  0.69110  Biso   1.000  H
  H343     1.0000 0.60720  0.13030  0.80890  Biso   1.000  H
  H344     1.0000 0.10720  0.36970  0.19110  Biso   1.000  H
  H345     1.0000 0.30890  0.89280  0.86970  Biso   1.000  H
  H346     1.0000 0.69110  0.39280  0.63030  Biso   1.000  H
  H347     1.0000 0.80890  0.60720  0.13030  Biso   1.000  H
  H348     1.0000 0.19110  0.10720  0.36970  Biso   1.000  H
  H349     1.0000 0.05890  0.11970  0.35720  Biso   1.000  H
  H350     1.0000 0.44110  0.88030  0.85720  Biso   1.000  H
  H351     1.0000 0.55890  0.38030  0.64280  Biso   1.000  H
  H352     1.0000 0.94110  0.61970  0.14280  Biso   1.000  H
  H353     1.0000 0.61970  0.14280  0.94110  Biso   1.000  H
  H354     1.0000 0.38030  0.64280  0.55890  Biso   1.000  H
  H355     1.0000 0.88030  0.85720  0.44110  Biso   1.000  H
  H356     1.0000 0.11970  0.35720  0.05890  Biso   1.000  H
  H357     1.0000 0.64280  0.55890  0.38030  Biso   1.000  H
  H358     1.0000 0.14280  0.94110  0.61970  Biso   1.000  H
  H359     1.0000 0.35720  0.05890  0.11970  Biso   1.000  H
  H360     1.0000 0.85720  0.44110  0.88030  Biso   1.000  H
  H361     1.0000 0.36970  0.80890  0.39280  Biso   1.000  H
  H362     1.0000 0.13030  0.19110  0.89280  Biso   1.000  H
  H363     1.0000 0.63030  0.30890  0.10720  Biso   1.000  H
  H364     1.0000 0.86970  0.69110  0.60720  Biso   1.000  H
  H365     1.0000 0.39280  0.36970  0.80890  Biso   1.000  H
  H366     1.0000 0.89280  0.13030  0.19110  Biso   1.000  H
  H367     1.0000 0.10720  0.63030  0.30890  Biso   1.000  H
  H368     1.0000 0.60720  0.86970  0.69110  Biso   1.000  H
  H369     1.0000 0.80890  0.39280  0.36970  Biso   1.000  H
  H370     1.0000 0.19110  0.89280  0.13030  Biso   1.000  H
  H371     1.0000 0.30890  0.10720  0.63030  Biso   1.000  H
  H372     1.0000 0.69110  0.60720  0.86970  Biso   1.000  H
  H373     1.0000 0.55890  0.61970  0.85720  Biso   1.000  H
  H374     1.0000 0.94110  0.38030  0.35720  Biso   1.000  H
  H375     1.0000 0.05890  0.88030  0.14280  Biso   1.000  H
  H376     1.0000 0.44110  0.11970  0.64280  Biso   1.000  H
  H377     1.0000 0.11970  0.64280  0.44110  Biso   1.000  H
  H378     1.0000 0.88030  0.14280  0.05890  Biso   1.000  H
  H379     1.0000 0.38030  0.35720  0.94110  Biso   1.000  H
  H380     1.0000 0.61970  0.85720  0.55890  Biso   1.000  H
  H381     1.0000 0.14280  0.05890  0.88030  Biso   1.000  H
  H382     1.0000 0.64280  0.44110  0.11970  Biso   1.000  H
  H383     1.0000 0.85720  0.55890  0.61970  Biso   1.000  H
  H384     1.0000 0.35720  0.94110  0.38030  Biso   1.000  H
  N289     1.0000 0.08298  0.70761  0.13866  Biso   1.000  N
  N290     1.0000 0.41702  0.29239  0.63866  Biso   1.000  N
  N291     1.0000 0.91702  0.20761  0.36134  Biso   1.000  N
  N292     1.0000 0.58298  0.79239  0.86134  Biso   1.000  N
  N293     1.0000 0.13866  0.08298  0.70761  Biso   1.000  N
  N294     1.0000 0.63866  0.41702  0.29239  Biso   1.000  N
  N295     1.0000 0.36134  0.91702  0.20761  Biso   1.000  N
  N296     1.0000 0.86134  0.58298  0.79239  Biso   1.000  N
  N297     1.0000 0.70761  0.13866  0.08298  Biso   1.000  N
  N298     1.0000 0.29239  0.63866  0.41702  Biso   1.000  N
  N299     1.0000 0.20761  0.36134  0.91702  Biso   1.000  N
  N300     1.0000 0.79239  0.86134  0.58298  Biso   1.000  N
  N301     1.0000 0.45761  0.33298  0.11134  Biso   1.000  N
  N302     1.0000 0.04239  0.66702  0.61134  Biso   1.000  N
  N303     1.0000 0.95761  0.16702  0.88866  Biso   1.000  N
  N304     1.0000 0.54239  0.83298  0.38866  Biso   1.000  N
  N305     1.0000 0.83298  0.38866  0.54239  Biso   1.000  N
  N306     1.0000 0.16702  0.88866  0.95761  Biso   1.000  N
  N307     1.0000 0.66702  0.61134  0.04239  Biso   1.000  N
  N308     1.0000 0.33298  0.11134  0.45761  Biso   1.000  N
  N309     1.0000 0.88866  0.95761  0.16702  Biso   1.000  N
  N310     1.0000 0.38866  0.54239  0.83298  Biso   1.000  N
  N311     1.0000 0.11134  0.45761  0.33298  Biso   1.000  N
  N312     1.0000 0.61134  0.04239  0.66702  Biso   1.000  N
  N313     1.0000 0.58298  0.20761  0.63866  Biso   1.000  N
  N314     1.0000 0.91702  0.79239  0.13866  Biso   1.000  N
  N315     1.0000 0.41702  0.70761  0.86134  Biso   1.000  N
  N316     1.0000 0.08298  0.29239  0.36134  Biso   1.000  N
  N317     1.0000 0.63866  0.58298  0.20761  Biso   1.000  N
  N318     1.0000 0.13866  0.91702  0.79239  Biso   1.000  N
  N319     1.0000 0.86134  0.41702  0.70761  Biso   1.000  N
  N320     1.0000 0.36134  0.08298  0.29239  Biso   1.000  N
  N321     1.0000 0.20761  0.63866  0.58298  Biso   1.000  N
  N322     1.0000 0.79239  0.13866  0.91702  Biso   1.000  N
  N323     1.0000 0.70761  0.86134  0.41702  Biso   1.000  N
  N324     1.0000 0.29239  0.36134  0.08298  Biso   1.000  N
  N325     1.0000 0.95761  0.83298  0.61134  Biso   1.000  N
  N326     1.0000 0.54239  0.16702  0.11134  Biso   1.000  N
  N327     1.0000 0.45761  0.66702  0.38866  Biso   1.000  N
  N328     1.0000 0.04239  0.33298  0.88866  Biso   1.000  N
  N329     1.0000 0.33298  0.88866  0.04239  Biso   1.000  N
  N330     1.0000 0.66702  0.38866  0.45761  Biso   1.000  N
  N331     1.0000 0.16702  0.11134  0.54239  Biso   1.000  N
  N332     1.0000 0.83298  0.61134  0.95761  Biso   1.000  N
  N333     1.0000 0.38866  0.45761  0.66702  Biso   1.000  N
  N334     1.0000 0.88866  0.04239  0.33298  Biso   1.000  N
  N335     1.0000 0.61134  0.95761  0.83298  Biso   1.000  N
  N336     1.0000 0.11134  0.54239  0.16702  Biso   1.000  N
  N337     1.0000 0.91702  0.29239  0.86134  Biso   1.000  N
  N338     1.0000 0.58298  0.70761  0.36134  Biso   1.000  N
  N339     1.0000 0.08298  0.79239  0.63866  Biso   1.000  N
  N340     1.0000 0.41702  0.20761  0.13866  Biso   1.000  N
  N341     1.0000 0.86134  0.91702  0.29239  Biso   1.000  N
  N342     1.0000 0.36134  0.58298  0.70761  Biso   1.000  N
  N343     1.0000 0.63866  0.08298  0.79239  Biso   1.000  N
  N344     1.0000 0.13866  0.41702  0.20761  Biso   1.000  N
  N345     1.0000 0.29239  0.86134  0.91702  Biso   1.000  N
  N346     1.0000 0.70761  0.36134  0.58298  Biso   1.000  N
  N347     1.0000 0.79239  0.63866  0.08298  Biso   1.000  N
  N348     1.0000 0.20761  0.13866  0.41702  Biso   1.000  N
  N349     1.0000 0.04239  0.16702  0.38866  Biso   1.000  N
  N350     1.0000 0.45761  0.83298  0.88866  Biso   1.000  N
  N351     1.0000 0.54239  0.33298  0.61134  Biso   1.000  N
  N352     1.0000 0.95761  0.66702  0.11134  Biso   1.000  N
  N353     1.0000 0.66702  0.11134  0.95761  Biso   1.000  N
  N354     1.0000 0.33298  0.61134  0.54239  Biso   1.000  N
  N355     1.0000 0.83298  0.88866  0.45761  Biso   1.000  N
  N356     1.0000 0.16702  0.38866  0.04239  Biso   1.000  N
  N357     1.0000 0.61134  0.54239  0.33298  Biso   1.000  N
  N358     1.0000 0.11134  0.95761  0.66702  Biso   1.000  N
  N359     1.0000 0.38866  0.04239  0.16702  Biso   1.000  N
  N360     1.0000 0.88866  0.45761  0.83298  Biso   1.000  N
  N361     1.0000 0.41702  0.79239  0.36134  Biso   1.000  N
  N362     1.0000 0.08298  0.20761  0.86134  Biso   1.000  N
  N363     1.0000 0.58298  0.29239  0.13866  Biso   1.000  N
  N364     1.0000 0.91702  0.70761  0.63866  Biso   1.000  N
  N365     1.0000 0.36134  0.41702  0.79239  Biso   1.000  N
  N366     1.0000 0.86134  0.08298  0.20761  Biso   1.000  N
  N367     1.0000 0.13866  0.58298  0.29239  Biso   1.000  N
  N368     1.0000 0.63866  0.91702  0.70761  Biso   1.000  N
  N369     1.0000 0.79239  0.36134  0.41702  Biso   1.000  N
  N370     1.0000 0.20761  0.86134  0.08298  Biso   1.000  N
  N371     1.0000 0.29239  0.13866  0.58298  Biso   1.000  N
  N372     1.0000 0.70761  0.63866  0.91702  Biso   1.000  N
  N373     1.0000 0.54239  0.66702  0.88866  Biso   1.000  N
  N374     1.0000 0.95761  0.33298  0.38866  Biso   1.000  N
  N375     1.0000 0.04239  0.83298  0.11134  Biso   1.000  N
  N376     1.0000 0.45761  0.16702  0.61134  Biso   1.000  N
  N377     1.0000 0.16702  0.61134  0.45761  Biso   1.000  N
  N378     1.0000 0.83298  0.11134  0.04239  Biso   1.000  N
  N379     1.0000 0.33298  0.38866  0.95761  Biso   1.000  N
  N380     1.0000 0.66702  0.88866  0.54239  Biso   1.000  N
  N381     1.0000 0.11134  0.04239  0.83298  Biso   1.000  N
  N382     1.0000 0.61134  0.45761  0.16702  Biso   1.000  N
  N383     1.0000 0.88866  0.54239  0.66702  Biso   1.000  N
  N384     1.0000 0.38866  0.95761  0.33298  Biso   1.000  N
  C577     1.0000 0.01597  0.60230  0.98970  Biso   1.000  C
  C578     1.0000 0.48403  0.39770  0.48970  Biso   1.000  C
  C579     1.0000 0.98403  0.10230  0.51030  Biso   1.000  C
  C580     1.0000 0.51597  0.89770  0.01030  Biso   1.000  C
  C581     1.0000 0.98970  0.01597  0.60230  Biso   1.000  C
  C582     1.0000 0.48970  0.48403  0.39770  Biso   1.000  C
  C583     1.0000 0.51030  0.98403  0.10230  Biso   1.000  C
  C584     1.0000 0.01030  0.51597  0.89770  Biso   1.000  C
  C585     1.0000 0.60230  0.98970  0.01597  Biso   1.000  C
  C586     1.0000 0.39770  0.48970  0.48403  Biso   1.000  C
  C587     1.0000 0.10230  0.51030  0.98403  Biso   1.000  C
  C588     1.0000 0.89770  0.01030  0.51597  Biso   1.000  C
  C589     1.0000 0.35230  0.26597  0.26030  Biso   1.000  C
  C590     1.0000 0.14770  0.73403  0.76030  Biso   1.000  C
  C591     1.0000 0.85230  0.23403  0.73970  Biso   1.000  C
  C592     1.0000 0.64770  0.76597  0.23970  Biso   1.000  C
  C593     1.0000 0.76597  0.23970  0.64770  Biso   1.000  C
  C594     1.0000 0.23403  0.73970  0.85230  Biso   1.000  C
  C595     1.0000 0.73403  0.76030  0.14770  Biso   1.000  C
  C596     1.0000 0.26597  0.26030  0.35230  Biso   1.000  C
  C597     1.0000 0.73970  0.85230  0.23403  Biso   1.000  C
  C598     1.0000 0.23970  0.64770  0.76597  Biso   1.000  C
  C599     1.0000 0.26030  0.35230  0.26597  Biso   1.000  C
  C600     1.0000 0.76030  0.14770  0.73403  Biso   1.000  C
  C601     1.0000 0.51597  0.10230  0.48970  Biso   1.000  C
  C602     1.0000 0.98403  0.89770  0.98970  Biso   1.000  C
  C603     1.0000 0.48403  0.60230  0.01030  Biso   1.000  C
  C604     1.0000 0.01597  0.39770  0.51030  Biso   1.000  C
  C605     1.0000 0.48970  0.51597  0.10230  Biso   1.000  C
  C606     1.0000 0.98970  0.98403  0.89770  Biso   1.000  C
  C607     1.0000 0.01030  0.48403  0.60230  Biso   1.000  C
  C608     1.0000 0.51030  0.01597  0.39770  Biso   1.000  C
  C609     1.0000 0.10230  0.48970  0.51597  Biso   1.000  C
  C610     1.0000 0.89770  0.98970  0.98403  Biso   1.000  C
  C611     1.0000 0.60230  0.01030  0.48403  Biso   1.000  C
  C612     1.0000 0.39770  0.51030  0.01597  Biso   1.000  C
  C613     1.0000 0.85230  0.76597  0.76030  Biso   1.000  C
  C614     1.0000 0.64770  0.23403  0.26030  Biso   1.000  C
  C615     1.0000 0.35230  0.73403  0.23970  Biso   1.000  C
  C616     1.0000 0.14770  0.26597  0.73970  Biso   1.000  C
  C617     1.0000 0.26597  0.73970  0.14770  Biso   1.000  C
  C618     1.0000 0.73403  0.23970  0.35230  Biso   1.000  C
  C619     1.0000 0.23403  0.26030  0.64770  Biso   1.000  C
  C620     1.0000 0.76597  0.76030  0.85230  Biso   1.000  C
  C621     1.0000 0.23970  0.35230  0.73403  Biso   1.000  C
  C622     1.0000 0.73970  0.14770  0.26597  Biso   1.000  C
  C623     1.0000 0.76030  0.85230  0.76597  Biso   1.000  C
  C624     1.0000 0.26030  0.64770  0.23403  Biso   1.000  C
  C625     1.0000 0.98403  0.39770  0.01030  Biso   1.000  C
  C626     1.0000 0.51597  0.60230  0.51030  Biso   1.000  C
  C627     1.0000 0.01597  0.89770  0.48970  Biso   1.000  C
  C628     1.0000 0.48403  0.10230  0.98970  Biso   1.000  C
  C629     1.0000 0.01030  0.98403  0.39770  Biso   1.000  C
  C630     1.0000 0.51030  0.51597  0.60230  Biso   1.000  C
  C631     1.0000 0.48970  0.01597  0.89770  Biso   1.000  C
  C632     1.0000 0.98970  0.48403  0.10230  Biso   1.000  C
  C633     1.0000 0.39770  0.01030  0.98403  Biso   1.000  C
  C634     1.0000 0.60230  0.51030  0.51597  Biso   1.000  C
  C635     1.0000 0.89770  0.48970  0.01597  Biso   1.000  C
  C636     1.0000 0.10230  0.98970  0.48403  Biso   1.000  C
  C637     1.0000 0.14770  0.23403  0.23970  Biso   1.000  C
  C638     1.0000 0.35230  0.76597  0.73970  Biso   1.000  C
  C639     1.0000 0.64770  0.26597  0.76030  Biso   1.000  C
  C640     1.0000 0.85230  0.73403  0.26030  Biso   1.000  C
  C641     1.0000 0.73403  0.26030  0.85230  Biso   1.000  C
  C642     1.0000 0.26597  0.76030  0.64770  Biso   1.000  C
  C643     1.0000 0.76597  0.73970  0.35230  Biso   1.000  C
  C644     1.0000 0.23403  0.23970  0.14770  Biso   1.000  C
  C645     1.0000 0.76030  0.64770  0.26597  Biso   1.000  C
  C646     1.0000 0.26030  0.85230  0.73403  Biso   1.000  C
  C647     1.0000 0.23970  0.14770  0.23403  Biso   1.000  C
  C648     1.0000 0.73970  0.35230  0.76597  Biso   1.000  C
  C649     1.0000 0.48403  0.89770  0.51030  Biso   1.000  C
  C650     1.0000 0.01597  0.10230  0.01030  Biso   1.000  C
  C651     1.0000 0.51597  0.39770  0.98970  Biso   1.000  C
  C652     1.0000 0.98403  0.60230  0.48970  Biso   1.000  C
  C653     1.0000 0.51030  0.48403  0.89770  Biso   1.000  C
  C654     1.0000 0.01030  0.01597  0.10230  Biso   1.000  C
  C655     1.0000 0.98970  0.51597  0.39770  Biso   1.000  C
  C656     1.0000 0.48970  0.98403  0.60230  Biso   1.000  C
  C657     1.0000 0.89770  0.51030  0.48403  Biso   1.000  C
  C658     1.0000 0.10230  0.01030  0.01597  Biso   1.000  C
  C659     1.0000 0.39770  0.98970  0.51597  Biso   1.000  C
  C660     1.0000 0.60230  0.48970  0.98403  Biso   1.000  C
  C661     1.0000 0.64770  0.73403  0.73970  Biso   1.000  C
  C662     1.0000 0.85230  0.26597  0.23970  Biso   1.000  C
  C663     1.0000 0.14770  0.76597  0.26030  Biso   1.000  C
  C664     1.0000 0.35230  0.23403  0.76030  Biso   1.000  C
  C665     1.0000 0.23403  0.76030  0.35230  Biso   1.000  C
  C666     1.0000 0.76597  0.26030  0.14770  Biso   1.000  C
  C667     1.0000 0.26597  0.23970  0.85230  Biso   1.000  C
  C668     1.0000 0.73403  0.73970  0.64770  Biso   1.000  C
  C669     1.0000 0.26030  0.14770  0.76597  Biso   1.000  C
  C670     1.0000 0.76030  0.35230  0.23403  Biso   1.000  C
  C671     1.0000 0.73970  0.64770  0.73403  Biso   1.000  C
  C672     1.0000 0.23970  0.85230  0.26597  Biso   1.000  C
  H385     1.0000 0.01780  0.58820  0.96670  Biso   1.000  H
  H386     1.0000 0.48220  0.41180  0.46670  Biso   1.000  H
  H387     1.0000 0.98220  0.08820  0.53330  Biso   1.000  H
  H388     1.0000 0.51780  0.91180  0.03330  Biso   1.000  H
  H389     1.0000 0.96670  0.01780  0.58820  Biso   1.000  H
  H390     1.0000 0.46670  0.48220  0.41180  Biso   1.000  H
  H391     1.0000 0.53330  0.98220  0.08820  Biso   1.000  H
  H392     1.0000 0.03330  0.51780  0.91180  Biso   1.000  H
  H393     1.0000 0.58820  0.96670  0.01780  Biso   1.000  H
  H394     1.0000 0.41180  0.46670  0.48220  Biso   1.000  H
  H395     1.0000 0.08820  0.53330  0.98220  Biso   1.000  H
  H396     1.0000 0.91180  0.03330  0.51780  Biso   1.000  H
  H397     1.0000 0.33820  0.26780  0.28330  Biso   1.000  H
  H398     1.0000 0.16180  0.73220  0.78330  Biso   1.000  H
  H399     1.0000 0.83820  0.23220  0.71670  Biso   1.000  H
  H400     1.0000 0.66180  0.76780  0.21670  Biso   1.000  H
  H401     1.0000 0.76780  0.21670  0.66180  Biso   1.000  H
  H402     1.0000 0.23220  0.71670  0.83820  Biso   1.000  H
  H403     1.0000 0.73220  0.78330  0.16180  Biso   1.000  H
  H404     1.0000 0.26780  0.28330  0.33820  Biso   1.000  H
  H405     1.0000 0.71670  0.83820  0.23220  Biso   1.000  H
  H406     1.0000 0.21670  0.66180  0.76780  Biso   1.000  H
  H407     1.0000 0.28330  0.33820  0.26780  Biso   1.000  H
  H408     1.0000 0.78330  0.16180  0.73220  Biso   1.000  H
  H409     1.0000 0.51780  0.08820  0.46670  Biso   1.000  H
  H410     1.0000 0.98220  0.91180  0.96670  Biso   1.000  H
  H411     1.0000 0.48220  0.58820  0.03330  Biso   1.000  H
  H412     1.0000 0.01780  0.41180  0.53330  Biso   1.000  H
  H413     1.0000 0.46670  0.51780  0.08820  Biso   1.000  H
  H414     1.0000 0.96670  0.98220  0.91180  Biso   1.000  H
  H415     1.0000 0.03330  0.48220  0.58820  Biso   1.000  H
  H416     1.0000 0.53330  0.01780  0.41180  Biso   1.000  H
  H417     1.0000 0.08820  0.46670  0.51780  Biso   1.000  H
  H418     1.0000 0.91180  0.96670  0.98220  Biso   1.000  H
  H419     1.0000 0.58820  0.03330  0.48220  Biso   1.000  H
  H420     1.0000 0.41180  0.53330  0.01780  Biso   1.000  H
  H421     1.0000 0.83820  0.76780  0.78330  Biso   1.000  H
  H422     1.0000 0.66180  0.23220  0.28330  Biso   1.000  H
  H423     1.0000 0.33820  0.73220  0.21670  Biso   1.000  H
  H424     1.0000 0.16180  0.26780  0.71670  Biso   1.000  H
  H425     1.0000 0.26780  0.71670  0.16180  Biso   1.000  H
  H426     1.0000 0.73220  0.21670  0.33820  Biso   1.000  H
  H427     1.0000 0.23220  0.28330  0.66180  Biso   1.000  H
  H428     1.0000 0.76780  0.78330  0.83820  Biso   1.000  H
  H429     1.0000 0.21670  0.33820  0.73220  Biso   1.000  H
  H430     1.0000 0.71670  0.16180  0.26780  Biso   1.000  H
  H431     1.0000 0.78330  0.83820  0.76780  Biso   1.000  H
  H432     1.0000 0.28330  0.66180  0.23220  Biso   1.000  H
  H433     1.0000 0.98220  0.41180  0.03330  Biso   1.000  H
  H434     1.0000 0.51780  0.58820  0.53330  Biso   1.000  H
  H435     1.0000 0.01780  0.91180  0.46670  Biso   1.000  H
  H436     1.0000 0.48220  0.08820  0.96670  Biso   1.000  H
  H437     1.0000 0.03330  0.98220  0.41180  Biso   1.000  H
  H438     1.0000 0.53330  0.51780  0.58820  Biso   1.000  H
  H439     1.0000 0.46670  0.01780  0.91180  Biso   1.000  H
  H440     1.0000 0.96670  0.48220  0.08820  Biso   1.000  H
  H441     1.0000 0.41180  0.03330  0.98220  Biso   1.000  H
  H442     1.0000 0.58820  0.53330  0.51780  Biso   1.000  H
  H443     1.0000 0.91180  0.46670  0.01780  Biso   1.000  H
  H444     1.0000 0.08820  0.96670  0.48220  Biso   1.000  H
  H445     1.0000 0.16180  0.23220  0.21670  Biso   1.000  H
  H446     1.0000 0.33820  0.76780  0.71670  Biso   1.000  H
  H447     1.0000 0.66180  0.26780  0.78330  Biso   1.000  H
  H448     1.0000 0.83820  0.73220  0.28330  Biso   1.000  H
  H449     1.0000 0.73220  0.28330  0.83820  Biso   1.000  H
  H450     1.0000 0.26780  0.78330  0.66180  Biso   1.000  H
  H451     1.0000 0.76780  0.71670  0.33820  Biso   1.000  H
  H452     1.0000 0.23220  0.21670  0.16180  Biso   1.000  H
  H453     1.0000 0.78330  0.66180  0.26780  Biso   1.000  H
  H454     1.0000 0.28330  0.83820  0.73220  Biso   1.000  H
  H455     1.0000 0.21670  0.16180  0.23220  Biso   1.000  H
  H456     1.0000 0.71670  0.33820  0.76780  Biso   1.000  H
  H457     1.0000 0.48220  0.91180  0.53330  Biso   1.000  H
  H458     1.0000 0.01780  0.08820  0.03330  Biso   1.000  H
  H459     1.0000 0.51780  0.41180  0.96670  Biso   1.000  H
  H460     1.0000 0.98220  0.58820  0.46670  Biso   1.000  H
  H461     1.0000 0.53330  0.48220  0.91180  Biso   1.000  H
  H462     1.0000 0.03330  0.01780  0.08820  Biso   1.000  H
  H463     1.0000 0.96670  0.51780  0.41180  Biso   1.000  H
  H464     1.0000 0.46670  0.98220  0.58820  Biso   1.000  H
  H465     1.0000 0.91180  0.53330  0.48220  Biso   1.000  H
  H466     1.0000 0.08820  0.03330  0.01780  Biso   1.000  H
  H467     1.0000 0.41180  0.96670  0.51780  Biso   1.000  H
  H468     1.0000 0.58820  0.46670  0.98220  Biso   1.000  H
  H469     1.0000 0.66180  0.73220  0.71670  Biso   1.000  H
  H470     1.0000 0.83820  0.26780  0.21670  Biso   1.000  H
  H471     1.0000 0.16180  0.76780  0.28330  Biso   1.000  H
  H472     1.0000 0.33820  0.23220  0.78330  Biso   1.000  H
  H473     1.0000 0.23220  0.78330  0.33820  Biso   1.000  H
  H474     1.0000 0.76780  0.28330  0.16180  Biso   1.000  H
  H475     1.0000 0.26780  0.21670  0.83820  Biso   1.000  H
  H476     1.0000 0.73220  0.71670  0.66180  Biso   1.000  H
  H477     1.0000 0.28330  0.16180  0.76780  Biso   1.000  H
  H478     1.0000 0.78330  0.33820  0.23220  Biso   1.000  H
  H479     1.0000 0.71670  0.66180  0.73220  Biso   1.000  H
  H480     1.0000 0.21670  0.83820  0.26780  Biso   1.000  H
  N385     1.0000 0.04485  0.63480  0.03790  Biso   1.000  N
  N386     1.0000 0.45515  0.36520  0.53790  Biso   1.000  N
  N387     1.0000 0.95515  0.13480  0.46210  Biso   1.000  N
  N388     1.0000 0.54485  0.86520  0.96210  Biso   1.000  N
  N389     1.0000 0.03790  0.04485  0.63480  Biso   1.000  N
  N390     1.0000 0.53790  0.45515  0.36520  Biso   1.000  N
  N391     1.0000 0.46210  0.95515  0.13480  Biso   1.000  N
  N392     1.0000 0.96210  0.54485  0.86520  Biso   1.000  N
  N393     1.0000 0.63480  0.03790  0.04485  Biso   1.000  N
  N394     1.0000 0.36520  0.53790  0.45515  Biso   1.000  N
  N395     1.0000 0.13480  0.46210  0.95515  Biso   1.000  N
  N396     1.0000 0.86520  0.96210  0.54485  Biso   1.000  N
  N397     1.0000 0.38480  0.29485  0.21210  Biso   1.000  N
  N398     1.0000 0.11520  0.70515  0.71210  Biso   1.000  N
  N399     1.0000 0.88480  0.20515  0.78790  Biso   1.000  N
  N400     1.0000 0.61520  0.79485  0.28790  Biso   1.000  N
  N401     1.0000 0.79485  0.28790  0.61520  Biso   1.000  N
  N402     1.0000 0.20515  0.78790  0.88480  Biso   1.000  N
  N403     1.0000 0.70515  0.71210  0.11520  Biso   1.000  N
  N404     1.0000 0.29485  0.21210  0.38480  Biso   1.000  N
  N405     1.0000 0.78790  0.88480  0.20515  Biso   1.000  N
  N406     1.0000 0.28790  0.61520  0.79485  Biso   1.000  N
  N407     1.0000 0.21210  0.38480  0.29485  Biso   1.000  N
  N408     1.0000 0.71210  0.11520  0.70515  Biso   1.000  N
  N409     1.0000 0.54485  0.13480  0.53790  Biso   1.000  N
  N410     1.0000 0.95515  0.86520  0.03790  Biso   1.000  N
  N411     1.0000 0.45515  0.63480  0.96210  Biso   1.000  N
  N412     1.0000 0.04485  0.36520  0.46210  Biso   1.000  N
  N413     1.0000 0.53790  0.54485  0.13480  Biso   1.000  N
  N414     1.0000 0.03790  0.95515  0.86520  Biso   1.000  N
  N415     1.0000 0.96210  0.45515  0.63480  Biso   1.000  N
  N416     1.0000 0.46210  0.04485  0.36520  Biso   1.000  N
  N417     1.0000 0.13480  0.53790  0.54485  Biso   1.000  N
  N418     1.0000 0.86520  0.03790  0.95515  Biso   1.000  N
  N419     1.0000 0.63480  0.96210  0.45515  Biso   1.000  N
  N420     1.0000 0.36520  0.46210  0.04485  Biso   1.000  N
  N421     1.0000 0.88480  0.79485  0.71210  Biso   1.000  N
  N422     1.0000 0.61520  0.20515  0.21210  Biso   1.000  N
  N423     1.0000 0.38480  0.70515  0.28790  Biso   1.000  N
  N424     1.0000 0.11520  0.29485  0.78790  Biso   1.000  N
  N425     1.0000 0.29485  0.78790  0.11520  Biso   1.000  N
  N426     1.0000 0.70515  0.28790  0.38480  Biso   1.000  N
  N427     1.0000 0.20515  0.21210  0.61520  Biso   1.000  N
  N428     1.0000 0.79485  0.71210  0.88480  Biso   1.000  N
  N429     1.0000 0.28790  0.38480  0.70515  Biso   1.000  N
  N430     1.0000 0.78790  0.11520  0.29485  Biso   1.000  N
  N431     1.0000 0.71210  0.88480  0.79485  Biso   1.000  N
  N432     1.0000 0.21210  0.61520  0.20515  Biso   1.000  N
  N433     1.0000 0.95515  0.36520  0.96210  Biso   1.000  N
  N434     1.0000 0.54485  0.63480  0.46210  Biso   1.000  N
  N435     1.0000 0.04485  0.86520  0.53790  Biso   1.000  N
  N436     1.0000 0.45515  0.13480  0.03790  Biso   1.000  N
  N437     1.0000 0.96210  0.95515  0.36520  Biso   1.000  N
  N438     1.0000 0.46210  0.54485  0.63480  Biso   1.000  N
  N439     1.0000 0.53790  0.04485  0.86520  Biso   1.000  N
  N440     1.0000 0.03790  0.45515  0.13480  Biso   1.000  N
  N441     1.0000 0.36520  0.96210  0.95515  Biso   1.000  N
  N442     1.0000 0.63480  0.46210  0.54485  Biso   1.000  N
  N443     1.0000 0.86520  0.53790  0.04485  Biso   1.000  N
  N444     1.0000 0.13480  0.03790  0.45515  Biso   1.000  N
  N445     1.0000 0.11520  0.20515  0.28790  Biso   1.000  N
  N446     1.0000 0.38480  0.79485  0.78790  Biso   1.000  N
  N447     1.0000 0.61520  0.29485  0.71210  Biso   1.000  N
  N448     1.0000 0.88480  0.70515  0.21210  Biso   1.000  N
  N449     1.0000 0.70515  0.21210  0.88480  Biso   1.000  N
  N450     1.0000 0.29485  0.71210  0.61520  Biso   1.000  N
  N451     1.0000 0.79485  0.78790  0.38480  Biso   1.000  N
  N452     1.0000 0.20515  0.28790  0.11520  Biso   1.000  N
  N453     1.0000 0.71210  0.61520  0.29485  Biso   1.000  N
  N454     1.0000 0.21210  0.88480  0.70515  Biso   1.000  N
  N455     1.0000 0.28790  0.11520  0.20515  Biso   1.000  N
  N456     1.0000 0.78790  0.38480  0.79485  Biso   1.000  N
  N457     1.0000 0.45515  0.86520  0.46210  Biso   1.000  N
  N458     1.0000 0.04485  0.13480  0.96210  Biso   1.000  N
  N459     1.0000 0.54485  0.36520  0.03790  Biso   1.000  N
  N460     1.0000 0.95515  0.63480  0.53790  Biso   1.000  N
  N461     1.0000 0.46210  0.45515  0.86520  Biso   1.000  N
  N462     1.0000 0.96210  0.04485  0.13480  Biso   1.000  N
  N463     1.0000 0.03790  0.54485  0.36520  Biso   1.000  N
  N464     1.0000 0.53790  0.95515  0.63480  Biso   1.000  N
  N465     1.0000 0.86520  0.46210  0.45515  Biso   1.000  N
  N466     1.0000 0.13480  0.96210  0.04485  Biso   1.000  N
  N467     1.0000 0.36520  0.03790  0.54485  Biso   1.000  N
  N468     1.0000 0.63480  0.53790  0.95515  Biso   1.000  N
  N469     1.0000 0.61520  0.70515  0.78790  Biso   1.000  N
  N470     1.0000 0.88480  0.29485  0.28790  Biso   1.000  N
  N471     1.0000 0.11520  0.79485  0.21210  Biso   1.000  N
  N472     1.0000 0.38480  0.20515  0.71210  Biso   1.000  N
  N473     1.0000 0.20515  0.71210  0.38480  Biso   1.000  N
  N474     1.0000 0.79485  0.21210  0.11520  Biso   1.000  N
  N475     1.0000 0.29485  0.28790  0.88480  Biso   1.000  N
  N476     1.0000 0.70515  0.78790  0.61520  Biso   1.000  N
  N477     1.0000 0.21210  0.11520  0.79485  Biso   1.000  N
  N478     1.0000 0.71210  0.38480  0.20515  Biso   1.000  N
  N479     1.0000 0.78790  0.61520  0.70515  Biso   1.000  N
  N480     1.0000 0.28790  0.88480  0.29485  Biso   1.000  N
  N481     1.0000 0.04928  0.61231  0.00443  Biso   1.000  N
  N482     1.0000 0.45072  0.38769  0.50443  Biso   1.000  N
  N483     1.0000 0.95072  0.11231  0.49557  Biso   1.000  N
  N484     1.0000 0.54928  0.88769  0.99557  Biso   1.000  N
  N485     1.0000 0.00443  0.04928  0.61231  Biso   1.000  N
  N486     1.0000 0.50443  0.45072  0.38769  Biso   1.000  N
  N487     1.0000 0.49557  0.95072  0.11231  Biso   1.000  N
  N488     1.0000 0.99557  0.54928  0.88769  Biso   1.000  N
  N489     1.0000 0.61231  0.00443  0.04928  Biso   1.000  N
  N490     1.0000 0.38769  0.50443  0.45072  Biso   1.000  N
  N491     1.0000 0.11231  0.49557  0.95072  Biso   1.000  N
  N492     1.0000 0.88769  0.99557  0.54928  Biso   1.000  N
  N493     1.0000 0.36231  0.29928  0.24557  Biso   1.000  N
  N494     1.0000 0.13769  0.70072  0.74557  Biso   1.000  N
  N495     1.0000 0.86231  0.20072  0.75443  Biso   1.000  N
  N496     1.0000 0.63769  0.79928  0.25443  Biso   1.000  N
  N497     1.0000 0.79928  0.25443  0.63769  Biso   1.000  N
  N498     1.0000 0.20072  0.75443  0.86231  Biso   1.000  N
  N499     1.0000 0.70072  0.74557  0.13769  Biso   1.000  N
  N500     1.0000 0.29928  0.24557  0.36231  Biso   1.000  N
  N501     1.0000 0.75443  0.86231  0.20072  Biso   1.000  N
  N502     1.0000 0.25443  0.63769  0.79928  Biso   1.000  N
  N503     1.0000 0.24557  0.36231  0.29928  Biso   1.000  N
  N504     1.0000 0.74557  0.13769  0.70072  Biso   1.000  N
  N505     1.0000 0.54928  0.11231  0.50443  Biso   1.000  N
  N506     1.0000 0.95072  0.88769  0.00443  Biso   1.000  N
  N507     1.0000 0.45072  0.61231  0.99557  Biso   1.000  N
  N508     1.0000 0.04928  0.38769  0.49557  Biso   1.000  N
  N509     1.0000 0.50443  0.54928  0.11231  Biso   1.000  N
  N510     1.0000 0.00443  0.95072  0.88769  Biso   1.000  N
  N511     1.0000 0.99557  0.45072  0.61231  Biso   1.000  N
  N512     1.0000 0.49557  0.04928  0.38769  Biso   1.000  N
  N513     1.0000 0.11231  0.50443  0.54928  Biso   1.000  N
  N514     1.0000 0.88769  0.00443  0.95072  Biso   1.000  N
  N515     1.0000 0.61231  0.99557  0.45072  Biso   1.000  N
  N516     1.0000 0.38769  0.49557  0.04928  Biso   1.000  N
  N517     1.0000 0.86231  0.79928  0.74557  Biso   1.000  N
  N518     1.0000 0.63769  0.20072  0.24557  Biso   1.000  N
  N519     1.0000 0.36231  0.70072  0.25443  Biso   1.000  N
  N520     1.0000 0.13769  0.29928  0.75443  Biso   1.000  N
  N521     1.0000 0.29928  0.75443  0.13769  Biso   1.000  N
  N522     1.0000 0.70072  0.25443  0.36231  Biso   1.000  N
  N523     1.0000 0.20072  0.24557  0.63769  Biso   1.000  N
  N524     1.0000 0.79928  0.74557  0.86231  Biso   1.000  N
  N525     1.0000 0.25443  0.36231  0.70072  Biso   1.000  N
  N526     1.0000 0.75443  0.13769  0.29928  Biso   1.000  N
  N527     1.0000 0.74557  0.86231  0.79928  Biso   1.000  N
  N528     1.0000 0.24557  0.63769  0.20072  Biso   1.000  N
  N529     1.0000 0.95072  0.38769  0.99557  Biso   1.000  N
  N530     1.0000 0.54928  0.61231  0.49557  Biso   1.000  N
  N531     1.0000 0.04928  0.88769  0.50443  Biso   1.000  N
  N532     1.0000 0.45072  0.11231  0.00443  Biso   1.000  N
  N533     1.0000 0.99557  0.95072  0.38769  Biso   1.000  N
  N534     1.0000 0.49557  0.54928  0.61231  Biso   1.000  N
  N535     1.0000 0.50443  0.04928  0.88769  Biso   1.000  N
  N536     1.0000 0.00443  0.45072  0.11231  Biso   1.000  N
  N537     1.0000 0.38769  0.99557  0.95072  Biso   1.000  N
  N538     1.0000 0.61231  0.49557  0.54928  Biso   1.000  N
  N539     1.0000 0.88769  0.50443  0.04928  Biso   1.000  N
  N540     1.0000 0.11231  0.00443  0.45072  Biso   1.000  N
  N541     1.0000 0.13769  0.20072  0.25443  Biso   1.000  N
  N542     1.0000 0.36231  0.79928  0.75443  Biso   1.000  N
  N543     1.0000 0.63769  0.29928  0.74557  Biso   1.000  N
  N544     1.0000 0.86231  0.70072  0.24557  Biso   1.000  N
  N545     1.0000 0.70072  0.24557  0.86231  Biso   1.000  N
  N546     1.0000 0.29928  0.74557  0.63769  Biso   1.000  N
  N547     1.0000 0.79928  0.75443  0.36231  Biso   1.000  N
  N548     1.0000 0.20072  0.25443  0.13769  Biso   1.000  N
  N549     1.0000 0.74557  0.63769  0.29928  Biso   1.000  N
  N550     1.0000 0.24557  0.86231  0.70072  Biso   1.000  N
  N551     1.0000 0.25443  0.13769  0.20072  Biso   1.000  N
  N552     1.0000 0.75443  0.36231  0.79928  Biso   1.000  N
  N553     1.0000 0.45072  0.88769  0.49557  Biso   1.000  N
  N554     1.0000 0.04928  0.11231  0.99557  Biso   1.000  N
  N555     1.0000 0.54928  0.38769  0.00443  Biso   1.000  N
  N556     1.0000 0.95072  0.61231  0.50443  Biso   1.000  N
  N557     1.0000 0.49557  0.45072  0.88769  Biso   1.000  N
  N558     1.0000 0.99557  0.04928  0.11231  Biso   1.000  N
  N559     1.0000 0.00443  0.54928  0.38769  Biso   1.000  N
  N560     1.0000 0.50443  0.95072  0.61231  Biso   1.000  N
  N561     1.0000 0.88769  0.49557  0.45072  Biso   1.000  N
  N562     1.0000 0.11231  0.99557  0.04928  Biso   1.000  N
  N563     1.0000 0.38769  0.00443  0.54928  Biso   1.000  N
  N564     1.0000 0.61231  0.50443  0.95072  Biso   1.000  N
  N565     1.0000 0.63769  0.70072  0.75443  Biso   1.000  N
  N566     1.0000 0.86231  0.29928  0.25443  Biso   1.000  N
  N567     1.0000 0.13769  0.79928  0.24557  Biso   1.000  N
  N568     1.0000 0.36231  0.20072  0.74557  Biso   1.000  N
  N569     1.0000 0.20072  0.74557  0.36231  Biso   1.000  N
  N570     1.0000 0.79928  0.24557  0.13769  Biso   1.000  N
  N571     1.0000 0.29928  0.25443  0.86231  Biso   1.000  N
  N572     1.0000 0.70072  0.75443  0.63769  Biso   1.000  N
  N573     1.0000 0.24557  0.13769  0.79928  Biso   1.000  N
  N574     1.0000 0.74557  0.36231  0.20072  Biso   1.000  N
  N575     1.0000 0.75443  0.63769  0.70072  Biso   1.000  N
  N576     1.0000 0.25443  0.86231  0.29928  Biso   1.000  N
  C673     1.0000 0.09410  0.64310  0.05650  Biso   1.000  C
  C674     1.0000 0.40590  0.35690  0.55650  Biso   1.000  C
  C675     1.0000 0.90590  0.14310  0.44350  Biso   1.000  C
  C676     1.0000 0.59410  0.85690  0.94350  Biso   1.000  C
  C677     1.0000 0.05650  0.09410  0.64310  Biso   1.000  C
  C678     1.0000 0.55650  0.40590  0.35690  Biso   1.000  C
  C679     1.0000 0.44350  0.90590  0.14310  Biso   1.000  C
  C680     1.0000 0.94350  0.59410  0.85690  Biso   1.000  C
  C681     1.0000 0.64310  0.05650  0.09410  Biso   1.000  C
  C682     1.0000 0.35690  0.55650  0.40590  Biso   1.000  C
  C683     1.0000 0.14310  0.44350  0.90590  Biso   1.000  C
  C684     1.0000 0.85690  0.94350  0.59410  Biso   1.000  C
  C685     1.0000 0.39310  0.34410  0.19350  Biso   1.000  C
  C686     1.0000 0.10690  0.65590  0.69350  Biso   1.000  C
  C687     1.0000 0.89310  0.15590  0.80650  Biso   1.000  C
  C688     1.0000 0.60690  0.84410  0.30650  Biso   1.000  C
  C689     1.0000 0.84410  0.30650  0.60690  Biso   1.000  C
  C690     1.0000 0.15590  0.80650  0.89310  Biso   1.000  C
  C691     1.0000 0.65590  0.69350  0.10690  Biso   1.000  C
  C692     1.0000 0.34410  0.19350  0.39310  Biso   1.000  C
  C693     1.0000 0.80650  0.89310  0.15590  Biso   1.000  C
  C694     1.0000 0.30650  0.60690  0.84410  Biso   1.000  C
  C695     1.0000 0.19350  0.39310  0.34410  Biso   1.000  C
  C696     1.0000 0.69350  0.10690  0.65590  Biso   1.000  C
  C697     1.0000 0.59410  0.14310  0.55650  Biso   1.000  C
  C698     1.0000 0.90590  0.85690  0.05650  Biso   1.000  C
  C699     1.0000 0.40590  0.64310  0.94350  Biso   1.000  C
  C700     1.0000 0.09410  0.35690  0.44350  Biso   1.000  C
  C701     1.0000 0.55650  0.59410  0.14310  Biso   1.000  C
  C702     1.0000 0.05650  0.90590  0.85690  Biso   1.000  C
  C703     1.0000 0.94350  0.40590  0.64310  Biso   1.000  C
  C704     1.0000 0.44350  0.09410  0.35690  Biso   1.000  C
  C705     1.0000 0.14310  0.55650  0.59410  Biso   1.000  C
  C706     1.0000 0.85690  0.05650  0.90590  Biso   1.000  C
  C707     1.0000 0.64310  0.94350  0.40590  Biso   1.000  C
  C708     1.0000 0.35690  0.44350  0.09410  Biso   1.000  C
  C709     1.0000 0.89310  0.84410  0.69350  Biso   1.000  C
  C710     1.0000 0.60690  0.15590  0.19350  Biso   1.000  C
  C711     1.0000 0.39310  0.65590  0.30650  Biso   1.000  C
  C712     1.0000 0.10690  0.34410  0.80650  Biso   1.000  C
  C713     1.0000 0.34410  0.80650  0.10690  Biso   1.000  C
  C714     1.0000 0.65590  0.30650  0.39310  Biso   1.000  C
  C715     1.0000 0.15590  0.19350  0.60690  Biso   1.000  C
  C716     1.0000 0.84410  0.69350  0.89310  Biso   1.000  C
  C717     1.0000 0.30650  0.39310  0.65590  Biso   1.000  C
  C718     1.0000 0.80650  0.10690  0.34410  Biso   1.000  C
  C719     1.0000 0.69350  0.89310  0.84410  Biso   1.000  C
  C720     1.0000 0.19350  0.60690  0.15590  Biso   1.000  C
  C721     1.0000 0.90590  0.35690  0.94350  Biso   1.000  C
  C722     1.0000 0.59410  0.64310  0.44350  Biso   1.000  C
  C723     1.0000 0.09410  0.85690  0.55650  Biso   1.000  C
  C724     1.0000 0.40590  0.14310  0.05650  Biso   1.000  C
  C725     1.0000 0.94350  0.90590  0.35690  Biso   1.000  C
  C726     1.0000 0.44350  0.59410  0.64310  Biso   1.000  C
  C727     1.0000 0.55650  0.09410  0.85690  Biso   1.000  C
  C728     1.0000 0.05650  0.40590  0.14310  Biso   1.000  C
  C729     1.0000 0.35690  0.94350  0.90590  Biso   1.000  C
  C730     1.0000 0.64310  0.44350  0.59410  Biso   1.000  C
  C731     1.0000 0.85690  0.55650  0.09410  Biso   1.000  C
  C732     1.0000 0.14310  0.05650  0.40590  Biso   1.000  C
  C733     1.0000 0.10690  0.15590  0.30650  Biso   1.000  C
  C734     1.0000 0.39310  0.84410  0.80650  Biso   1.000  C
  C735     1.0000 0.60690  0.34410  0.69350  Biso   1.000  C
  C736     1.0000 0.89310  0.65590  0.19350  Biso   1.000  C
  C737     1.0000 0.65590  0.19350  0.89310  Biso   1.000  C
  C738     1.0000 0.34410  0.69350  0.60690  Biso   1.000  C
  C739     1.0000 0.84410  0.80650  0.39310  Biso   1.000  C
  C740     1.0000 0.15590  0.30650  0.10690  Biso   1.000  C
  C741     1.0000 0.69350  0.60690  0.34410  Biso   1.000  C
  C742     1.0000 0.19350  0.89310  0.65590  Biso   1.000  C
  C743     1.0000 0.30650  0.10690  0.15590  Biso   1.000  C
  C744     1.0000 0.80650  0.39310  0.84410  Biso   1.000  C
  C745     1.0000 0.40590  0.85690  0.44350  Biso   1.000  C
  C746     1.0000 0.09410  0.14310  0.94350  Biso   1.000  C
  C747     1.0000 0.59410  0.35690  0.05650  Biso   1.000  C
  C748     1.0000 0.90590  0.64310  0.55650  Biso   1.000  C
  C749     1.0000 0.44350  0.40590  0.85690  Biso   1.000  C
  C750     1.0000 0.94350  0.09410  0.14310  Biso   1.000  C
  C751     1.0000 0.05650  0.59410  0.35690  Biso   1.000  C
  C752     1.0000 0.55650  0.90590  0.64310  Biso   1.000  C
  C753     1.0000 0.85690  0.44350  0.40590  Biso   1.000  C
  C754     1.0000 0.14310  0.94350  0.09410  Biso   1.000  C
  C755     1.0000 0.35690  0.05650  0.59410  Biso   1.000  C
  C756     1.0000 0.64310  0.55650  0.90590  Biso   1.000  C
  C757     1.0000 0.60690  0.65590  0.80650  Biso   1.000  C
  C758     1.0000 0.89310  0.34410  0.30650  Biso   1.000  C
  C759     1.0000 0.10690  0.84410  0.19350  Biso   1.000  C
  C760     1.0000 0.39310  0.15590  0.69350  Biso   1.000  C
  C761     1.0000 0.15590  0.69350  0.39310  Biso   1.000  C
  C762     1.0000 0.84410  0.19350  0.10690  Biso   1.000  C
  C763     1.0000 0.34410  0.30650  0.89310  Biso   1.000  C
  C764     1.0000 0.65590  0.80650  0.60690  Biso   1.000  C
  C765     1.0000 0.19350  0.10690  0.84410  Biso   1.000  C
  C766     1.0000 0.69350  0.39310  0.15590  Biso   1.000  C
  C767     1.0000 0.80650  0.60690  0.65590  Biso   1.000  C
  C768     1.0000 0.30650  0.89310  0.34410  Biso   1.000  C
  H481     1.0000 0.12100  0.63960  0.05690  Biso   1.000  H
  H482     1.0000 0.37900  0.36040  0.55690  Biso   1.000  H
  H483     1.0000 0.87900  0.13960  0.44310  Biso   1.000  H
  H484     1.0000 0.62100  0.86040  0.94310  Biso   1.000  H
  H485     1.0000 0.05690  0.12100  0.63960  Biso   1.000  H
  H486     1.0000 0.55690  0.37900  0.36040  Biso   1.000  H
  H487     1.0000 0.44310  0.87900  0.13960  Biso   1.000  H
  H488     1.0000 0.94310  0.62100  0.86040  Biso   1.000  H
  H489     1.0000 0.63960  0.05690  0.12100  Biso   1.000  H
  H490     1.0000 0.36040  0.55690  0.37900  Biso   1.000  H
  H491     1.0000 0.13960  0.44310  0.87900  Biso   1.000  H
  H492     1.0000 0.86040  0.94310  0.62100  Biso   1.000  H
  H493     1.0000 0.38960  0.37100  0.19310  Biso   1.000  H
  H494     1.0000 0.11040  0.62900  0.69310  Biso   1.000  H
  H495     1.0000 0.88960  0.12900  0.80690  Biso   1.000  H
  H496     1.0000 0.61040  0.87100  0.30690  Biso   1.000  H
  H497     1.0000 0.87100  0.30690  0.61040  Biso   1.000  H
  H498     1.0000 0.12900  0.80690  0.88960  Biso   1.000  H
  H499     1.0000 0.62900  0.69310  0.11040  Biso   1.000  H
  H500     1.0000 0.37100  0.19310  0.38960  Biso   1.000  H
  H501     1.0000 0.80690  0.88960  0.12900  Biso   1.000  H
  H502     1.0000 0.30690  0.61040  0.87100  Biso   1.000  H
  H503     1.0000 0.19310  0.38960  0.37100  Biso   1.000  H
  H504     1.0000 0.69310  0.11040  0.62900  Biso   1.000  H
  H505     1.0000 0.62100  0.13960  0.55690  Biso   1.000  H
  H506     1.0000 0.87900  0.86040  0.05690  Biso   1.000  H
  H507     1.0000 0.37900  0.63960  0.94310  Biso   1.000  H
  H508     1.0000 0.12100  0.36040  0.44310  Biso   1.000  H
  H509     1.0000 0.55690  0.62100  0.13960  Biso   1.000  H
  H510     1.0000 0.05690  0.87900  0.86040  Biso   1.000  H
  H511     1.0000 0.94310  0.37900  0.63960  Biso   1.000  H
  H512     1.0000 0.44310  0.12100  0.36040  Biso   1.000  H
  H513     1.0000 0.13960  0.55690  0.62100  Biso   1.000  H
  H514     1.0000 0.86040  0.05690  0.87900  Biso   1.000  H
  H515     1.0000 0.63960  0.94310  0.37900  Biso   1.000  H
  H516     1.0000 0.36040  0.44310  0.12100  Biso   1.000  H
  H517     1.0000 0.88960  0.87100  0.69310  Biso   1.000  H
  H518     1.0000 0.61040  0.12900  0.19310  Biso   1.000  H
  H519     1.0000 0.38960  0.62900  0.30690  Biso   1.000  H
  H520     1.0000 0.11040  0.37100  0.80690  Biso   1.000  H
  H521     1.0000 0.37100  0.80690  0.11040  Biso   1.000  H
  H522     1.0000 0.62900  0.30690  0.38960  Biso   1.000  H
  H523     1.0000 0.12900  0.19310  0.61040  Biso   1.000  H
  H524     1.0000 0.87100  0.69310  0.88960  Biso   1.000  H
  H525     1.0000 0.30690  0.38960  0.62900  Biso   1.000  H
  H526     1.0000 0.80690  0.11040  0.37100  Biso   1.000  H
  H527     1.0000 0.69310  0.88960  0.87100  Biso   1.000  H
  H528     1.0000 0.19310  0.61040  0.12900  Biso   1.000  H
  H529     1.0000 0.87900  0.36040  0.94310  Biso   1.000  H
  H530     1.0000 0.62100  0.63960  0.44310  Biso   1.000  H
  H531     1.0000 0.12100  0.86040  0.55690  Biso   1.000  H
  H532     1.0000 0.37900  0.13960  0.05690  Biso   1.000  H
  H533     1.0000 0.94310  0.87900  0.36040  Biso   1.000  H
  H534     1.0000 0.44310  0.62100  0.63960  Biso   1.000  H
  H535     1.0000 0.55690  0.12100  0.86040  Biso   1.000  H
  H536     1.0000 0.05690  0.37900  0.13960  Biso   1.000  H
  H537     1.0000 0.36040  0.94310  0.87900  Biso   1.000  H
  H538     1.0000 0.63960  0.44310  0.62100  Biso   1.000  H
  H539     1.0000 0.86040  0.55690  0.12100  Biso   1.000  H
  H540     1.0000 0.13960  0.05690  0.37900  Biso   1.000  H
  H541     1.0000 0.11040  0.12900  0.30690  Biso   1.000  H
  H542     1.0000 0.38960  0.87100  0.80690  Biso   1.000  H
  H543     1.0000 0.61040  0.37100  0.69310  Biso   1.000  H
  H544     1.0000 0.88960  0.62900  0.19310  Biso   1.000  H
  H545     1.0000 0.62900  0.19310  0.88960  Biso   1.000  H
  H546     1.0000 0.37100  0.69310  0.61040  Biso   1.000  H
  H547     1.0000 0.87100  0.80690  0.38960  Biso   1.000  H
  H548     1.0000 0.12900  0.30690  0.11040  Biso   1.000  H
  H549     1.0000 0.69310  0.61040  0.37100  Biso   1.000  H
  H550     1.0000 0.19310  0.88960  0.62900  Biso   1.000  H
  H551     1.0000 0.30690  0.11040  0.12900  Biso   1.000  H
  H552     1.0000 0.80690  0.38960  0.87100  Biso   1.000  H
  H553     1.0000 0.37900  0.86040  0.44310  Biso   1.000  H
  H554     1.0000 0.12100  0.13960  0.94310  Biso   1.000  H
  H555     1.0000 0.62100  0.36040  0.05690  Biso   1.000  H
  H556     1.0000 0.87900  0.63960  0.55690  Biso   1.000  H
  H557     1.0000 0.44310  0.37900  0.86040  Biso   1.000  H
  H558     1.0000 0.94310  0.12100  0.13960  Biso   1.000  H
  H559     1.0000 0.05690  0.62100  0.36040  Biso   1.000  H
  H560     1.0000 0.55690  0.87900  0.63960  Biso   1.000  H
  H561     1.0000 0.86040  0.44310  0.37900  Biso   1.000  H
  H562     1.0000 0.13960  0.94310  0.12100  Biso   1.000  H
  H563     1.0000 0.36040  0.05690  0.62100  Biso   1.000  H
  H564     1.0000 0.63960  0.55690  0.87900  Biso   1.000  H
  H565     1.0000 0.61040  0.62900  0.80690  Biso   1.000  H
  H566     1.0000 0.88960  0.37100  0.30690  Biso   1.000  H
  H567     1.0000 0.11040  0.87100  0.19310  Biso   1.000  H
  H568     1.0000 0.38960  0.12900  0.69310  Biso   1.000  H
  H569     1.0000 0.12900  0.69310  0.38960  Biso   1.000  H
  H570     1.0000 0.87100  0.19310  0.11040  Biso   1.000  H
  H571     1.0000 0.37100  0.30690  0.88960  Biso   1.000  H
  H572     1.0000 0.62900  0.80690  0.61040  Biso   1.000  H
  H573     1.0000 0.19310  0.11040  0.87100  Biso   1.000  H
  H574     1.0000 0.69310  0.38960  0.12900  Biso   1.000  H
  H575     1.0000 0.80690  0.61040  0.62900  Biso   1.000  H
  H576     1.0000 0.30690  0.88960  0.37100  Biso   1.000  H
  C769     1.0000 0.05083  0.42246  0.14834  Biso   1.000  C
  C770     1.0000 0.44917  0.57754  0.64834  Biso   1.000  C
  C771     1.0000 0.94917  0.92246  0.35166  Biso   1.000  C
  C772     1.0000 0.55083  0.07754  0.85166  Biso   1.000  C
  C773     1.0000 0.14834  0.05083  0.42246  Biso   1.000  C
  C774     1.0000 0.64834  0.44917  0.57754  Biso   1.000  C
  C775     1.0000 0.35166  0.94917  0.92246  Biso   1.000  C
  C776     1.0000 0.85166  0.55083  0.07754  Biso   1.000  C
  C777     1.0000 0.42246  0.14834  0.05083  Biso   1.000  C
  C778     1.0000 0.57754  0.64834  0.44917  Biso   1.000  C
  C779     1.0000 0.92246  0.35166  0.94917  Biso   1.000  C
  C780     1.0000 0.07754  0.85166  0.55083  Biso   1.000  C
  C781     1.0000 0.17246  0.30083  0.10166  Biso   1.000  C
  C782     1.0000 0.32754  0.69917  0.60166  Biso   1.000  C
  C783     1.0000 0.67246  0.19917  0.89834  Biso   1.000  C
  C784     1.0000 0.82754  0.80083  0.39834  Biso   1.000  C
  C785     1.0000 0.80083  0.39834  0.82754  Biso   1.000  C
  C786     1.0000 0.19917  0.89834  0.67246  Biso   1.000  C
  C787     1.0000 0.69917  0.60166  0.32754  Biso   1.000  C
  C788     1.0000 0.30083  0.10166  0.17246  Biso   1.000  C
  C789     1.0000 0.89834  0.67246  0.19917  Biso   1.000  C
  C790     1.0000 0.39834  0.82754  0.80083  Biso   1.000  C
  C791     1.0000 0.10166  0.17246  0.30083  Biso   1.000  C
  C792     1.0000 0.60166  0.32754  0.69917  Biso   1.000  C
  C793     1.0000 0.55083  0.92246  0.64834  Biso   1.000  C
  C794     1.0000 0.94917  0.07754  0.14834  Biso   1.000  C
  C795     1.0000 0.44917  0.42246  0.85166  Biso   1.000  C
  C796     1.0000 0.05083  0.57754  0.35166  Biso   1.000  C
  C797     1.0000 0.64834  0.55083  0.92246  Biso   1.000  C
  C798     1.0000 0.14834  0.94917  0.07754  Biso   1.000  C
  C799     1.0000 0.85166  0.44917  0.42246  Biso   1.000  C
  C800     1.0000 0.35166  0.05083  0.57754  Biso   1.000  C
  C801     1.0000 0.92246  0.64834  0.55083  Biso   1.000  C
  C802     1.0000 0.07754  0.14834  0.94917  Biso   1.000  C
  C803     1.0000 0.42246  0.85166  0.44917  Biso   1.000  C
  C804     1.0000 0.57754  0.35166  0.05083  Biso   1.000  C
  C805     1.0000 0.67246  0.80083  0.60166  Biso   1.000  C
  C806     1.0000 0.82754  0.19917  0.10166  Biso   1.000  C
  C807     1.0000 0.17246  0.69917  0.39834  Biso   1.000  C
  C808     1.0000 0.32754  0.30083  0.89834  Biso   1.000  C
  C809     1.0000 0.30083  0.89834  0.32754  Biso   1.000  C
  C810     1.0000 0.69917  0.39834  0.17246  Biso   1.000  C
  C811     1.0000 0.19917  0.10166  0.82754  Biso   1.000  C
  C812     1.0000 0.80083  0.60166  0.67246  Biso   1.000  C
  C813     1.0000 0.39834  0.17246  0.69917  Biso   1.000  C
  C814     1.0000 0.89834  0.32754  0.30083  Biso   1.000  C
  C815     1.0000 0.60166  0.67246  0.80083  Biso   1.000  C
  C816     1.0000 0.10166  0.82754  0.19917  Biso   1.000  C
  C817     1.0000 0.94917  0.57754  0.85166  Biso   1.000  C
  C818     1.0000 0.55083  0.42246  0.35166  Biso   1.000  C
  C819     1.0000 0.05083  0.07754  0.64834  Biso   1.000  C
  C820     1.0000 0.44917  0.92246  0.14834  Biso   1.000  C
  C821     1.0000 0.85166  0.94917  0.57754  Biso   1.000  C
  C822     1.0000 0.35166  0.55083  0.42246  Biso   1.000  C
  C823     1.0000 0.64834  0.05083  0.07754  Biso   1.000  C
  C824     1.0000 0.14834  0.44917  0.92246  Biso   1.000  C
  C825     1.0000 0.57754  0.85166  0.94917  Biso   1.000  C
  C826     1.0000 0.42246  0.35166  0.55083  Biso   1.000  C
  C827     1.0000 0.07754  0.64834  0.05083  Biso   1.000  C
  C828     1.0000 0.92246  0.14834  0.44917  Biso   1.000  C
  C829     1.0000 0.32754  0.19917  0.39834  Biso   1.000  C
  C830     1.0000 0.17246  0.80083  0.89834  Biso   1.000  C
  C831     1.0000 0.82754  0.30083  0.60166  Biso   1.000  C
  C832     1.0000 0.67246  0.69917  0.10166  Biso   1.000  C
  C833     1.0000 0.69917  0.10166  0.67246  Biso   1.000  C
  C834     1.0000 0.30083  0.60166  0.82754  Biso   1.000  C
  C835     1.0000 0.80083  0.89834  0.17246  Biso   1.000  C
  C836     1.0000 0.19917  0.39834  0.32754  Biso   1.000  C
  C837     1.0000 0.60166  0.82754  0.30083  Biso   1.000  C
  C838     1.0000 0.10166  0.67246  0.69917  Biso   1.000  C
  C839     1.0000 0.39834  0.32754  0.19917  Biso   1.000  C
  C840     1.0000 0.89834  0.17246  0.80083  Biso   1.000  C
  C841     1.0000 0.44917  0.07754  0.35166  Biso   1.000  C
  C842     1.0000 0.05083  0.92246  0.85166  Biso   1.000  C
  C843     1.0000 0.55083  0.57754  0.14834  Biso   1.000  C
  C844     1.0000 0.94917  0.42246  0.64834  Biso   1.000  C
  C845     1.0000 0.35166  0.44917  0.07754  Biso   1.000  C
  C846     1.0000 0.85166  0.05083  0.92246  Biso   1.000  C
  C847     1.0000 0.14834  0.55083  0.57754  Biso   1.000  C
  C848     1.0000 0.64834  0.94917  0.42246  Biso   1.000  C
  C849     1.0000 0.07754  0.35166  0.44917  Biso   1.000  C
  C850     1.0000 0.92246  0.85166  0.05083  Biso   1.000  C
  C851     1.0000 0.57754  0.14834  0.55083  Biso   1.000  C
  C852     1.0000 0.42246  0.64834  0.94917  Biso   1.000  C
  C853     1.0000 0.82754  0.69917  0.89834  Biso   1.000  C
  C854     1.0000 0.67246  0.30083  0.39834  Biso   1.000  C
  C855     1.0000 0.32754  0.80083  0.10166  Biso   1.000  C
  C856     1.0000 0.17246  0.19917  0.60166  Biso   1.000  C
  C857     1.0000 0.19917  0.60166  0.17246  Biso   1.000  C
  C858     1.0000 0.80083  0.10166  0.32754  Biso   1.000  C
  C859     1.0000 0.30083  0.39834  0.67246  Biso   1.000  C
  C860     1.0000 0.69917  0.89834  0.82754  Biso   1.000  C
  C861     1.0000 0.10166  0.32754  0.80083  Biso   1.000  C
  C862     1.0000 0.60166  0.17246  0.19917  Biso   1.000  C
  C863     1.0000 0.89834  0.82754  0.69917  Biso   1.000  C
  C864     1.0000 0.39834  0.67246  0.30083  Biso   1.000  C
  H577     1.0000 0.03650  0.39960  0.14520  Biso   1.000  H
  H578     1.0000 0.46350  0.60040  0.64520  Biso   1.000  H
  H579     1.0000 0.96350  0.89960  0.35480  Biso   1.000  H
  H580     1.0000 0.53650  0.10040  0.85480  Biso   1.000  H
  H581     1.0000 0.14520  0.03650  0.39960  Biso   1.000  H
  H582     1.0000 0.64520  0.46350  0.60040  Biso   1.000  H
  H583     1.0000 0.35480  0.96350  0.89960  Biso   1.000  H
  H584     1.0000 0.85480  0.53650  0.10040  Biso   1.000  H
  H585     1.0000 0.39960  0.14520  0.03650  Biso   1.000  H
  H586     1.0000 0.60040  0.64520  0.46350  Biso   1.000  H
  H587     1.0000 0.89960  0.35480  0.96350  Biso   1.000  H
  H588     1.0000 0.10040  0.85480  0.53650  Biso   1.000  H
  H589     1.0000 0.14960  0.28650  0.10480  Biso   1.000  H
  H590     1.0000 0.35040  0.71350  0.60480  Biso   1.000  H
  H591     1.0000 0.64960  0.21350  0.89520  Biso   1.000  H
  H592     1.0000 0.85040  0.78650  0.39520  Biso   1.000  H
  H593     1.0000 0.78650  0.39520  0.85040  Biso   1.000  H
  H594     1.0000 0.21350  0.89520  0.64960  Biso   1.000  H
  H595     1.0000 0.71350  0.60480  0.35040  Biso   1.000  H
  H596     1.0000 0.28650  0.10480  0.14960  Biso   1.000  H
  H597     1.0000 0.89520  0.64960  0.21350  Biso   1.000  H
  H598     1.0000 0.39520  0.85040  0.78650  Biso   1.000  H
  H599     1.0000 0.10480  0.14960  0.28650  Biso   1.000  H
  H600     1.0000 0.60480  0.35040  0.71350  Biso   1.000  H
  H601     1.0000 0.53650  0.89960  0.64520  Biso   1.000  H
  H602     1.0000 0.96350  0.10040  0.14520  Biso   1.000  H
  H603     1.0000 0.46350  0.39960  0.85480  Biso   1.000  H
  H604     1.0000 0.03650  0.60040  0.35480  Biso   1.000  H
  H605     1.0000 0.64520  0.53650  0.89960  Biso   1.000  H
  H606     1.0000 0.14520  0.96350  0.10040  Biso   1.000  H
  H607     1.0000 0.85480  0.46350  0.39960  Biso   1.000  H
  H608     1.0000 0.35480  0.03650  0.60040  Biso   1.000  H
  H609     1.0000 0.89960  0.64520  0.53650  Biso   1.000  H
  H610     1.0000 0.10040  0.14520  0.96350  Biso   1.000  H
  H611     1.0000 0.39960  0.85480  0.46350  Biso   1.000  H
  H612     1.0000 0.60040  0.35480  0.03650  Biso   1.000  H
  H613     1.0000 0.64960  0.78650  0.60480  Biso   1.000  H
  H614     1.0000 0.85040  0.21350  0.10480  Biso   1.000  H
  H615     1.0000 0.14960  0.71350  0.39520  Biso   1.000  H
  H616     1.0000 0.35040  0.28650  0.89520  Biso   1.000  H
  H617     1.0000 0.28650  0.89520  0.35040  Biso   1.000  H
  H618     1.0000 0.71350  0.39520  0.14960  Biso   1.000  H
  H619     1.0000 0.21350  0.10480  0.85040  Biso   1.000  H
  H620     1.0000 0.78650  0.60480  0.64960  Biso   1.000  H
  H621     1.0000 0.39520  0.14960  0.71350  Biso   1.000  H
  H622     1.0000 0.89520  0.35040  0.28650  Biso   1.000  H
  H623     1.0000 0.60480  0.64960  0.78650  Biso   1.000  H
  H624     1.0000 0.10480  0.85040  0.21350  Biso   1.000  H
  H625     1.0000 0.96350  0.60040  0.85480  Biso   1.000  H
  H626     1.0000 0.53650  0.39960  0.35480  Biso   1.000  H
  H627     1.0000 0.03650  0.10040  0.64520  Biso   1.000  H
  H628     1.0000 0.46350  0.89960  0.14520  Biso   1.000  H
  H629     1.0000 0.85480  0.96350  0.60040  Biso   1.000  H
  H630     1.0000 0.35480  0.53650  0.39960  Biso   1.000  H
  H631     1.0000 0.64520  0.03650  0.10040  Biso   1.000  H
  H632     1.0000 0.14520  0.46350  0.89960  Biso   1.000  H
  H633     1.0000 0.60040  0.85480  0.96350  Biso   1.000  H
  H634     1.0000 0.39960  0.35480  0.53650  Biso   1.000  H
  H635     1.0000 0.10040  0.64520  0.03650  Biso   1.000  H
  H636     1.0000 0.89960  0.14520  0.46350  Biso   1.000  H
  H637     1.0000 0.35040  0.21350  0.39520  Biso   1.000  H
  H638     1.0000 0.14960  0.78650  0.89520  Biso   1.000  H
  H639     1.0000 0.85040  0.28650  0.60480  Biso   1.000  H
  H640     1.0000 0.64960  0.71350  0.10480  Biso   1.000  H
  H641     1.0000 0.71350  0.10480  0.64960  Biso   1.000  H
  H642     1.0000 0.28650  0.60480  0.85040  Biso   1.000  H
  H643     1.0000 0.78650  0.89520  0.14960  Biso   1.000  H
  H644     1.0000 0.21350  0.39520  0.35040  Biso   1.000  H
  H645     1.0000 0.60480  0.85040  0.28650  Biso   1.000  H
  H646     1.0000 0.10480  0.64960  0.71350  Biso   1.000  H
  H647     1.0000 0.39520  0.35040  0.21350  Biso   1.000  H
  H648     1.0000 0.89520  0.14960  0.78650  Biso   1.000  H
  H649     1.0000 0.46350  0.10040  0.35480  Biso   1.000  H
  H650     1.0000 0.03650  0.89960  0.85480  Biso   1.000  H
  H651     1.0000 0.53650  0.60040  0.14520  Biso   1.000  H
  H652     1.0000 0.96350  0.39960  0.64520  Biso   1.000  H
  H653     1.0000 0.35480  0.46350  0.10040  Biso   1.000  H
  H654     1.0000 0.85480  0.03650  0.89960  Biso   1.000  H
  H655     1.0000 0.14520  0.53650  0.60040  Biso   1.000  H
  H656     1.0000 0.64520  0.96350  0.39960  Biso   1.000  H
  H657     1.0000 0.10040  0.35480  0.46350  Biso   1.000  H
  H658     1.0000 0.89960  0.85480  0.03650  Biso   1.000  H
  H659     1.0000 0.60040  0.14520  0.53650  Biso   1.000  H
  H660     1.0000 0.39960  0.64520  0.96350  Biso   1.000  H
  H661     1.0000 0.85040  0.71350  0.89520  Biso   1.000  H
  H662     1.0000 0.64960  0.28650  0.39520  Biso   1.000  H
  H663     1.0000 0.35040  0.78650  0.10480  Biso   1.000  H
  H664     1.0000 0.14960  0.21350  0.60480  Biso   1.000  H
  H665     1.0000 0.21350  0.60480  0.14960  Biso   1.000  H
  H666     1.0000 0.78650  0.10480  0.35040  Biso   1.000  H
  H667     1.0000 0.28650  0.39520  0.64960  Biso   1.000  H
  H668     1.0000 0.71350  0.89520  0.85040  Biso   1.000  H
  H669     1.0000 0.10480  0.35040  0.78650  Biso   1.000  H
  H670     1.0000 0.60480  0.14960  0.21350  Biso   1.000  H
  H671     1.0000 0.89520  0.85040  0.71350  Biso   1.000  H
  H672     1.0000 0.39520  0.64960  0.28650  Biso   1.000  H
  C865     1.0000 0.00440  0.48265  0.11140  Biso   1.000  C
  C866     1.0000 0.49560  0.51735  0.61140  Biso   1.000  C
  C867     1.0000 0.99560  0.98265  0.38860  Biso   1.000  C
  C868     1.0000 0.50440  0.01735  0.88860  Biso   1.000  C
  C869     1.0000 0.11140  0.00440  0.48265  Biso   1.000  C
  C870     1.0000 0.61140  0.49560  0.51735  Biso   1.000  C
  C871     1.0000 0.38860  0.99560  0.98265  Biso   1.000  C
  C872     1.0000 0.88860  0.50440  0.01735  Biso   1.000  C
  C873     1.0000 0.48265  0.11140  0.00440  Biso   1.000  C
  C874     1.0000 0.51735  0.61140  0.49560  Biso   1.000  C
  C875     1.0000 0.98265  0.38860  0.99560  Biso   1.000  C
  C876     1.0000 0.01735  0.88860  0.50440  Biso   1.000  C
  C877     1.0000 0.23265  0.25440  0.13860  Biso   1.000  C
  C878     1.0000 0.26735  0.74560  0.63860  Biso   1.000  C
  C879     1.0000 0.73265  0.24560  0.86140  Biso   1.000  C
  C880     1.0000 0.76735  0.75440  0.36140  Biso   1.000  C
  C881     1.0000 0.75440  0.36140  0.76735  Biso   1.000  C
  C882     1.0000 0.24560  0.86140  0.73265  Biso   1.000  C
  C883     1.0000 0.74560  0.63860  0.26735  Biso   1.000  C
  C884     1.0000 0.25440  0.13860  0.23265  Biso   1.000  C
  C885     1.0000 0.86140  0.73265  0.24560  Biso   1.000  C
  C886     1.0000 0.36140  0.76735  0.75440  Biso   1.000  C
  C887     1.0000 0.13860  0.23265  0.25440  Biso   1.000  C
  C888     1.0000 0.63860  0.26735  0.74560  Biso   1.000  C
  C889     1.0000 0.50440  0.98265  0.61140  Biso   1.000  C
  C890     1.0000 0.99560  0.01735  0.11140  Biso   1.000  C
  C891     1.0000 0.49560  0.48265  0.88860  Biso   1.000  C
  C892     1.0000 0.00440  0.51735  0.38860  Biso   1.000  C
  C893     1.0000 0.61140  0.50440  0.98265  Biso   1.000  C
  C894     1.0000 0.11140  0.99560  0.01735  Biso   1.000  C
  C895     1.0000 0.88860  0.49560  0.48265  Biso   1.000  C
  C896     1.0000 0.38860  0.00440  0.51735  Biso   1.000  C
  C897     1.0000 0.98265  0.61140  0.50440  Biso   1.000  C
  C898     1.0000 0.01735  0.11140  0.99560  Biso   1.000  C
  C899     1.0000 0.48265  0.88860  0.49560  Biso   1.000  C
  C900     1.0000 0.51735  0.38860  0.00440  Biso   1.000  C
  C901     1.0000 0.73265  0.75440  0.63860  Biso   1.000  C
  C902     1.0000 0.76735  0.24560  0.13860  Biso   1.000  C
  C903     1.0000 0.23265  0.74560  0.36140  Biso   1.000  C
  C904     1.0000 0.26735  0.25440  0.86140  Biso   1.000  C
  C905     1.0000 0.25440  0.86140  0.26735  Biso   1.000  C
  C906     1.0000 0.74560  0.36140  0.23265  Biso   1.000  C
  C907     1.0000 0.24560  0.13860  0.76735  Biso   1.000  C
  C908     1.0000 0.75440  0.63860  0.73265  Biso   1.000  C
  C909     1.0000 0.36140  0.23265  0.74560  Biso   1.000  C
  C910     1.0000 0.86140  0.26735  0.25440  Biso   1.000  C
  C911     1.0000 0.63860  0.73265  0.75440  Biso   1.000  C
  C912     1.0000 0.13860  0.76735  0.24560  Biso   1.000  C
  C913     1.0000 0.99560  0.51735  0.88860  Biso   1.000  C
  C914     1.0000 0.50440  0.48265  0.38860  Biso   1.000  C
  C915     1.0000 0.00440  0.01735  0.61140  Biso   1.000  C
  C916     1.0000 0.49560  0.98265  0.11140  Biso   1.000  C
  C917     1.0000 0.88860  0.99560  0.51735  Biso   1.000  C
  C918     1.0000 0.38860  0.50440  0.48265  Biso   1.000  C
  C919     1.0000 0.61140  0.00440  0.01735  Biso   1.000  C
  C920     1.0000 0.11140  0.49560  0.98265  Biso   1.000  C
  C921     1.0000 0.51735  0.88860  0.99560  Biso   1.000  C
  C922     1.0000 0.48265  0.38860  0.50440  Biso   1.000  C
  C923     1.0000 0.01735  0.61140  0.00440  Biso   1.000  C
  C924     1.0000 0.98265  0.11140  0.49560  Biso   1.000  C
  C925     1.0000 0.26735  0.24560  0.36140  Biso   1.000  C
  C926     1.0000 0.23265  0.75440  0.86140  Biso   1.000  C
  C927     1.0000 0.76735  0.25440  0.63860  Biso   1.000  C
  C928     1.0000 0.73265  0.74560  0.13860  Biso   1.000  C
  C929     1.0000 0.74560  0.13860  0.73265  Biso   1.000  C
  C930     1.0000 0.25440  0.63860  0.76735  Biso   1.000  C
  C931     1.0000 0.75440  0.86140  0.23265  Biso   1.000  C
  C932     1.0000 0.24560  0.36140  0.26735  Biso   1.000  C
  C933     1.0000 0.63860  0.76735  0.25440  Biso   1.000  C
  C934     1.0000 0.13860  0.73265  0.74560  Biso   1.000  C
  C935     1.0000 0.36140  0.26735  0.24560  Biso   1.000  C
  C936     1.0000 0.86140  0.23265  0.75440  Biso   1.000  C
  C937     1.0000 0.49560  0.01735  0.38860  Biso   1.000  C
  C938     1.0000 0.00440  0.98265  0.88860  Biso   1.000  C
  C939     1.0000 0.50440  0.51735  0.11140  Biso   1.000  C
  C940     1.0000 0.99560  0.48265  0.61140  Biso   1.000  C
  C941     1.0000 0.38860  0.49560  0.01735  Biso   1.000  C
  C942     1.0000 0.88860  0.00440  0.98265  Biso   1.000  C
  C943     1.0000 0.11140  0.50440  0.51735  Biso   1.000  C
  C944     1.0000 0.61140  0.99560  0.48265  Biso   1.000  C
  C945     1.0000 0.01735  0.38860  0.49560  Biso   1.000  C
  C946     1.0000 0.98265  0.88860  0.00440  Biso   1.000  C
  C947     1.0000 0.51735  0.11140  0.50440  Biso   1.000  C
  C948     1.0000 0.48265  0.61140  0.99560  Biso   1.000  C
  C949     1.0000 0.76735  0.74560  0.86140  Biso   1.000  C
  C950     1.0000 0.73265  0.25440  0.36140  Biso   1.000  C
  C951     1.0000 0.26735  0.75440  0.13860  Biso   1.000  C
  C952     1.0000 0.23265  0.24560  0.63860  Biso   1.000  C
  C953     1.0000 0.24560  0.63860  0.23265  Biso   1.000  C
  C954     1.0000 0.75440  0.13860  0.26735  Biso   1.000  C
  C955     1.0000 0.25440  0.36140  0.73265  Biso   1.000  C
  C956     1.0000 0.74560  0.86140  0.76735  Biso   1.000  C
  C957     1.0000 0.13860  0.26735  0.75440  Biso   1.000  C
  C958     1.0000 0.63860  0.23265  0.24560  Biso   1.000  C
  C959     1.0000 0.86140  0.76735  0.74560  Biso   1.000  C
  C960     1.0000 0.36140  0.73265  0.25440  Biso   1.000  C
  H673     1.0000 0.98460  0.46830  0.09960  Biso   1.000  H
  H674     1.0000 0.51540  0.53170  0.59960  Biso   1.000  H
  H675     1.0000 0.01540  0.96830  0.40040  Biso   1.000  H
  H676     1.0000 0.48460  0.03170  0.90040  Biso   1.000  H
  H677     1.0000 0.09960  0.98460  0.46830  Biso   1.000  H
  H678     1.0000 0.59960  0.51540  0.53170  Biso   1.000  H
  H679     1.0000 0.40040  0.01540  0.96830  Biso   1.000  H
  H680     1.0000 0.90040  0.48460  0.03170  Biso   1.000  H
  H681     1.0000 0.46830  0.09960  0.98460  Biso   1.000  H
  H682     1.0000 0.53170  0.59960  0.51540  Biso   1.000  H
  H683     1.0000 0.96830  0.40040  0.01540  Biso   1.000  H
  H684     1.0000 0.03170  0.90040  0.48460  Biso   1.000  H
  H685     1.0000 0.21830  0.23460  0.15040  Biso   1.000  H
  H686     1.0000 0.28170  0.76540  0.65040  Biso   1.000  H
  H687     1.0000 0.71830  0.26540  0.84960  Biso   1.000  H
  H688     1.0000 0.78170  0.73460  0.34960  Biso   1.000  H
  H689     1.0000 0.73460  0.34960  0.78170  Biso   1.000  H
  H690     1.0000 0.26540  0.84960  0.71830  Biso   1.000  H
  H691     1.0000 0.76540  0.65040  0.28170  Biso   1.000  H
  H692     1.0000 0.23460  0.15040  0.21830  Biso   1.000  H
  H693     1.0000 0.84960  0.71830  0.26540  Biso   1.000  H
  H694     1.0000 0.34960  0.78170  0.73460  Biso   1.000  H
  H695     1.0000 0.15040  0.21830  0.23460  Biso   1.000  H
  H696     1.0000 0.65040  0.28170  0.76540  Biso   1.000  H
  H697     1.0000 0.48460  0.96830  0.59960  Biso   1.000  H
  H698     1.0000 0.01540  0.03170  0.09960  Biso   1.000  H
  H699     1.0000 0.51540  0.46830  0.90040  Biso   1.000  H
  H700     1.0000 0.98460  0.53170  0.40040  Biso   1.000  H
  H701     1.0000 0.59960  0.48460  0.96830  Biso   1.000  H
  H702     1.0000 0.09960  0.01540  0.03170  Biso   1.000  H
  H703     1.0000 0.90040  0.51540  0.46830  Biso   1.000  H
  H704     1.0000 0.40040  0.98460  0.53170  Biso   1.000  H
  H705     1.0000 0.96830  0.59960  0.48460  Biso   1.000  H
  H706     1.0000 0.03170  0.09960  0.01540  Biso   1.000  H
  H707     1.0000 0.46830  0.90040  0.51540  Biso   1.000  H
  H708     1.0000 0.53170  0.40040  0.98460  Biso   1.000  H
  H709     1.0000 0.71830  0.73460  0.65040  Biso   1.000  H
  H710     1.0000 0.78170  0.26540  0.15040  Biso   1.000  H
  H711     1.0000 0.21830  0.76540  0.34960  Biso   1.000  H
  H712     1.0000 0.28170  0.23460  0.84960  Biso   1.000  H
  H713     1.0000 0.23460  0.84960  0.28170  Biso   1.000  H
  H714     1.0000 0.76540  0.34960  0.21830  Biso   1.000  H
  H715     1.0000 0.26540  0.15040  0.78170  Biso   1.000  H
  H716     1.0000 0.73460  0.65040  0.71830  Biso   1.000  H
  H717     1.0000 0.34960  0.21830  0.76540  Biso   1.000  H
  H718     1.0000 0.84960  0.28170  0.23460  Biso   1.000  H
  H719     1.0000 0.65040  0.71830  0.73460  Biso   1.000  H
  H720     1.0000 0.15040  0.78170  0.26540  Biso   1.000  H
  H721     1.0000 0.01540  0.53170  0.90040  Biso   1.000  H
  H722     1.0000 0.48460  0.46830  0.40040  Biso   1.000  H
  H723     1.0000 0.98460  0.03170  0.59960  Biso   1.000  H
  H724     1.0000 0.51540  0.96830  0.09960  Biso   1.000  H
  H725     1.0000 0.90040  0.01540  0.53170  Biso   1.000  H
  H726     1.0000 0.40040  0.48460  0.46830  Biso   1.000  H
  H727     1.0000 0.59960  0.98460  0.03170  Biso   1.000  H
  H728     1.0000 0.09960  0.51540  0.96830  Biso   1.000  H
  H729     1.0000 0.53170  0.90040  0.01540  Biso   1.000  H
  H730     1.0000 0.46830  0.40040  0.48460  Biso   1.000  H
  H731     1.0000 0.03170  0.59960  0.98460  Biso   1.000  H
  H732     1.0000 0.96830  0.09960  0.51540  Biso   1.000  H
  H733     1.0000 0.28170  0.26540  0.34960  Biso   1.000  H
  H734     1.0000 0.21830  0.73460  0.84960  Biso   1.000  H
  H735     1.0000 0.78170  0.23460  0.65040  Biso   1.000  H
  H736     1.0000 0.71830  0.76540  0.15040  Biso   1.000  H
  H737     1.0000 0.76540  0.15040  0.71830  Biso   1.000  H
  H738     1.0000 0.23460  0.65040  0.78170  Biso   1.000  H
  H739     1.0000 0.73460  0.84960  0.21830  Biso   1.000  H
  H740     1.0000 0.26540  0.34960  0.28170  Biso   1.000  H
  H741     1.0000 0.65040  0.78170  0.23460  Biso   1.000  H
  H742     1.0000 0.15040  0.71830  0.76540  Biso   1.000  H
  H743     1.0000 0.34960  0.28170  0.26540  Biso   1.000  H
  H744     1.0000 0.84960  0.21830  0.73460  Biso   1.000  H
  H745     1.0000 0.51540  0.03170  0.40040  Biso   1.000  H
  H746     1.0000 0.98460  0.96830  0.90040  Biso   1.000  H
  H747     1.0000 0.48460  0.53170  0.09960  Biso   1.000  H
  H748     1.0000 0.01540  0.46830  0.59960  Biso   1.000  H
  H749     1.0000 0.40040  0.51540  0.03170  Biso   1.000  H
  H750     1.0000 0.90040  0.98460  0.96830  Biso   1.000  H
  H751     1.0000 0.09960  0.48460  0.53170  Biso   1.000  H
  H752     1.0000 0.59960  0.01540  0.46830  Biso   1.000  H
  H753     1.0000 0.03170  0.40040  0.51540  Biso   1.000  H
  H754     1.0000 0.96830  0.90040  0.98460  Biso   1.000  H
  H755     1.0000 0.53170  0.09960  0.48460  Biso   1.000  H
  H756     1.0000 0.46830  0.59960  0.01540  Biso   1.000  H
  H757     1.0000 0.78170  0.76540  0.84960  Biso   1.000  H
  H758     1.0000 0.71830  0.23460  0.34960  Biso   1.000  H
  H759     1.0000 0.28170  0.73460  0.15040  Biso   1.000  H
  H760     1.0000 0.21830  0.26540  0.65040  Biso   1.000  H
  H761     1.0000 0.26540  0.65040  0.21830  Biso   1.000  H
  H762     1.0000 0.73460  0.15040  0.28170  Biso   1.000  H
  H763     1.0000 0.23460  0.34960  0.71830  Biso   1.000  H
  H764     1.0000 0.76540  0.84960  0.78170  Biso   1.000  H
  H765     1.0000 0.15040  0.28170  0.73460  Biso   1.000  H
  H766     1.0000 0.65040  0.21830  0.26540  Biso   1.000  H
  H767     1.0000 0.84960  0.78170  0.76540  Biso   1.000  H
  H768     1.0000 0.34960  0.71830  0.23460  Biso   1.000  H
  N577     1.0000 0.02870  0.42426  0.12510  Biso   1.000  N
  N578     1.0000 0.47130  0.57574  0.62510  Biso   1.000  N
  N579     1.0000 0.97130  0.92426  0.37490  Biso   1.000  N
  N580     1.0000 0.52870  0.07574  0.87490  Biso   1.000  N
  N581     1.0000 0.12510  0.02870  0.42426  Biso   1.000  N
  N582     1.0000 0.62510  0.47130  0.57574  Biso   1.000  N
  N583     1.0000 0.37490  0.97130  0.92426  Biso   1.000  N
  N584     1.0000 0.87490  0.52870  0.07574  Biso   1.000  N
  N585     1.0000 0.42426  0.12510  0.02870  Biso   1.000  N
  N586     1.0000 0.57574  0.62510  0.47130  Biso   1.000  N
  N587     1.0000 0.92426  0.37490  0.97130  Biso   1.000  N
  N588     1.0000 0.07574  0.87490  0.52870  Biso   1.000  N
  N589     1.0000 0.17426  0.27870  0.12490  Biso   1.000  N
  N590     1.0000 0.32574  0.72130  0.62490  Biso   1.000  N
  N591     1.0000 0.67426  0.22130  0.87510  Biso   1.000  N
  N592     1.0000 0.82574  0.77870  0.37510  Biso   1.000  N
  N593     1.0000 0.77870  0.37510  0.82574  Biso   1.000  N
  N594     1.0000 0.22130  0.87510  0.67426  Biso   1.000  N
  N595     1.0000 0.72130  0.62490  0.32574  Biso   1.000  N
  N596     1.0000 0.27870  0.12490  0.17426  Biso   1.000  N
  N597     1.0000 0.87510  0.67426  0.22130  Biso   1.000  N
  N598     1.0000 0.37510  0.82574  0.77870  Biso   1.000  N
  N599     1.0000 0.12490  0.17426  0.27870  Biso   1.000  N
  N600     1.0000 0.62490  0.32574  0.72130  Biso   1.000  N
  N601     1.0000 0.52870  0.92426  0.62510  Biso   1.000  N
  N602     1.0000 0.97130  0.07574  0.12510  Biso   1.000  N
  N603     1.0000 0.47130  0.42426  0.87490  Biso   1.000  N
  N604     1.0000 0.02870  0.57574  0.37490  Biso   1.000  N
  N605     1.0000 0.62510  0.52870  0.92426  Biso   1.000  N
  N606     1.0000 0.12510  0.97130  0.07574  Biso   1.000  N
  N607     1.0000 0.87490  0.47130  0.42426  Biso   1.000  N
  N608     1.0000 0.37490  0.02870  0.57574  Biso   1.000  N
  N609     1.0000 0.92426  0.62510  0.52870  Biso   1.000  N
  N610     1.0000 0.07574  0.12510  0.97130  Biso   1.000  N
  N611     1.0000 0.42426  0.87490  0.47130  Biso   1.000  N
  N612     1.0000 0.57574  0.37490  0.02870  Biso   1.000  N
  N613     1.0000 0.67426  0.77870  0.62490  Biso   1.000  N
  N614     1.0000 0.82574  0.22130  0.12490  Biso   1.000  N
  N615     1.0000 0.17426  0.72130  0.37510  Biso   1.000  N
  N616     1.0000 0.32574  0.27870  0.87510  Biso   1.000  N
  N617     1.0000 0.27870  0.87510  0.32574  Biso   1.000  N
  N618     1.0000 0.72130  0.37510  0.17426  Biso   1.000  N
  N619     1.0000 0.22130  0.12490  0.82574  Biso   1.000  N
  N620     1.0000 0.77870  0.62490  0.67426  Biso   1.000  N
  N621     1.0000 0.37510  0.17426  0.72130  Biso   1.000  N
  N622     1.0000 0.87510  0.32574  0.27870  Biso   1.000  N
  N623     1.0000 0.62490  0.67426  0.77870  Biso   1.000  N
  N624     1.0000 0.12490  0.82574  0.22130  Biso   1.000  N
  N625     1.0000 0.97130  0.57574  0.87490  Biso   1.000  N
  N626     1.0000 0.52870  0.42426  0.37490  Biso   1.000  N
  N627     1.0000 0.02870  0.07574  0.62510  Biso   1.000  N
  N628     1.0000 0.47130  0.92426  0.12510  Biso   1.000  N
  N629     1.0000 0.87490  0.97130  0.57574  Biso   1.000  N
  N630     1.0000 0.37490  0.52870  0.42426  Biso   1.000  N
  N631     1.0000 0.62510  0.02870  0.07574  Biso   1.000  N
  N632     1.0000 0.12510  0.47130  0.92426  Biso   1.000  N
  N633     1.0000 0.57574  0.87490  0.97130  Biso   1.000  N
  N634     1.0000 0.42426  0.37490  0.52870  Biso   1.000  N
  N635     1.0000 0.07574  0.62510  0.02870  Biso   1.000  N
  N636     1.0000 0.92426  0.12510  0.47130  Biso   1.000  N
  N637     1.0000 0.32574  0.22130  0.37510  Biso   1.000  N
  N638     1.0000 0.17426  0.77870  0.87510  Biso   1.000  N
  N639     1.0000 0.82574  0.27870  0.62490  Biso   1.000  N
  N640     1.0000 0.67426  0.72130  0.12490  Biso   1.000  N
  N641     1.0000 0.72130  0.12490  0.67426  Biso   1.000  N
  N642     1.0000 0.27870  0.62490  0.82574  Biso   1.000  N
  N643     1.0000 0.77870  0.87510  0.17426  Biso   1.000  N
  N644     1.0000 0.22130  0.37510  0.32574  Biso   1.000  N
  N645     1.0000 0.62490  0.82574  0.27870  Biso   1.000  N
  N646     1.0000 0.12490  0.67426  0.72130  Biso   1.000  N
  N647     1.0000 0.37510  0.32574  0.22130  Biso   1.000  N
  N648     1.0000 0.87510  0.17426  0.77870  Biso   1.000  N
  N649     1.0000 0.47130  0.07574  0.37490  Biso   1.000  N
  N650     1.0000 0.02870  0.92426  0.87490  Biso   1.000  N
  N651     1.0000 0.52870  0.57574  0.12510  Biso   1.000  N
  N652     1.0000 0.97130  0.42426  0.62510  Biso   1.000  N
  N653     1.0000 0.37490  0.47130  0.07574  Biso   1.000  N
  N654     1.0000 0.87490  0.02870  0.92426  Biso   1.000  N
  N655     1.0000 0.12510  0.52870  0.57574  Biso   1.000  N
  N656     1.0000 0.62510  0.97130  0.42426  Biso   1.000  N
  N657     1.0000 0.07574  0.37490  0.47130  Biso   1.000  N
  N658     1.0000 0.92426  0.87490  0.02870  Biso   1.000  N
  N659     1.0000 0.57574  0.12510  0.52870  Biso   1.000  N
  N660     1.0000 0.42426  0.62510  0.97130  Biso   1.000  N
  N661     1.0000 0.82574  0.72130  0.87510  Biso   1.000  N
  N662     1.0000 0.67426  0.27870  0.37510  Biso   1.000  N
  N663     1.0000 0.32574  0.77870  0.12490  Biso   1.000  N
  N664     1.0000 0.17426  0.22130  0.62490  Biso   1.000  N
  N665     1.0000 0.22130  0.62490  0.17426  Biso   1.000  N
  N666     1.0000 0.77870  0.12490  0.32574  Biso   1.000  N
  N667     1.0000 0.27870  0.37510  0.67426  Biso   1.000  N
  N668     1.0000 0.72130  0.87510  0.82574  Biso   1.000  N
  N669     1.0000 0.12490  0.32574  0.77870  Biso   1.000  N
  N670     1.0000 0.62490  0.17426  0.22130  Biso   1.000  N
  N671     1.0000 0.87510  0.82574  0.72130  Biso   1.000  N
  N672     1.0000 0.37510  0.67426  0.27870  Biso   1.000  N
  N673     1.0000 0.03190  0.46438  0.12890  Biso   1.000  N
  N674     1.0000 0.46810  0.53562  0.62890  Biso   1.000  N
  N675     1.0000 0.96810  0.96438  0.37110  Biso   1.000  N
  N676     1.0000 0.53190  0.03562  0.87110  Biso   1.000  N
  N677     1.0000 0.12890  0.03190  0.46438  Biso   1.000  N
  N678     1.0000 0.62890  0.46810  0.53562  Biso   1.000  N
  N679     1.0000 0.37110  0.96810  0.96438  Biso   1.000  N
  N680     1.0000 0.87110  0.53190  0.03562  Biso   1.000  N
  N681     1.0000 0.46438  0.12890  0.03190  Biso   1.000  N
  N682     1.0000 0.53562  0.62890  0.46810  Biso   1.000  N
  N683     1.0000 0.96438  0.37110  0.96810  Biso   1.000  N
  N684     1.0000 0.03562  0.87110  0.53190  Biso   1.000  N
  N685     1.0000 0.21438  0.28190  0.12110  Biso   1.000  N
  N686     1.0000 0.28562  0.71810  0.62110  Biso   1.000  N
  N687     1.0000 0.71438  0.21810  0.87890  Biso   1.000  N
  N688     1.0000 0.78562  0.78190  0.37890  Biso   1.000  N
  N689     1.0000 0.78190  0.37890  0.78562  Biso   1.000  N
  N690     1.0000 0.21810  0.87890  0.71438  Biso   1.000  N
  N691     1.0000 0.71810  0.62110  0.28562  Biso   1.000  N
  N692     1.0000 0.28190  0.12110  0.21438  Biso   1.000  N
  N693     1.0000 0.87890  0.71438  0.21810  Biso   1.000  N
  N694     1.0000 0.37890  0.78562  0.78190  Biso   1.000  N
  N695     1.0000 0.12110  0.21438  0.28190  Biso   1.000  N
  N696     1.0000 0.62110  0.28562  0.71810  Biso   1.000  N
  N697     1.0000 0.53190  0.96438  0.62890  Biso   1.000  N
  N698     1.0000 0.96810  0.03562  0.12890  Biso   1.000  N
  N699     1.0000 0.46810  0.46438  0.87110  Biso   1.000  N
  N700     1.0000 0.03190  0.53562  0.37110  Biso   1.000  N
  N701     1.0000 0.62890  0.53190  0.96438  Biso   1.000  N
  N702     1.0000 0.12890  0.96810  0.03562  Biso   1.000  N
  N703     1.0000 0.87110  0.46810  0.46438  Biso   1.000  N
  N704     1.0000 0.37110  0.03190  0.53562  Biso   1.000  N
  N705     1.0000 0.96438  0.62890  0.53190  Biso   1.000  N
  N706     1.0000 0.03562  0.12890  0.96810  Biso   1.000  N
  N707     1.0000 0.46438  0.87110  0.46810  Biso   1.000  N
  N708     1.0000 0.53562  0.37110  0.03190  Biso   1.000  N
  N709     1.0000 0.71438  0.78190  0.62110  Biso   1.000  N
  N710     1.0000 0.78562  0.21810  0.12110  Biso   1.000  N
  N711     1.0000 0.21438  0.71810  0.37890  Biso   1.000  N
  N712     1.0000 0.28562  0.28190  0.87890  Biso   1.000  N
  N713     1.0000 0.28190  0.87890  0.28562  Biso   1.000  N
  N714     1.0000 0.71810  0.37890  0.21438  Biso   1.000  N
  N715     1.0000 0.21810  0.12110  0.78562  Biso   1.000  N
  N716     1.0000 0.78190  0.62110  0.71438  Biso   1.000  N
  N717     1.0000 0.37890  0.21438  0.71810  Biso   1.000  N
  N718     1.0000 0.87890  0.28562  0.28190  Biso   1.000  N
  N719     1.0000 0.62110  0.71438  0.78190  Biso   1.000  N
  N720     1.0000 0.12110  0.78562  0.21810  Biso   1.000  N
  N721     1.0000 0.96810  0.53562  0.87110  Biso   1.000  N
  N722     1.0000 0.53190  0.46438  0.37110  Biso   1.000  N
  N723     1.0000 0.03190  0.03562  0.62890  Biso   1.000  N
  N724     1.0000 0.46810  0.96438  0.12890  Biso   1.000  N
  N725     1.0000 0.87110  0.96810  0.53562  Biso   1.000  N
  N726     1.0000 0.37110  0.53190  0.46438  Biso   1.000  N
  N727     1.0000 0.62890  0.03190  0.03562  Biso   1.000  N
  N728     1.0000 0.12890  0.46810  0.96438  Biso   1.000  N
  N729     1.0000 0.53562  0.87110  0.96810  Biso   1.000  N
  N730     1.0000 0.46438  0.37110  0.53190  Biso   1.000  N
  N731     1.0000 0.03562  0.62890  0.03190  Biso   1.000  N
  N732     1.0000 0.96438  0.12890  0.46810  Biso   1.000  N
  N733     1.0000 0.28562  0.21810  0.37890  Biso   1.000  N
  N734     1.0000 0.21438  0.78190  0.87890  Biso   1.000  N
  N735     1.0000 0.78562  0.28190  0.62110  Biso   1.000  N
  N736     1.0000 0.71438  0.71810  0.12110  Biso   1.000  N
  N737     1.0000 0.71810  0.12110  0.71438  Biso   1.000  N
  N738     1.0000 0.28190  0.62110  0.78562  Biso   1.000  N
  N739     1.0000 0.78190  0.87890  0.21438  Biso   1.000  N
  N740     1.0000 0.21810  0.37890  0.28562  Biso   1.000  N
  N741     1.0000 0.62110  0.78562  0.28190  Biso   1.000  N
  N742     1.0000 0.12110  0.71438  0.71810  Biso   1.000  N
  N743     1.0000 0.37890  0.28562  0.21810  Biso   1.000  N
  N744     1.0000 0.87890  0.21438  0.78190  Biso   1.000  N
  N745     1.0000 0.46810  0.03562  0.37110  Biso   1.000  N
  N746     1.0000 0.03190  0.96438  0.87110  Biso   1.000  N
  N747     1.0000 0.53190  0.53562  0.12890  Biso   1.000  N
  N748     1.0000 0.96810  0.46438  0.62890  Biso   1.000  N
  N749     1.0000 0.37110  0.46810  0.03562  Biso   1.000  N
  N750     1.0000 0.87110  0.03190  0.96438  Biso   1.000  N
  N751     1.0000 0.12890  0.53190  0.53562  Biso   1.000  N
  N752     1.0000 0.62890  0.96810  0.46438  Biso   1.000  N
  N753     1.0000 0.03562  0.37110  0.46810  Biso   1.000  N
  N754     1.0000 0.96438  0.87110  0.03190  Biso   1.000  N
  N755     1.0000 0.53562  0.12890  0.53190  Biso   1.000  N
  N756     1.0000 0.46438  0.62890  0.96810  Biso   1.000  N
  N757     1.0000 0.78562  0.71810  0.87890  Biso   1.000  N
  N758     1.0000 0.71438  0.28190  0.37890  Biso   1.000  N
  N759     1.0000 0.28562  0.78190  0.12110  Biso   1.000  N
  N760     1.0000 0.21438  0.21810  0.62110  Biso   1.000  N
  N761     1.0000 0.21810  0.62110  0.21438  Biso   1.000  N
  N762     1.0000 0.78190  0.12110  0.28562  Biso   1.000  N
  N763     1.0000 0.28190  0.37890  0.71438  Biso   1.000  N
  N764     1.0000 0.71810  0.87890  0.78562  Biso   1.000  N
  N765     1.0000 0.12110  0.28562  0.78190  Biso   1.000  N
  N766     1.0000 0.62110  0.21438  0.21810  Biso   1.000  N
  N767     1.0000 0.87890  0.78562  0.71810  Biso   1.000  N
  N768     1.0000 0.37890  0.71438  0.28190  Biso   1.000  N
