data_image0
_cell_length_a       28.108
_cell_length_b       27.934
_cell_length_c       28.988
_cell_angle_alpha    90
_cell_angle_beta     115.139
_cell_angle_gamma    90

_symmetry_space_group_name_H-M    "P 1"
_symmetry_int_tables_number       1

loop_
  _symmetry_equiv_pos_as_xyz
  'x, y, z'

loop_
  _atom_site_label
  _atom_site_occupancy
  _atom_site_fract_x
  _atom_site_fract_y
  _atom_site_fract_z
  _atom_site_thermal_displace_type
  _atom_site_B_iso_or_equiv
  _atom_site_type_symbol
  Cu1      1.0000 0.15721  0.28313  0.24220  Biso   1.000  Cu
  Cu2      1.0000 0.84279  0.28313  0.25780  Biso   1.000  Cu
  Cu3      1.0000 0.65721  0.78313  0.24220  Biso   1.000  Cu
  Cu4      1.0000 0.34279  0.78313  0.25780  Biso   1.000  Cu
  Cu5      1.0000 0.84279  0.71687  0.75780  Biso   1.000  Cu
  Cu6      1.0000 0.15721  0.71687  0.74220  Biso   1.000  Cu
  Cu7      1.0000 0.34279  0.21687  0.75780  Biso   1.000  Cu
  Cu8      1.0000 0.65721  0.21687  0.74220  Biso   1.000  Cu
  Cu9      1.0000 0.27471  0.28177  0.27666  Biso   1.000  Cu
  Cu10     1.0000 0.72529  0.28177  0.22334  Biso   1.000  Cu
  Cu11     1.0000 0.77471  0.78177  0.27666  Biso   1.000  Cu
  Cu12     1.0000 0.22529  0.78177  0.22334  Biso   1.000  Cu
  Cu13     1.0000 0.72529  0.71823  0.72334  Biso   1.000  Cu
  Cu14     1.0000 0.27471  0.71823  0.77666  Biso   1.000  Cu
  Cu15     1.0000 0.22529  0.21823  0.72334  Biso   1.000  Cu
  Cu16     1.0000 0.77471  0.21823  0.77666  Biso   1.000  Cu
  Cu17     1.0000 0.21261  0.36864  0.30526  Biso   1.000  Cu
  Cu18     1.0000 0.78739  0.36864  0.19474  Biso   1.000  Cu
  Cu19     1.0000 0.71261  0.86864  0.30526  Biso   1.000  Cu
  Cu20     1.0000 0.28739  0.86864  0.19474  Biso   1.000  Cu
  Cu21     1.0000 0.78739  0.63136  0.69474  Biso   1.000  Cu
  Cu22     1.0000 0.21261  0.63136  0.80526  Biso   1.000  Cu
  Cu23     1.0000 0.28739  0.13136  0.69474  Biso   1.000  Cu
  Cu24     1.0000 0.71261  0.13136  0.80526  Biso   1.000  Cu
  Cu25     1.0000 0.22508  0.36493  0.20745  Biso   1.000  Cu
  Cu26     1.0000 0.77492  0.36493  0.29255  Biso   1.000  Cu
  Cu27     1.0000 0.72508  0.86493  0.20745  Biso   1.000  Cu
  Cu28     1.0000 0.27492  0.86493  0.29255  Biso   1.000  Cu
  Cu29     1.0000 0.77492  0.63507  0.79255  Biso   1.000  Cu
  Cu30     1.0000 0.22508  0.63507  0.70745  Biso   1.000  Cu
  Cu31     1.0000 0.27492  0.13507  0.79255  Biso   1.000  Cu
  Cu32     1.0000 0.72508  0.13507  0.70745  Biso   1.000  Cu
  C1       1.0000 0.09750  0.02340  0.21180  Biso   1.000  C
  C2       1.0000 0.90250  0.02340  0.28820  Biso   1.000  C
  C3       1.0000 0.59750  0.52340  0.21180  Biso   1.000  C
  C4       1.0000 0.40250  0.52340  0.28820  Biso   1.000  C
  C5       1.0000 0.90250  0.97660  0.78820  Biso   1.000  C
  C6       1.0000 0.09750  0.97660  0.71180  Biso   1.000  C
  C7       1.0000 0.40250  0.47660  0.78820  Biso   1.000  C
  C8       1.0000 0.59750  0.47660  0.71180  Biso   1.000  C
  C9       1.0000 0.05100  0.99560  0.20000  Biso   1.000  C
  C10      1.0000 0.94900  0.99560  0.30000  Biso   1.000  C
  C11      1.0000 0.55100  0.49560  0.20000  Biso   1.000  C
  C12      1.0000 0.44900  0.49560  0.30000  Biso   1.000  C
  C13      1.0000 0.94900  0.00440  0.80000  Biso   1.000  C
  C14      1.0000 0.05100  0.00440  0.70000  Biso   1.000  C
  C15      1.0000 0.44900  0.50440  0.80000  Biso   1.000  C
  C16      1.0000 0.55100  0.50440  0.70000  Biso   1.000  C
  C17      1.0000 0.00190  0.01630  0.18690  Biso   1.000  C
  C18      1.0000 0.99810  0.01630  0.31310  Biso   1.000  C
  C19      1.0000 0.50190  0.51630  0.18690  Biso   1.000  C
  C20      1.0000 0.49810  0.51630  0.31310  Biso   1.000  C
  C21      1.0000 0.99810  0.98370  0.81310  Biso   1.000  C
  C22      1.0000 0.00190  0.98370  0.68690  Biso   1.000  C
  C23      1.0000 0.49810  0.48370  0.81310  Biso   1.000  C
  C24      1.0000 0.50190  0.48370  0.68690  Biso   1.000  C
  C25      1.0000 0.99710  0.06650  0.18597  Biso   1.000  C
  C26      1.0000 0.00290  0.06650  0.31403  Biso   1.000  C
  C27      1.0000 0.49710  0.56650  0.18597  Biso   1.000  C
  C28      1.0000 0.50290  0.56650  0.31403  Biso   1.000  C
  C29      1.0000 0.00290  0.93350  0.81403  Biso   1.000  C
  C30      1.0000 0.99710  0.93350  0.68597  Biso   1.000  C
  C31      1.0000 0.50290  0.43350  0.81403  Biso   1.000  C
  C32      1.0000 0.49710  0.43350  0.68597  Biso   1.000  C
  C33      1.0000 0.04280  0.09630  0.19950  Biso   1.000  C
  C34      1.0000 0.95720  0.09630  0.30050  Biso   1.000  C
  C35      1.0000 0.54280  0.59630  0.19950  Biso   1.000  C
  C36      1.0000 0.45720  0.59630  0.30050  Biso   1.000  C
  C37      1.0000 0.95720  0.90370  0.80050  Biso   1.000  C
  C38      1.0000 0.04280  0.90370  0.69950  Biso   1.000  C
  C39      1.0000 0.45720  0.40370  0.80050  Biso   1.000  C
  C40      1.0000 0.54280  0.40370  0.69950  Biso   1.000  C
  C41      1.0000 0.05500  0.94690  0.20030  Biso   1.000  C
  C42      1.0000 0.94500  0.94690  0.29970  Biso   1.000  C
  C43      1.0000 0.55500  0.44690  0.20030  Biso   1.000  C
  C44      1.0000 0.44500  0.44690  0.29970  Biso   1.000  C
  C45      1.0000 0.94500  0.05310  0.79970  Biso   1.000  C
  C46      1.0000 0.05500  0.05310  0.70030  Biso   1.000  C
  C47      1.0000 0.44500  0.55310  0.79970  Biso   1.000  C
  C48      1.0000 0.55500  0.55310  0.70030  Biso   1.000  C
  H1       1.0000 0.08750  0.93290  0.20840  Biso   1.000  H
  H2       1.0000 0.91250  0.93290  0.29160  Biso   1.000  H
  H3       1.0000 0.58750  0.43290  0.20840  Biso   1.000  H
  H4       1.0000 0.41250  0.43290  0.29160  Biso   1.000  H
  H5       1.0000 0.91250  0.06710  0.79160  Biso   1.000  H
  H6       1.0000 0.08750  0.06710  0.70840  Biso   1.000  H
  H7       1.0000 0.41250  0.56710  0.79160  Biso   1.000  H
  H8       1.0000 0.58750  0.56710  0.70840  Biso   1.000  H
  C49      1.0000 0.01110  0.91780  0.18890  Biso   1.000  C
  C50      1.0000 0.98890  0.91780  0.31110  Biso   1.000  C
  C51      1.0000 0.51110  0.41780  0.18890  Biso   1.000  C
  C52      1.0000 0.48890  0.41780  0.31110  Biso   1.000  C
  C53      1.0000 0.98890  0.08220  0.81110  Biso   1.000  C
  C54      1.0000 0.01110  0.08220  0.68890  Biso   1.000  C
  C55      1.0000 0.48890  0.58220  0.81110  Biso   1.000  C
  C56      1.0000 0.51110  0.58220  0.68890  Biso   1.000  C
  H9       1.0000 0.01480  0.88470  0.19000  Biso   1.000  H
  H10      1.0000 0.98520  0.88470  0.31000  Biso   1.000  H
  H11      1.0000 0.51480  0.38470  0.19000  Biso   1.000  H
  H12      1.0000 0.48520  0.38470  0.31000  Biso   1.000  H
  H13      1.0000 0.98520  0.11530  0.81000  Biso   1.000  H
  H14      1.0000 0.01480  0.11530  0.69000  Biso   1.000  H
  H15      1.0000 0.48520  0.61530  0.81000  Biso   1.000  H
  H16      1.0000 0.51480  0.61530  0.69000  Biso   1.000  H
  C57      1.0000 0.96370  0.93740  0.17610  Biso   1.000  C
  C58      1.0000 0.03630  0.93740  0.32390  Biso   1.000  C
  C59      1.0000 0.46370  0.43740  0.17610  Biso   1.000  C
  C60      1.0000 0.53630  0.43740  0.32390  Biso   1.000  C
  C61      1.0000 0.03630  0.06260  0.82390  Biso   1.000  C
  C62      1.0000 0.96370  0.06260  0.67610  Biso   1.000  C
  C63      1.0000 0.53630  0.56260  0.82390  Biso   1.000  C
  C64      1.0000 0.46370  0.56260  0.67610  Biso   1.000  C
  H17      1.0000 0.93470  0.91760  0.16820  Biso   1.000  H
  H18      1.0000 0.06530  0.91760  0.33180  Biso   1.000  H
  H19      1.0000 0.43470  0.41760  0.16820  Biso   1.000  H
  H20      1.0000 0.56530  0.41760  0.33180  Biso   1.000  H
  H21      1.0000 0.06530  0.08240  0.83180  Biso   1.000  H
  H22      1.0000 0.93470  0.08240  0.66820  Biso   1.000  H
  H23      1.0000 0.56530  0.58240  0.83180  Biso   1.000  H
  H24      1.0000 0.43470  0.58240  0.66820  Biso   1.000  H
  C65      1.0000 0.95700  0.98630  0.17440  Biso   1.000  C
  C66      1.0000 0.04300  0.98630  0.32560  Biso   1.000  C
  C67      1.0000 0.45700  0.48630  0.17440  Biso   1.000  C
  C68      1.0000 0.54300  0.48630  0.32560  Biso   1.000  C
  C69      1.0000 0.04300  0.01370  0.82560  Biso   1.000  C
  C70      1.0000 0.95700  0.01370  0.67440  Biso   1.000  C
  C71      1.0000 0.54300  0.51370  0.82560  Biso   1.000  C
  C72      1.0000 0.45700  0.51370  0.67440  Biso   1.000  C
  C73      1.0000 0.90910  0.00960  0.16180  Biso   1.000  C
  C74      1.0000 0.09090  0.00960  0.33820  Biso   1.000  C
  C75      1.0000 0.40910  0.50960  0.16180  Biso   1.000  C
  C76      1.0000 0.59090  0.50960  0.33820  Biso   1.000  C
  C77      1.0000 0.09090  0.99040  0.83820  Biso   1.000  C
  C78      1.0000 0.90910  0.99040  0.66180  Biso   1.000  C
  C79      1.0000 0.59090  0.49040  0.83820  Biso   1.000  C
  C80      1.0000 0.40910  0.49040  0.66180  Biso   1.000  C
  H25      1.0000 0.87910  0.99130  0.15390  Biso   1.000  H
  H26      1.0000 0.12090  0.99130  0.34610  Biso   1.000  H
  H27      1.0000 0.37910  0.49130  0.15390  Biso   1.000  H
  H28      1.0000 0.62090  0.49130  0.34610  Biso   1.000  H
  H29      1.0000 0.12090  0.00870  0.84610  Biso   1.000  H
  H30      1.0000 0.87910  0.00870  0.65390  Biso   1.000  H
  H31      1.0000 0.62090  0.50870  0.84610  Biso   1.000  H
  H32      1.0000 0.37910  0.50870  0.65390  Biso   1.000  H
  C81      1.0000 0.90490  0.05670  0.16070  Biso   1.000  C
  C82      1.0000 0.09510  0.05670  0.33930  Biso   1.000  C
  C83      1.0000 0.40490  0.55670  0.16070  Biso   1.000  C
  C84      1.0000 0.59510  0.55670  0.33930  Biso   1.000  C
  C85      1.0000 0.09510  0.94330  0.83930  Biso   1.000  C
  C86      1.0000 0.90490  0.94330  0.66070  Biso   1.000  C
  C87      1.0000 0.59510  0.44330  0.83930  Biso   1.000  C
  C88      1.0000 0.40490  0.44330  0.66070  Biso   1.000  C
  H33      1.0000 0.87200  0.07060  0.15120  Biso   1.000  H
  H34      1.0000 0.12800  0.07060  0.34880  Biso   1.000  H
  H35      1.0000 0.37200  0.57060  0.15120  Biso   1.000  H
  H36      1.0000 0.62800  0.57060  0.34880  Biso   1.000  H
  H37      1.0000 0.12800  0.92940  0.84880  Biso   1.000  H
  H38      1.0000 0.87200  0.92940  0.65120  Biso   1.000  H
  H39      1.0000 0.62800  0.42940  0.84880  Biso   1.000  H
  H40      1.0000 0.37200  0.42940  0.65120  Biso   1.000  H
  C89      1.0000 0.94920  0.08630  0.17360  Biso   1.000  C
  C90      1.0000 0.05080  0.08630  0.32640  Biso   1.000  C
  C91      1.0000 0.44920  0.58630  0.17360  Biso   1.000  C
  C92      1.0000 0.55080  0.58630  0.32640  Biso   1.000  C
  C93      1.0000 0.05080  0.91370  0.82640  Biso   1.000  C
  C94      1.0000 0.94920  0.91370  0.67360  Biso   1.000  C
  C95      1.0000 0.55080  0.41370  0.82640  Biso   1.000  C
  C96      1.0000 0.44920  0.41370  0.67360  Biso   1.000  C
  H41      1.0000 0.94560  0.11940  0.17370  Biso   1.000  H
  H42      1.0000 0.05440  0.11940  0.32630  Biso   1.000  H
  H43      1.0000 0.44560  0.61940  0.17370  Biso   1.000  H
  H44      1.0000 0.55440  0.61940  0.32630  Biso   1.000  H
  H45      1.0000 0.05440  0.88060  0.82630  Biso   1.000  H
  H46      1.0000 0.94560  0.88060  0.67370  Biso   1.000  H
  H47      1.0000 0.55440  0.38060  0.82630  Biso   1.000  H
  H48      1.0000 0.44560  0.38060  0.67370  Biso   1.000  H
  N1       1.0000 0.09040  0.07310  0.20960  Biso   1.000  N
  N2       1.0000 0.90960  0.07310  0.29040  Biso   1.000  N
  N3       1.0000 0.59040  0.57310  0.20960  Biso   1.000  N
  N4       1.0000 0.40960  0.57310  0.29040  Biso   1.000  N
  N5       1.0000 0.90960  0.92690  0.79040  Biso   1.000  N
  N6       1.0000 0.09040  0.92690  0.70960  Biso   1.000  N
  N7       1.0000 0.40960  0.42690  0.79040  Biso   1.000  N
  N8       1.0000 0.59040  0.42690  0.70960  Biso   1.000  N
  O1       1.0000 0.14100  0.00669  0.22200  Biso   1.000  O
  O2       1.0000 0.85900  0.00669  0.27800  Biso   1.000  O
  O3       1.0000 0.64100  0.50669  0.22200  Biso   1.000  O
  O4       1.0000 0.35900  0.50669  0.27800  Biso   1.000  O
  O5       1.0000 0.85900  0.99331  0.77800  Biso   1.000  O
  O6       1.0000 0.14100  0.99331  0.72200  Biso   1.000  O
  O7       1.0000 0.35900  0.49331  0.77800  Biso   1.000  O
  O8       1.0000 0.64100  0.49331  0.72200  Biso   1.000  O
  O9       1.0000 0.04070  0.13995  0.20090  Biso   1.000  O
  O10      1.0000 0.95930  0.13995  0.29910  Biso   1.000  O
  O11      1.0000 0.54070  0.63995  0.20090  Biso   1.000  O
  O12      1.0000 0.45930  0.63995  0.29910  Biso   1.000  O
  O13      1.0000 0.95930  0.86005  0.79910  Biso   1.000  O
  O14      1.0000 0.04070  0.86005  0.70090  Biso   1.000  O
  O15      1.0000 0.45930  0.36005  0.79910  Biso   1.000  O
  O16      1.0000 0.54070  0.36005  0.70090  Biso   1.000  O
  C97      1.0000 0.13480  0.10310  0.21170  Biso   1.000  C
  C98      1.0000 0.86520  0.10310  0.28830  Biso   1.000  C
  C99      1.0000 0.63480  0.60310  0.21170  Biso   1.000  C
  C100     1.0000 0.36520  0.60310  0.28830  Biso   1.000  C
  C101     1.0000 0.86520  0.89690  0.78830  Biso   1.000  C
  C102     1.0000 0.13480  0.89690  0.71170  Biso   1.000  C
  C103     1.0000 0.36520  0.39690  0.78830  Biso   1.000  C
  C104     1.0000 0.63480  0.39690  0.71170  Biso   1.000  C
  H49      1.0000 0.12160  0.13250  0.19280  Biso   1.000  H
  H50      1.0000 0.87840  0.13250  0.30720  Biso   1.000  H
  H51      1.0000 0.62160  0.63250  0.19280  Biso   1.000  H
  H52      1.0000 0.37840  0.63250  0.30720  Biso   1.000  H
  H53      1.0000 0.87840  0.86750  0.80720  Biso   1.000  H
  H54      1.0000 0.12160  0.86750  0.69280  Biso   1.000  H
  H55      1.0000 0.37840  0.36750  0.80720  Biso   1.000  H
  H56      1.0000 0.62160  0.36750  0.69280  Biso   1.000  H
  H57      1.0000 0.15460  0.08610  0.19640  Biso   1.000  H
  H58      1.0000 0.84540  0.08610  0.30360  Biso   1.000  H
  H59      1.0000 0.65460  0.58610  0.19640  Biso   1.000  H
  H60      1.0000 0.34540  0.58610  0.30360  Biso   1.000  H
  H61      1.0000 0.84540  0.91390  0.80360  Biso   1.000  H
  H62      1.0000 0.15460  0.91390  0.69640  Biso   1.000  H
  H63      1.0000 0.34540  0.41390  0.80360  Biso   1.000  H
  H64      1.0000 0.65460  0.41390  0.69640  Biso   1.000  H
  C105     1.0000 0.16990  0.11440  0.26650  Biso   1.000  C
  C106     1.0000 0.83010  0.11440  0.23350  Biso   1.000  C
  C107     1.0000 0.66990  0.61440  0.26650  Biso   1.000  C
  C108     1.0000 0.33010  0.61440  0.23350  Biso   1.000  C
  C109     1.0000 0.83010  0.88560  0.73350  Biso   1.000  C
  C110     1.0000 0.16990  0.88560  0.76650  Biso   1.000  C
  C111     1.0000 0.33010  0.38560  0.73350  Biso   1.000  C
  C112     1.0000 0.66990  0.38560  0.76650  Biso   1.000  C
  H65      1.0000 0.17970  0.08520  0.28640  Biso   1.000  H
  H66      1.0000 0.82030  0.08520  0.21360  Biso   1.000  H
  H67      1.0000 0.67970  0.58520  0.28640  Biso   1.000  H
  H68      1.0000 0.32030  0.58520  0.21360  Biso   1.000  H
  H69      1.0000 0.82030  0.91480  0.71360  Biso   1.000  H
  H70      1.0000 0.17970  0.91480  0.78640  Biso   1.000  H
  H71      1.0000 0.32030  0.41480  0.71360  Biso   1.000  H
  H72      1.0000 0.67970  0.41480  0.78640  Biso   1.000  H
  H73      1.0000 0.15190  0.13520  0.28060  Biso   1.000  H
  H74      1.0000 0.84810  0.13520  0.21940  Biso   1.000  H
  H75      1.0000 0.65190  0.63520  0.28060  Biso   1.000  H
  H76      1.0000 0.34810  0.63520  0.21940  Biso   1.000  H
  H77      1.0000 0.84810  0.86480  0.71940  Biso   1.000  H
  H78      1.0000 0.15190  0.86480  0.78060  Biso   1.000  H
  H79      1.0000 0.34810  0.36480  0.71940  Biso   1.000  H
  H80      1.0000 0.65190  0.36480  0.78060  Biso   1.000  H
  C113     1.0000 0.21960  0.13970  0.26740  Biso   1.000  C
  C114     1.0000 0.78040  0.13970  0.23260  Biso   1.000  C
  C115     1.0000 0.71960  0.63970  0.26740  Biso   1.000  C
  C116     1.0000 0.28040  0.63970  0.23260  Biso   1.000  C
  C117     1.0000 0.78040  0.86030  0.73260  Biso   1.000  C
  C118     1.0000 0.21960  0.86030  0.76740  Biso   1.000  C
  C119     1.0000 0.28040  0.36030  0.73260  Biso   1.000  C
  C120     1.0000 0.71960  0.36030  0.76740  Biso   1.000  C
  H81      1.0000 0.24910  0.13200  0.29940  Biso   1.000  H
  H82      1.0000 0.75090  0.13200  0.20060  Biso   1.000  H
  H83      1.0000 0.74910  0.63200  0.29940  Biso   1.000  H
  H84      1.0000 0.25090  0.63200  0.20060  Biso   1.000  H
  H85      1.0000 0.75090  0.86800  0.70060  Biso   1.000  H
  H86      1.0000 0.24910  0.86800  0.79940  Biso   1.000  H
  H87      1.0000 0.25090  0.36800  0.70060  Biso   1.000  H
  H88      1.0000 0.74910  0.36800  0.79940  Biso   1.000  H
  H89      1.0000 0.22710  0.12630  0.24030  Biso   1.000  H
  H90      1.0000 0.77290  0.12630  0.25970  Biso   1.000  H
  H91      1.0000 0.72710  0.62630  0.24030  Biso   1.000  H
  H92      1.0000 0.27290  0.62630  0.25970  Biso   1.000  H
  H93      1.0000 0.77290  0.87370  0.75970  Biso   1.000  H
  H94      1.0000 0.22710  0.87370  0.74030  Biso   1.000  H
  H95      1.0000 0.27290  0.37370  0.75970  Biso   1.000  H
  H96      1.0000 0.72710  0.37370  0.74030  Biso   1.000  H
  C121     1.0000 0.21670  0.19400  0.26150  Biso   1.000  C
  C122     1.0000 0.78330  0.19400  0.23850  Biso   1.000  C
  C123     1.0000 0.71670  0.69400  0.26150  Biso   1.000  C
  C124     1.0000 0.28330  0.69400  0.23850  Biso   1.000  C
  C125     1.0000 0.78330  0.80600  0.73850  Biso   1.000  C
  C126     1.0000 0.21670  0.80600  0.76150  Biso   1.000  C
  C127     1.0000 0.28330  0.30600  0.73850  Biso   1.000  C
  C128     1.0000 0.71670  0.30600  0.76150  Biso   1.000  C
  O17      1.0000 0.17250  0.21365  0.24990  Biso   1.000  O
  O18      1.0000 0.82750  0.21365  0.25010  Biso   1.000  O
  O19      1.0000 0.67250  0.71365  0.24990  Biso   1.000  O
  O20      1.0000 0.32750  0.71365  0.25010  Biso   1.000  O
  O21      1.0000 0.82750  0.78635  0.75010  Biso   1.000  O
  O22      1.0000 0.17250  0.78635  0.74990  Biso   1.000  O
  O23      1.0000 0.32750  0.28635  0.75010  Biso   1.000  O
  O24      1.0000 0.67250  0.28635  0.74990  Biso   1.000  O
  O25      1.0000 0.25949  0.21360  0.27114  Biso   1.000  O
  O26      1.0000 0.74051  0.21360  0.22886  Biso   1.000  O
  O27      1.0000 0.75949  0.71360  0.27114  Biso   1.000  O
  O28      1.0000 0.24051  0.71360  0.22886  Biso   1.000  O
  O29      1.0000 0.74051  0.78640  0.72886  Biso   1.000  O
  O30      1.0000 0.25949  0.78640  0.77114  Biso   1.000  O
  O31      1.0000 0.24051  0.28640  0.72886  Biso   1.000  O
  O32      1.0000 0.75949  0.28640  0.77114  Biso   1.000  O
  C129     1.0000 0.04970  0.52240  0.19440  Biso   1.000  C
  C130     1.0000 0.95030  0.52240  0.30560  Biso   1.000  C
  C131     1.0000 0.54970  0.02240  0.19440  Biso   1.000  C
  C132     1.0000 0.45030  0.02240  0.30560  Biso   1.000  C
  C133     1.0000 0.95030  0.47760  0.80560  Biso   1.000  C
  C134     1.0000 0.04970  0.47760  0.69440  Biso   1.000  C
  C135     1.0000 0.45030  0.97760  0.80560  Biso   1.000  C
  C136     1.0000 0.54970  0.97760  0.69440  Biso   1.000  C
  C137     1.0000 0.99920  0.54180  0.18660  Biso   1.000  C
  C138     1.0000 0.00080  0.54180  0.31340  Biso   1.000  C
  C139     1.0000 0.49920  0.04180  0.18660  Biso   1.000  C
  C140     1.0000 0.50080  0.04180  0.31340  Biso   1.000  C
  C141     1.0000 0.00080  0.45820  0.81340  Biso   1.000  C
  C142     1.0000 0.99920  0.45820  0.68660  Biso   1.000  C
  C143     1.0000 0.50080  0.95820  0.81340  Biso   1.000  C
  C144     1.0000 0.49920  0.95820  0.68660  Biso   1.000  C
  C145     1.0000 0.99060  0.59120  0.18290  Biso   1.000  C
  C146     1.0000 0.00940  0.59120  0.31710  Biso   1.000  C
  C147     1.0000 0.49060  0.09120  0.18290  Biso   1.000  C
  C148     1.0000 0.50940  0.09120  0.31710  Biso   1.000  C
  C149     1.0000 0.00940  0.40880  0.81710  Biso   1.000  C
  C150     1.0000 0.99060  0.40880  0.68290  Biso   1.000  C
  C151     1.0000 0.50940  0.90880  0.81710  Biso   1.000  C
  C152     1.0000 0.49060  0.90880  0.68290  Biso   1.000  C
  C153     1.0000 0.03050  0.62250  0.18480  Biso   1.000  C
  C154     1.0000 0.96950  0.62250  0.31520  Biso   1.000  C
  C155     1.0000 0.53050  0.12250  0.18480  Biso   1.000  C
  C156     1.0000 0.46950  0.12250  0.31520  Biso   1.000  C
  C157     1.0000 0.96950  0.37750  0.81520  Biso   1.000  C
  C158     1.0000 0.03050  0.37750  0.68480  Biso   1.000  C
  C159     1.0000 0.46950  0.87750  0.81520  Biso   1.000  C
  C160     1.0000 0.53050  0.87750  0.68480  Biso   1.000  C
  C161     1.0000 0.08230  0.60470  0.19050  Biso   1.000  C
  C162     1.0000 0.91770  0.60470  0.30950  Biso   1.000  C
  C163     1.0000 0.58230  0.10470  0.19050  Biso   1.000  C
  C164     1.0000 0.41770  0.10470  0.30950  Biso   1.000  C
  C165     1.0000 0.91770  0.39530  0.80950  Biso   1.000  C
  C166     1.0000 0.08230  0.39530  0.69050  Biso   1.000  C
  C167     1.0000 0.41770  0.89530  0.80950  Biso   1.000  C
  C168     1.0000 0.58230  0.89530  0.69050  Biso   1.000  C
  C169     1.0000 0.95860  0.51140  0.18310  Biso   1.000  C
  C170     1.0000 0.04140  0.51140  0.31690  Biso   1.000  C
  C171     1.0000 0.45860  0.01140  0.18310  Biso   1.000  C
  C172     1.0000 0.54140  0.01140  0.31690  Biso   1.000  C
  C173     1.0000 0.04140  0.48860  0.81690  Biso   1.000  C
  C174     1.0000 0.95860  0.48860  0.68310  Biso   1.000  C
  C175     1.0000 0.54140  0.98860  0.81690  Biso   1.000  C
  C176     1.0000 0.45860  0.98860  0.68310  Biso   1.000  C
  H97      1.0000 0.96380  0.47850  0.18670  Biso   1.000  H
  H98      1.0000 0.03620  0.47850  0.31330  Biso   1.000  H
  H99      1.0000 0.46380  0.97850  0.18670  Biso   1.000  H
  H100     1.0000 0.53620  0.97850  0.31330  Biso   1.000  H
  H101     1.0000 0.03620  0.52150  0.81330  Biso   1.000  H
  H102     1.0000 0.96380  0.52150  0.68670  Biso   1.000  H
  H103     1.0000 0.53620  0.02150  0.81330  Biso   1.000  H
  H104     1.0000 0.46380  0.02150  0.68670  Biso   1.000  H
  C177     1.0000 0.90850  0.53210  0.17360  Biso   1.000  C
  C178     1.0000 0.09150  0.53210  0.32640  Biso   1.000  C
  C179     1.0000 0.40850  0.03210  0.17360  Biso   1.000  C
  C180     1.0000 0.59150  0.03210  0.32640  Biso   1.000  C
  C181     1.0000 0.09150  0.46790  0.82640  Biso   1.000  C
  C182     1.0000 0.90850  0.46790  0.67360  Biso   1.000  C
  C183     1.0000 0.59150  0.96790  0.82640  Biso   1.000  C
  C184     1.0000 0.40850  0.96790  0.67360  Biso   1.000  C
  H105     1.0000 0.88000  0.51270  0.16930  Biso   1.000  H
  H106     1.0000 0.12000  0.51270  0.33070  Biso   1.000  H
  H107     1.0000 0.38000  0.01270  0.16930  Biso   1.000  H
  H108     1.0000 0.62000  0.01270  0.33070  Biso   1.000  H
  H109     1.0000 0.12000  0.48730  0.83070  Biso   1.000  H
  H110     1.0000 0.88000  0.48730  0.66930  Biso   1.000  H
  H111     1.0000 0.62000  0.98730  0.83070  Biso   1.000  H
  H112     1.0000 0.38000  0.98730  0.66930  Biso   1.000  H
  C185     1.0000 0.90330  0.58130  0.17110  Biso   1.000  C
  C186     1.0000 0.09670  0.58130  0.32890  Biso   1.000  C
  C187     1.0000 0.40330  0.08130  0.17110  Biso   1.000  C
  C188     1.0000 0.59670  0.08130  0.32890  Biso   1.000  C
  C189     1.0000 0.09670  0.41870  0.82890  Biso   1.000  C
  C190     1.0000 0.90330  0.41870  0.67110  Biso   1.000  C
  C191     1.0000 0.59670  0.91870  0.82890  Biso   1.000  C
  C192     1.0000 0.40330  0.91870  0.67110  Biso   1.000  C
  H113     1.0000 0.87100  0.59370  0.16650  Biso   1.000  H
  H114     1.0000 0.12900  0.59370  0.33350  Biso   1.000  H
  H115     1.0000 0.37100  0.09370  0.16650  Biso   1.000  H
  H116     1.0000 0.62900  0.09370  0.33350  Biso   1.000  H
  H117     1.0000 0.12900  0.40630  0.83350  Biso   1.000  H
  H118     1.0000 0.87100  0.40630  0.66650  Biso   1.000  H
  H119     1.0000 0.62900  0.90630  0.83350  Biso   1.000  H
  H120     1.0000 0.37100  0.90630  0.66650  Biso   1.000  H
  C193     1.0000 0.94210  0.61380  0.17470  Biso   1.000  C
  C194     1.0000 0.05790  0.61380  0.32530  Biso   1.000  C
  C195     1.0000 0.44210  0.11380  0.17470  Biso   1.000  C
  C196     1.0000 0.55790  0.11380  0.32530  Biso   1.000  C
  C197     1.0000 0.05790  0.38620  0.82530  Biso   1.000  C
  C198     1.0000 0.94210  0.38620  0.67470  Biso   1.000  C
  C199     1.0000 0.55790  0.88620  0.82530  Biso   1.000  C
  C200     1.0000 0.44210  0.88620  0.67470  Biso   1.000  C
  C201     1.0000 0.93600  0.66290  0.17240  Biso   1.000  C
  C202     1.0000 0.06400  0.66290  0.32760  Biso   1.000  C
  C203     1.0000 0.43600  0.16290  0.17240  Biso   1.000  C
  C204     1.0000 0.56400  0.16290  0.32760  Biso   1.000  C
  C205     1.0000 0.06400  0.33710  0.82760  Biso   1.000  C
  C206     1.0000 0.93600  0.33710  0.67240  Biso   1.000  C
  C207     1.0000 0.56400  0.83710  0.82760  Biso   1.000  C
  C208     1.0000 0.43600  0.83710  0.67240  Biso   1.000  C
  H121     1.0000 0.90380  0.67590  0.16780  Biso   1.000  H
  H122     1.0000 0.09620  0.67590  0.33220  Biso   1.000  H
  H123     1.0000 0.40380  0.17590  0.16780  Biso   1.000  H
  H124     1.0000 0.59620  0.17590  0.33220  Biso   1.000  H
  H125     1.0000 0.09620  0.32410  0.83220  Biso   1.000  H
  H126     1.0000 0.90380  0.32410  0.66780  Biso   1.000  H
  H127     1.0000 0.59620  0.82410  0.83220  Biso   1.000  H
  H128     1.0000 0.40380  0.82410  0.66780  Biso   1.000  H
  C209     1.0000 0.97490  0.69180  0.17660  Biso   1.000  C
  C210     1.0000 0.02510  0.69180  0.32340  Biso   1.000  C
  C211     1.0000 0.47490  0.19180  0.17660  Biso   1.000  C
  C212     1.0000 0.52510  0.19180  0.32340  Biso   1.000  C
  C213     1.0000 0.02510  0.30820  0.82340  Biso   1.000  C
  C214     1.0000 0.97490  0.30820  0.67660  Biso   1.000  C
  C215     1.0000 0.52510  0.80820  0.82340  Biso   1.000  C
  C216     1.0000 0.47490  0.80820  0.67660  Biso   1.000  C
  H129     1.0000 0.97050  0.72480  0.17580  Biso   1.000  H
  H130     1.0000 0.02950  0.72480  0.32420  Biso   1.000  H
  H131     1.0000 0.47050  0.22480  0.17580  Biso   1.000  H
  H132     1.0000 0.52950  0.22480  0.32420  Biso   1.000  H
  H133     1.0000 0.02950  0.27520  0.82420  Biso   1.000  H
  H134     1.0000 0.97050  0.27520  0.67580  Biso   1.000  H
  H135     1.0000 0.52950  0.77520  0.82420  Biso   1.000  H
  H136     1.0000 0.47050  0.77520  0.67580  Biso   1.000  H
  C217     1.0000 0.02330  0.67170  0.18230  Biso   1.000  C
  C218     1.0000 0.97670  0.67170  0.31770  Biso   1.000  C
  C219     1.0000 0.52330  0.17170  0.18230  Biso   1.000  C
  C220     1.0000 0.47670  0.17170  0.31770  Biso   1.000  C
  C221     1.0000 0.97670  0.32830  0.81770  Biso   1.000  C
  C222     1.0000 0.02330  0.32830  0.68230  Biso   1.000  C
  C223     1.0000 0.47670  0.82830  0.81770  Biso   1.000  C
  C224     1.0000 0.52330  0.82830  0.68230  Biso   1.000  C
  H137     1.0000 0.05050  0.69180  0.18440  Biso   1.000  H
  H138     1.0000 0.94950  0.69180  0.31560  Biso   1.000  H
  H139     1.0000 0.55050  0.19180  0.18440  Biso   1.000  H
  H140     1.0000 0.44950  0.19180  0.31560  Biso   1.000  H
  H141     1.0000 0.94950  0.30820  0.81560  Biso   1.000  H
  H142     1.0000 0.05050  0.30820  0.68440  Biso   1.000  H
  H143     1.0000 0.44950  0.80820  0.81560  Biso   1.000  H
  H144     1.0000 0.55050  0.80820  0.68440  Biso   1.000  H
  N9       1.0000 0.08720  0.55490  0.19480  Biso   1.000  N
  N10      1.0000 0.91280  0.55490  0.30520  Biso   1.000  N
  N11      1.0000 0.58720  0.05490  0.19480  Biso   1.000  N
  N12      1.0000 0.41280  0.05490  0.30520  Biso   1.000  N
  N13      1.0000 0.91280  0.44510  0.80520  Biso   1.000  N
  N14      1.0000 0.08720  0.44510  0.69480  Biso   1.000  N
  N15      1.0000 0.41280  0.94510  0.80520  Biso   1.000  N
  N16      1.0000 0.58720  0.94510  0.69480  Biso   1.000  N
  O33      1.0000 0.06040  0.48020  0.20150  Biso   1.000  O
  O34      1.0000 0.93960  0.48020  0.29850  Biso   1.000  O
  O35      1.0000 0.56040  0.98020  0.20150  Biso   1.000  O
  O36      1.0000 0.43960  0.98020  0.29850  Biso   1.000  O
  O37      1.0000 0.93960  0.51980  0.79850  Biso   1.000  O
  O38      1.0000 0.06040  0.51980  0.70150  Biso   1.000  O
  O39      1.0000 0.43960  0.01980  0.79850  Biso   1.000  O
  O40      1.0000 0.56040  0.01980  0.70150  Biso   1.000  O
  O41      1.0000 0.11810  0.62920  0.19230  Biso   1.000  O
  O42      1.0000 0.88190  0.62920  0.30770  Biso   1.000  O
  O43      1.0000 0.61810  0.12920  0.19230  Biso   1.000  O
  O44      1.0000 0.38190  0.12920  0.30770  Biso   1.000  O
  O45      1.0000 0.88190  0.37080  0.80770  Biso   1.000  O
  O46      1.0000 0.11810  0.37080  0.69230  Biso   1.000  O
  O47      1.0000 0.38190  0.87080  0.80770  Biso   1.000  O
  O48      1.0000 0.61810  0.87080  0.69230  Biso   1.000  O
  O49      1.0000 0.21487  0.43650  0.29019  Biso   1.000  O
  O50      1.0000 0.78513  0.43650  0.20981  Biso   1.000  O
  O51      1.0000 0.71487  0.93650  0.29019  Biso   1.000  O
  O52      1.0000 0.28513  0.93650  0.20981  Biso   1.000  O
  O53      1.0000 0.78513  0.56350  0.70981  Biso   1.000  O
  O54      1.0000 0.21487  0.56350  0.79019  Biso   1.000  O
  O55      1.0000 0.28513  0.06350  0.70981  Biso   1.000  O
  O56      1.0000 0.71487  0.06350  0.79019  Biso   1.000  O
  O57      1.0000 0.22654  0.43409  0.21826  Biso   1.000  O
  O58      1.0000 0.77346  0.43409  0.28174  Biso   1.000  O
  O59      1.0000 0.72654  0.93409  0.21826  Biso   1.000  O
  O60      1.0000 0.27346  0.93409  0.28174  Biso   1.000  O
  O61      1.0000 0.77346  0.56591  0.78174  Biso   1.000  O
  O62      1.0000 0.22654  0.56591  0.71826  Biso   1.000  O
  O63      1.0000 0.27346  0.06591  0.78174  Biso   1.000  O
  O64      1.0000 0.72654  0.06591  0.71826  Biso   1.000  O
  C225     1.0000 0.13760  0.53450  0.19910  Biso   1.000  C
  C226     1.0000 0.86240  0.53450  0.30090  Biso   1.000  C
  C227     1.0000 0.63760  0.03450  0.19910  Biso   1.000  C
  C228     1.0000 0.36240  0.03450  0.30090  Biso   1.000  C
  C229     1.0000 0.86240  0.46550  0.80090  Biso   1.000  C
  C230     1.0000 0.13760  0.46550  0.69910  Biso   1.000  C
  C231     1.0000 0.36240  0.96550  0.80090  Biso   1.000  C
  C232     1.0000 0.63760  0.96550  0.69910  Biso   1.000  C
  H145     1.0000 0.14990  0.55280  0.17780  Biso   1.000  H
  H146     1.0000 0.85010  0.55280  0.32220  Biso   1.000  H
  H147     1.0000 0.64990  0.05280  0.17780  Biso   1.000  H
  H148     1.0000 0.35010  0.05280  0.32220  Biso   1.000  H
  H149     1.0000 0.85010  0.44720  0.82220  Biso   1.000  H
  H150     1.0000 0.14990  0.44720  0.67780  Biso   1.000  H
  H151     1.0000 0.35010  0.94720  0.82220  Biso   1.000  H
  H152     1.0000 0.64990  0.94720  0.67780  Biso   1.000  H
  H153     1.0000 0.13190  0.50180  0.18660  Biso   1.000  H
  H154     1.0000 0.86810  0.50180  0.31340  Biso   1.000  H
  H155     1.0000 0.63190  0.00180  0.18660  Biso   1.000  H
  H156     1.0000 0.36810  0.00180  0.31340  Biso   1.000  H
  H157     1.0000 0.86810  0.49820  0.81340  Biso   1.000  H
  H158     1.0000 0.13190  0.49820  0.68660  Biso   1.000  H
  H159     1.0000 0.36810  0.99820  0.81340  Biso   1.000  H
  H160     1.0000 0.63190  0.99820  0.68660  Biso   1.000  H
  C233     1.0000 0.18000  0.53500  0.25420  Biso   1.000  C
  C234     1.0000 0.82000  0.53500  0.24580  Biso   1.000  C
  C235     1.0000 0.68000  0.03500  0.25420  Biso   1.000  C
  C236     1.0000 0.32000  0.03500  0.24580  Biso   1.000  C
  C237     1.0000 0.82000  0.46500  0.74580  Biso   1.000  C
  C238     1.0000 0.18000  0.46500  0.75420  Biso   1.000  C
  C239     1.0000 0.32000  0.96500  0.74580  Biso   1.000  C
  C240     1.0000 0.68000  0.96500  0.75420  Biso   1.000  C
  H161     1.0000 0.18820  0.56780  0.26590  Biso   1.000  H
  H162     1.0000 0.81180  0.56780  0.23410  Biso   1.000  H
  H163     1.0000 0.68820  0.06780  0.26590  Biso   1.000  H
  H164     1.0000 0.31180  0.06780  0.23410  Biso   1.000  H
  H165     1.0000 0.81180  0.43220  0.73410  Biso   1.000  H
  H166     1.0000 0.18820  0.43220  0.76590  Biso   1.000  H
  H167     1.0000 0.31180  0.93220  0.73410  Biso   1.000  H
  H168     1.0000 0.68820  0.93220  0.76590  Biso   1.000  H
  H169     1.0000 0.16700  0.51890  0.27620  Biso   1.000  H
  H170     1.0000 0.83300  0.51890  0.22380  Biso   1.000  H
  H171     1.0000 0.66700  0.01890  0.27620  Biso   1.000  H
  H172     1.0000 0.33300  0.01890  0.22380  Biso   1.000  H
  H173     1.0000 0.83300  0.48110  0.72380  Biso   1.000  H
  H174     1.0000 0.16700  0.48110  0.77620  Biso   1.000  H
  H175     1.0000 0.33300  0.98110  0.72380  Biso   1.000  H
  H176     1.0000 0.66700  0.98110  0.77620  Biso   1.000  H
  C241     1.0000 0.22950  0.51000  0.25750  Biso   1.000  C
  C242     1.0000 0.77050  0.51000  0.24250  Biso   1.000  C
  C243     1.0000 0.72950  0.01000  0.25750  Biso   1.000  C
  C244     1.0000 0.27050  0.01000  0.24250  Biso   1.000  C
  C245     1.0000 0.77050  0.49000  0.74250  Biso   1.000  C
  C246     1.0000 0.22950  0.49000  0.75750  Biso   1.000  C
  C247     1.0000 0.27050  0.99000  0.74250  Biso   1.000  C
  C248     1.0000 0.72950  0.99000  0.75750  Biso   1.000  C
  H177     1.0000 0.25890  0.51850  0.28930  Biso   1.000  H
  H178     1.0000 0.74110  0.51850  0.21070  Biso   1.000  H
  H179     1.0000 0.75890  0.01850  0.28930  Biso   1.000  H
  H180     1.0000 0.24110  0.01850  0.21070  Biso   1.000  H
  H181     1.0000 0.74110  0.48150  0.71070  Biso   1.000  H
  H182     1.0000 0.25890  0.48150  0.78930  Biso   1.000  H
  H183     1.0000 0.24110  0.98150  0.71070  Biso   1.000  H
  H184     1.0000 0.75890  0.98150  0.78930  Biso   1.000  H
  H185     1.0000 0.23750  0.52080  0.22980  Biso   1.000  H
  H186     1.0000 0.76250  0.52080  0.27020  Biso   1.000  H
  H187     1.0000 0.73750  0.02080  0.22980  Biso   1.000  H
  H188     1.0000 0.26250  0.02080  0.27020  Biso   1.000  H
  H189     1.0000 0.76250  0.47920  0.77020  Biso   1.000  H
  H190     1.0000 0.23750  0.47920  0.72980  Biso   1.000  H
  H191     1.0000 0.26250  0.97920  0.77020  Biso   1.000  H
  H192     1.0000 0.73750  0.97920  0.72980  Biso   1.000  H
  C249     1.0000 0.22270  0.45570  0.25460  Biso   1.000  C
  C250     1.0000 0.77730  0.45570  0.24540  Biso   1.000  C
  C251     1.0000 0.72270  0.95570  0.25460  Biso   1.000  C
  C252     1.0000 0.27730  0.95570  0.24540  Biso   1.000  C
  C253     1.0000 0.77730  0.54430  0.74540  Biso   1.000  C
  C254     1.0000 0.22270  0.54430  0.75460  Biso   1.000  C
  C255     1.0000 0.27730  0.04430  0.74540  Biso   1.000  C
  C256     1.0000 0.72270  0.04430  0.75460  Biso   1.000  C
  C257     1.0000 0.41740  0.49610  0.53920  Biso   1.000  C
  C258     1.0000 0.58260  0.49610  0.96080  Biso   1.000  C
  C259     1.0000 0.91740  0.99610  0.53920  Biso   1.000  C
  C260     1.0000 0.08260  0.99610  0.96080  Biso   1.000  C
  C261     1.0000 0.58260  0.50390  0.46080  Biso   1.000  C
  C262     1.0000 0.41740  0.50390  0.03920  Biso   1.000  C
  C263     1.0000 0.08260  0.00390  0.46080  Biso   1.000  C
  C264     1.0000 0.91740  0.00390  0.03920  Biso   1.000  C
  C265     1.0000 0.47230  0.51340  0.55390  Biso   1.000  C
  C266     1.0000 0.52770  0.51340  0.94610  Biso   1.000  C
  C267     1.0000 0.97230  0.01340  0.55390  Biso   1.000  C
  C268     1.0000 0.02770  0.01340  0.94610  Biso   1.000  C
  C269     1.0000 0.52770  0.48660  0.44610  Biso   1.000  C
  C270     1.0000 0.47230  0.48660  0.05390  Biso   1.000  C
  C271     1.0000 0.02770  0.98660  0.44610  Biso   1.000  C
  C272     1.0000 0.97230  0.98660  0.05390  Biso   1.000  C
  C273     1.0000 0.51260  0.48050  0.56450  Biso   1.000  C
  C274     1.0000 0.48740  0.48050  0.93550  Biso   1.000  C
  C275     1.0000 0.01260  0.98050  0.56450  Biso   1.000  C
  C276     1.0000 0.98740  0.98050  0.93550  Biso   1.000  C
  C277     1.0000 0.48740  0.51950  0.43550  Biso   1.000  C
  C278     1.0000 0.51260  0.51950  0.06450  Biso   1.000  C
  C279     1.0000 0.98740  0.01950  0.43550  Biso   1.000  C
  C280     1.0000 0.01260  0.01950  0.06450  Biso   1.000  C
  C281     1.0000 0.50290  0.43200  0.56170  Biso   1.000  C
  C282     1.0000 0.49710  0.43200  0.93830  Biso   1.000  C
  C283     1.0000 0.00290  0.93200  0.56170  Biso   1.000  C
  C284     1.0000 0.99710  0.93200  0.93830  Biso   1.000  C
  C285     1.0000 0.49710  0.56800  0.43830  Biso   1.000  C
  C286     1.0000 0.50290  0.56800  0.06170  Biso   1.000  C
  C287     1.0000 0.99710  0.06800  0.43830  Biso   1.000  C
  C288     1.0000 0.00290  0.06800  0.06170  Biso   1.000  C
  C289     1.0000 0.45020  0.41380  0.54850  Biso   1.000  C
  C290     1.0000 0.54980  0.41380  0.95150  Biso   1.000  C
  C291     1.0000 0.95020  0.91380  0.54850  Biso   1.000  C
  C292     1.0000 0.04980  0.91380  0.95150  Biso   1.000  C
  C293     1.0000 0.54980  0.58620  0.45150  Biso   1.000  C
  C294     1.0000 0.45020  0.58620  0.04850  Biso   1.000  C
  C295     1.0000 0.04980  0.08620  0.45150  Biso   1.000  C
  C296     1.0000 0.95020  0.08620  0.04850  Biso   1.000  C
  C297     1.0000 0.48060  0.56150  0.55650  Biso   1.000  C
  C298     1.0000 0.51940  0.56150  0.94350  Biso   1.000  C
  C299     1.0000 0.98060  0.06150  0.55650  Biso   1.000  C
  C300     1.0000 0.01940  0.06150  0.94350  Biso   1.000  C
  C301     1.0000 0.51940  0.43850  0.44350  Biso   1.000  C
  C302     1.0000 0.48060  0.43850  0.05650  Biso   1.000  C
  C303     1.0000 0.01940  0.93850  0.44350  Biso   1.000  C
  C304     1.0000 0.98060  0.93850  0.05650  Biso   1.000  C
  H193     1.0000 0.45290  0.58290  0.54850  Biso   1.000  H
  H194     1.0000 0.54710  0.58290  0.95150  Biso   1.000  H
  H195     1.0000 0.95290  0.08290  0.54850  Biso   1.000  H
  H196     1.0000 0.04710  0.08290  0.95150  Biso   1.000  H
  H197     1.0000 0.54710  0.41710  0.45150  Biso   1.000  H
  H198     1.0000 0.45290  0.41710  0.04850  Biso   1.000  H
  H199     1.0000 0.04710  0.91710  0.45150  Biso   1.000  H
  H200     1.0000 0.95290  0.91710  0.04850  Biso   1.000  H
  C305     1.0000 0.53210  0.57750  0.57180  Biso   1.000  C
  C306     1.0000 0.46790  0.57750  0.92820  Biso   1.000  C
  C307     1.0000 0.03210  0.07750  0.57180  Biso   1.000  C
  C308     1.0000 0.96790  0.07750  0.92820  Biso   1.000  C
  C309     1.0000 0.46790  0.42250  0.42820  Biso   1.000  C
  C310     1.0000 0.53210  0.42250  0.07180  Biso   1.000  C
  C311     1.0000 0.96790  0.92250  0.42820  Biso   1.000  C
  C312     1.0000 0.03210  0.92250  0.07180  Biso   1.000  C
  H201     1.0000 0.53860  0.61020  0.57530  Biso   1.000  H
  H202     1.0000 0.46140  0.61020  0.92470  Biso   1.000  H
  H203     1.0000 0.03860  0.11020  0.57530  Biso   1.000  H
  H204     1.0000 0.96140  0.11020  0.92470  Biso   1.000  H
  H205     1.0000 0.46140  0.38980  0.42470  Biso   1.000  H
  H206     1.0000 0.53860  0.38980  0.07530  Biso   1.000  H
  H207     1.0000 0.96140  0.88980  0.42470  Biso   1.000  H
  H208     1.0000 0.03860  0.88980  0.07530  Biso   1.000  H
  C313     1.0000 0.57090  0.54900  0.58100  Biso   1.000  C
  C314     1.0000 0.42910  0.54900  0.91900  Biso   1.000  C
  C315     1.0000 0.07090  0.04900  0.58100  Biso   1.000  C
  C316     1.0000 0.92910  0.04900  0.91900  Biso   1.000  C
  C317     1.0000 0.42910  0.45100  0.41900  Biso   1.000  C
  C318     1.0000 0.57090  0.45100  0.08100  Biso   1.000  C
  C319     1.0000 0.92910  0.95100  0.41900  Biso   1.000  C
  C320     1.0000 0.07090  0.95100  0.08100  Biso   1.000  C
  H209     1.0000 0.60410  0.56180  0.58940  Biso   1.000  H
  H210     1.0000 0.39590  0.56180  0.91060  Biso   1.000  H
  H211     1.0000 0.10410  0.06180  0.58940  Biso   1.000  H
  H212     1.0000 0.89590  0.06180  0.91060  Biso   1.000  H
  H213     1.0000 0.39590  0.43820  0.41060  Biso   1.000  H
  H214     1.0000 0.60410  0.43820  0.08940  Biso   1.000  H
  H215     1.0000 0.89590  0.93820  0.41060  Biso   1.000  H
  H216     1.0000 0.10410  0.93820  0.08940  Biso   1.000  H
  C321     1.0000 0.56460  0.49950  0.57870  Biso   1.000  C
  C322     1.0000 0.43540  0.49950  0.92130  Biso   1.000  C
  C323     1.0000 0.06460  0.99950  0.57870  Biso   1.000  C
  C324     1.0000 0.93540  0.99950  0.92130  Biso   1.000  C
  C325     1.0000 0.43540  0.50050  0.42130  Biso   1.000  C
  C326     1.0000 0.56460  0.50050  0.07870  Biso   1.000  C
  C327     1.0000 0.93540  0.00050  0.42130  Biso   1.000  C
  C328     1.0000 0.06460  0.00050  0.07870  Biso   1.000  C
  C329     1.0000 0.60360  0.46510  0.58780  Biso   1.000  C
  C330     1.0000 0.39640  0.46510  0.91220  Biso   1.000  C
  C331     1.0000 0.10360  0.96510  0.58780  Biso   1.000  C
  C332     1.0000 0.89640  0.96510  0.91220  Biso   1.000  C
  C333     1.0000 0.39640  0.53490  0.41220  Biso   1.000  C
  C334     1.0000 0.60360  0.53490  0.08780  Biso   1.000  C
  C335     1.0000 0.89640  0.03490  0.41220  Biso   1.000  C
  C336     1.0000 0.10360  0.03490  0.08780  Biso   1.000  C
  H217     1.0000 0.63800  0.47510  0.59700  Biso   1.000  H
  H218     1.0000 0.36200  0.47510  0.90300  Biso   1.000  H
  H219     1.0000 0.13800  0.97510  0.59700  Biso   1.000  H
  H220     1.0000 0.86200  0.97510  0.90300  Biso   1.000  H
  H221     1.0000 0.36200  0.52490  0.40300  Biso   1.000  H
  H222     1.0000 0.63800  0.52490  0.09700  Biso   1.000  H
  H223     1.0000 0.86200  0.02490  0.40300  Biso   1.000  H
  H224     1.0000 0.13800  0.02490  0.09700  Biso   1.000  H
  C337     1.0000 0.59280  0.41710  0.58370  Biso   1.000  C
  C338     1.0000 0.40720  0.41710  0.91630  Biso   1.000  C
  C339     1.0000 0.09280  0.91710  0.58370  Biso   1.000  C
  C340     1.0000 0.90720  0.91710  0.91630  Biso   1.000  C
  C341     1.0000 0.40720  0.58290  0.41630  Biso   1.000  C
  C342     1.0000 0.59280  0.58290  0.08370  Biso   1.000  C
  C343     1.0000 0.90720  0.08290  0.41630  Biso   1.000  C
  C344     1.0000 0.09280  0.08290  0.08370  Biso   1.000  C
  H225     1.0000 0.61990  0.39530  0.59000  Biso   1.000  H
  H226     1.0000 0.38010  0.39530  0.91000  Biso   1.000  H
  H227     1.0000 0.11990  0.89530  0.59000  Biso   1.000  H
  H228     1.0000 0.88010  0.89530  0.91000  Biso   1.000  H
  H229     1.0000 0.38010  0.60470  0.41000  Biso   1.000  H
  H230     1.0000 0.61990  0.60470  0.09000  Biso   1.000  H
  H231     1.0000 0.88010  0.10470  0.41000  Biso   1.000  H
  H232     1.0000 0.11990  0.10470  0.09000  Biso   1.000  H
  C345     1.0000 0.54200  0.40010  0.57030  Biso   1.000  C
  C346     1.0000 0.45800  0.40010  0.92970  Biso   1.000  C
  C347     1.0000 0.04200  0.90010  0.57030  Biso   1.000  C
  C348     1.0000 0.95800  0.90010  0.92970  Biso   1.000  C
  C349     1.0000 0.45800  0.59990  0.42970  Biso   1.000  C
  C350     1.0000 0.54200  0.59990  0.07030  Biso   1.000  C
  C351     1.0000 0.95800  0.09990  0.42970  Biso   1.000  C
  C352     1.0000 0.04200  0.09990  0.07030  Biso   1.000  C
  H233     1.0000 0.53500  0.36740  0.56740  Biso   1.000  H
  H234     1.0000 0.46500  0.36740  0.93260  Biso   1.000  H
  H235     1.0000 0.03500  0.86740  0.56740  Biso   1.000  H
  H236     1.0000 0.96500  0.86740  0.93260  Biso   1.000  H
  H237     1.0000 0.46500  0.63260  0.43260  Biso   1.000  H
  H238     1.0000 0.53500  0.63260  0.06740  Biso   1.000  H
  H239     1.0000 0.96500  0.13260  0.43260  Biso   1.000  H
  H240     1.0000 0.03500  0.13260  0.06740  Biso   1.000  H
  N17      1.0000 0.41110  0.44710  0.53877  Biso   1.000  N
  N18      1.0000 0.58890  0.44710  0.96123  Biso   1.000  N
  N19      1.0000 0.91110  0.94710  0.53877  Biso   1.000  N
  N20      1.0000 0.08890  0.94710  0.96123  Biso   1.000  N
  N21      1.0000 0.58890  0.55290  0.46123  Biso   1.000  N
  N22      1.0000 0.41110  0.55290  0.03877  Biso   1.000  N
  N23      1.0000 0.08890  0.05290  0.46123  Biso   1.000  N
  N24      1.0000 0.91110  0.05290  0.03877  Biso   1.000  N
  O65      1.0000 0.38000  0.52250  0.52730  Biso   1.000  O
  O66      1.0000 0.62000  0.52250  0.97270  Biso   1.000  O
  O67      1.0000 0.88000  0.02250  0.52730  Biso   1.000  O
  O68      1.0000 0.12000  0.02250  0.97270  Biso   1.000  O
  O69      1.0000 0.62000  0.47750  0.47270  Biso   1.000  O
  O70      1.0000 0.38000  0.47750  0.02730  Biso   1.000  O
  O71      1.0000 0.12000  0.97750  0.47270  Biso   1.000  O
  O72      1.0000 0.88000  0.97750  0.02730  Biso   1.000  O
  O73      1.0000 0.43950  0.37090  0.54530  Biso   1.000  O
  O74      1.0000 0.56050  0.37090  0.95470  Biso   1.000  O
  O75      1.0000 0.93950  0.87090  0.54530  Biso   1.000  O
  O76      1.0000 0.06050  0.87090  0.95470  Biso   1.000  O
  O77      1.0000 0.56050  0.62910  0.45470  Biso   1.000  O
  O78      1.0000 0.43950  0.62910  0.04530  Biso   1.000  O
  O79      1.0000 0.06050  0.12910  0.45470  Biso   1.000  O
  O80      1.0000 0.93950  0.12910  0.04530  Biso   1.000  O
  O81      1.0000 0.25897  0.38038  0.37563  Biso   1.000  O
  O82      1.0000 0.74103  0.38038  0.12437  Biso   1.000  O
  O83      1.0000 0.75897  0.88038  0.37563  Biso   1.000  O
  O84      1.0000 0.24103  0.88038  0.12437  Biso   1.000  O
  O85      1.0000 0.74103  0.61962  0.62437  Biso   1.000  O
  O86      1.0000 0.25897  0.61962  0.87563  Biso   1.000  O
  O87      1.0000 0.24103  0.11962  0.62437  Biso   1.000  O
  O88      1.0000 0.75897  0.11962  0.87563  Biso   1.000  O
  O89      1.0000 0.18910  0.38710  0.38990  Biso   1.000  O
  O90      1.0000 0.81090  0.38710  0.11010  Biso   1.000  O
  O91      1.0000 0.68910  0.88710  0.38990  Biso   1.000  O
  O92      1.0000 0.31090  0.88710  0.11010  Biso   1.000  O
  O93      1.0000 0.81090  0.61290  0.61010  Biso   1.000  O
  O94      1.0000 0.18910  0.61290  0.88990  Biso   1.000  O
  O95      1.0000 0.31090  0.11290  0.61010  Biso   1.000  O
  O96      1.0000 0.68910  0.11290  0.88990  Biso   1.000  O
  C353     1.0000 0.35820  0.42740  0.52720  Biso   1.000  C
  C354     1.0000 0.64180  0.42740  0.97280  Biso   1.000  C
  C355     1.0000 0.85820  0.92740  0.52720  Biso   1.000  C
  C356     1.0000 0.14180  0.92740  0.97280  Biso   1.000  C
  C357     1.0000 0.64180  0.57260  0.47280  Biso   1.000  C
  C358     1.0000 0.35820  0.57260  0.02720  Biso   1.000  C
  C359     1.0000 0.14180  0.07260  0.47280  Biso   1.000  C
  C360     1.0000 0.85820  0.07260  0.02720  Biso   1.000  C
  H241     1.0000 0.33900  0.45000  0.53840  Biso   1.000  H
  H242     1.0000 0.66100  0.45000  0.96160  Biso   1.000  H
  H243     1.0000 0.83900  0.95000  0.53840  Biso   1.000  H
  H244     1.0000 0.16100  0.95000  0.96160  Biso   1.000  H
  H245     1.0000 0.66100  0.55000  0.46160  Biso   1.000  H
  H246     1.0000 0.33900  0.55000  0.03840  Biso   1.000  H
  H247     1.0000 0.16100  0.05000  0.46160  Biso   1.000  H
  H248     1.0000 0.83900  0.05000  0.03840  Biso   1.000  H
  H249     1.0000 0.36190  0.39790  0.54610  Biso   1.000  H
  H250     1.0000 0.63810  0.39790  0.95390  Biso   1.000  H
  H251     1.0000 0.86190  0.89790  0.54610  Biso   1.000  H
  H252     1.0000 0.13810  0.89790  0.95390  Biso   1.000  H
  H253     1.0000 0.63810  0.60210  0.45390  Biso   1.000  H
  H254     1.0000 0.36190  0.60210  0.04610  Biso   1.000  H
  H255     1.0000 0.13810  0.10210  0.45390  Biso   1.000  H
  H256     1.0000 0.86190  0.10210  0.04610  Biso   1.000  H
  C361     1.0000 0.32670  0.41750  0.46990  Biso   1.000  C
  C362     1.0000 0.67330  0.41750  0.03010  Biso   1.000  C
  C363     1.0000 0.82670  0.91750  0.46990  Biso   1.000  C
  C364     1.0000 0.17330  0.91750  0.03010  Biso   1.000  C
  C365     1.0000 0.67330  0.58250  0.53010  Biso   1.000  C
  C366     1.0000 0.32670  0.58250  0.96990  Biso   1.000  C
  C367     1.0000 0.17330  0.08250  0.53010  Biso   1.000  C
  C368     1.0000 0.82670  0.08250  0.96990  Biso   1.000  C
  H257     1.0000 0.32450  0.44660  0.45080  Biso   1.000  H
  H258     1.0000 0.67550  0.44660  0.04920  Biso   1.000  H
  H259     1.0000 0.82450  0.94660  0.45080  Biso   1.000  H
  H260     1.0000 0.17550  0.94660  0.04920  Biso   1.000  H
  H261     1.0000 0.67550  0.55340  0.54920  Biso   1.000  H
  H262     1.0000 0.32450  0.55340  0.95080  Biso   1.000  H
  H263     1.0000 0.17550  0.05340  0.54920  Biso   1.000  H
  H264     1.0000 0.82450  0.05340  0.95080  Biso   1.000  H
  H265     1.0000 0.34470  0.39350  0.45910  Biso   1.000  H
  H266     1.0000 0.65530  0.39350  0.04090  Biso   1.000  H
  H267     1.0000 0.84470  0.89350  0.45910  Biso   1.000  H
  H268     1.0000 0.15530  0.89350  0.04090  Biso   1.000  H
  H269     1.0000 0.65530  0.60650  0.54090  Biso   1.000  H
  H270     1.0000 0.34470  0.60650  0.95910  Biso   1.000  H
  H271     1.0000 0.15530  0.10650  0.54090  Biso   1.000  H
  H272     1.0000 0.84470  0.10650  0.95910  Biso   1.000  H
  C369     1.0000 0.27190  0.40030  0.45890  Biso   1.000  C
  C370     1.0000 0.72810  0.40030  0.04110  Biso   1.000  C
  C371     1.0000 0.77190  0.90030  0.45890  Biso   1.000  C
  C372     1.0000 0.22810  0.90030  0.04110  Biso   1.000  C
  C373     1.0000 0.72810  0.59970  0.54110  Biso   1.000  C
  C374     1.0000 0.27190  0.59970  0.95890  Biso   1.000  C
  C375     1.0000 0.22810  0.09970  0.54110  Biso   1.000  C
  C376     1.0000 0.77190  0.09970  0.95890  Biso   1.000  C
  H273     1.0000 0.27500  0.37190  0.47930  Biso   1.000  H
  H274     1.0000 0.72500  0.37190  0.02070  Biso   1.000  H
  H275     1.0000 0.77500  0.87190  0.47930  Biso   1.000  H
  H276     1.0000 0.22500  0.87190  0.02070  Biso   1.000  H
  H277     1.0000 0.72500  0.62810  0.52070  Biso   1.000  H
  H278     1.0000 0.27500  0.62810  0.97930  Biso   1.000  H
  H279     1.0000 0.22500  0.12810  0.52070  Biso   1.000  H
  H280     1.0000 0.77500  0.12810  0.97930  Biso   1.000  H
  H281     1.0000 0.25480  0.42470  0.47020  Biso   1.000  H
  H282     1.0000 0.74520  0.42470  0.02980  Biso   1.000  H
  H283     1.0000 0.75480  0.92470  0.47020  Biso   1.000  H
  H284     1.0000 0.24520  0.92470  0.02980  Biso   1.000  H
  H285     1.0000 0.74520  0.57530  0.52980  Biso   1.000  H
  H286     1.0000 0.25480  0.57530  0.97020  Biso   1.000  H
  H287     1.0000 0.24520  0.07530  0.52980  Biso   1.000  H
  H288     1.0000 0.75480  0.07530  0.97020  Biso   1.000  H
  C377     1.0000 0.23680  0.38850  0.40410  Biso   1.000  C
  C378     1.0000 0.76320  0.38850  0.09590  Biso   1.000  C
  C379     1.0000 0.73680  0.88850  0.40410  Biso   1.000  C
  C380     1.0000 0.26320  0.88850  0.09590  Biso   1.000  C
  C381     1.0000 0.76320  0.61150  0.59590  Biso   1.000  C
  C382     1.0000 0.23680  0.61150  0.90410  Biso   1.000  C
  C383     1.0000 0.26320  0.11150  0.59590  Biso   1.000  C
  C384     1.0000 0.73680  0.11150  0.90410  Biso   1.000  C
  C385     1.0000 0.03280  0.40350  0.95460  Biso   1.000  C
  C386     1.0000 0.96720  0.40350  0.54540  Biso   1.000  C
  C387     1.0000 0.53280  0.90350  0.95460  Biso   1.000  C
  C388     1.0000 0.46720  0.90350  0.54540  Biso   1.000  C
  C389     1.0000 0.96720  0.59650  0.04540  Biso   1.000  C
  C390     1.0000 0.03280  0.59650  0.45460  Biso   1.000  C
  C391     1.0000 0.46720  0.09650  0.04540  Biso   1.000  C
  C392     1.0000 0.53280  0.09650  0.45460  Biso   1.000  C
  C393     1.0000 0.00640  0.44820  0.94370  Biso   1.000  C
  C394     1.0000 0.99360  0.44820  0.55630  Biso   1.000  C
  C395     1.0000 0.50640  0.94820  0.94370  Biso   1.000  C
  C396     1.0000 0.49360  0.94820  0.55630  Biso   1.000  C
  C397     1.0000 0.99360  0.55180  0.05630  Biso   1.000  C
  C398     1.0000 0.00640  0.55180  0.44370  Biso   1.000  C
  C399     1.0000 0.49360  0.05180  0.05630  Biso   1.000  C
  C400     1.0000 0.50640  0.05180  0.44370  Biso   1.000  C
  C401     1.0000 0.02660  0.49190  0.93820  Biso   1.000  C
  C402     1.0000 0.97340  0.49190  0.56180  Biso   1.000  C
  C403     1.0000 0.52660  0.99190  0.93820  Biso   1.000  C
  C404     1.0000 0.47340  0.99190  0.56180  Biso   1.000  C
  C405     1.0000 0.97340  0.50810  0.06180  Biso   1.000  C
  C406     1.0000 0.02660  0.50810  0.43820  Biso   1.000  C
  C407     1.0000 0.47340  0.00810  0.06180  Biso   1.000  C
  C408     1.0000 0.52660  0.00810  0.43820  Biso   1.000  C
  C409     1.0000 0.08010  0.49280  0.94700  Biso   1.000  C
  C410     1.0000 0.91990  0.49280  0.55300  Biso   1.000  C
  C411     1.0000 0.58010  0.99280  0.94700  Biso   1.000  C
  C412     1.0000 0.41990  0.99280  0.55300  Biso   1.000  C
  C413     1.0000 0.91990  0.50720  0.05300  Biso   1.000  C
  C414     1.0000 0.08010  0.50720  0.44700  Biso   1.000  C
  C415     1.0000 0.41990  0.00720  0.05300  Biso   1.000  C
  C416     1.0000 0.58010  0.00720  0.44700  Biso   1.000  C
  C417     1.0000 0.10790  0.44740  0.95170  Biso   1.000  C
  C418     1.0000 0.89210  0.44740  0.54830  Biso   1.000  C
  C419     1.0000 0.60790  0.94740  0.95170  Biso   1.000  C
  C420     1.0000 0.39210  0.94740  0.54830  Biso   1.000  C
  C421     1.0000 0.89210  0.55260  0.04830  Biso   1.000  C
  C422     1.0000 0.10790  0.55260  0.45170  Biso   1.000  C
  C423     1.0000 0.39210  0.05260  0.04830  Biso   1.000  C
  C424     1.0000 0.60790  0.05260  0.45170  Biso   1.000  C
  C425     1.0000 0.95560  0.45010  0.93870  Biso   1.000  C
  C426     1.0000 0.04440  0.45010  0.56130  Biso   1.000  C
  C427     1.0000 0.45560  0.95010  0.93870  Biso   1.000  C
  C428     1.0000 0.54440  0.95010  0.56130  Biso   1.000  C
  C429     1.0000 0.04440  0.54990  0.06130  Biso   1.000  C
  C430     1.0000 0.95560  0.54990  0.43870  Biso   1.000  C
  C431     1.0000 0.54440  0.04990  0.06130  Biso   1.000  C
  C432     1.0000 0.45560  0.04990  0.43870  Biso   1.000  C
  H289     1.0000 0.93960  0.42190  0.94180  Biso   1.000  H
  H290     1.0000 0.06040  0.42190  0.55820  Biso   1.000  H
  H291     1.0000 0.43960  0.92190  0.94180  Biso   1.000  H
  H292     1.0000 0.56040  0.92190  0.55820  Biso   1.000  H
  H293     1.0000 0.06040  0.57810  0.05820  Biso   1.000  H
  H294     1.0000 0.93960  0.57810  0.44180  Biso   1.000  H
  H295     1.0000 0.56040  0.07810  0.05820  Biso   1.000  H
  H296     1.0000 0.43960  0.07810  0.44180  Biso   1.000  H
  C433     1.0000 0.92730  0.49230  0.92940  Biso   1.000  C
  C434     1.0000 0.07270  0.49230  0.57060  Biso   1.000  C
  C435     1.0000 0.42730  0.99230  0.92940  Biso   1.000  C
  C436     1.0000 0.57270  0.99230  0.57060  Biso   1.000  C
  C437     1.0000 0.07270  0.50770  0.07060  Biso   1.000  C
  C438     1.0000 0.92730  0.50770  0.42940  Biso   1.000  C
  C439     1.0000 0.57270  0.00770  0.07060  Biso   1.000  C
  C440     1.0000 0.42730  0.00770  0.42940  Biso   1.000  C
  H297     1.0000 0.89360  0.49110  0.92790  Biso   1.000  H
  H298     1.0000 0.10640  0.49110  0.57210  Biso   1.000  H
  H299     1.0000 0.39360  0.99110  0.92790  Biso   1.000  H
  H300     1.0000 0.60640  0.99110  0.57210  Biso   1.000  H
  H301     1.0000 0.10640  0.50890  0.07210  Biso   1.000  H
  H302     1.0000 0.89360  0.50890  0.42790  Biso   1.000  H
  H303     1.0000 0.60640  0.00890  0.07210  Biso   1.000  H
  H304     1.0000 0.39360  0.00890  0.42790  Biso   1.000  H
  C441     1.0000 0.94540  0.53450  0.92250  Biso   1.000  C
  C442     1.0000 0.05460  0.53450  0.57750  Biso   1.000  C
  C443     1.0000 0.44540  0.03450  0.92250  Biso   1.000  C
  C444     1.0000 0.55460  0.03450  0.57750  Biso   1.000  C
  C445     1.0000 0.05460  0.46550  0.07750  Biso   1.000  C
  C446     1.0000 0.94540  0.46550  0.42250  Biso   1.000  C
  C447     1.0000 0.55460  0.96550  0.07750  Biso   1.000  C
  C448     1.0000 0.44540  0.96550  0.42250  Biso   1.000  C
  H305     1.0000 0.92470  0.56190  0.91380  Biso   1.000  H
  H306     1.0000 0.07530  0.56190  0.58620  Biso   1.000  H
  H307     1.0000 0.42470  0.06190  0.91380  Biso   1.000  H
  H308     1.0000 0.57530  0.06190  0.58620  Biso   1.000  H
  H309     1.0000 0.07530  0.43810  0.08620  Biso   1.000  H
  H310     1.0000 0.92470  0.43810  0.41380  Biso   1.000  H
  H311     1.0000 0.57530  0.93810  0.08620  Biso   1.000  H
  H312     1.0000 0.42470  0.93810  0.41380  Biso   1.000  H
  C449     1.0000 0.99700  0.53490  0.92900  Biso   1.000  C
  C450     1.0000 0.00300  0.53490  0.57100  Biso   1.000  C
  C451     1.0000 0.49700  0.03490  0.92900  Biso   1.000  C
  C452     1.0000 0.50300  0.03490  0.57100  Biso   1.000  C
  C453     1.0000 0.00300  0.46510  0.07100  Biso   1.000  C
  C454     1.0000 0.99700  0.46510  0.42900  Biso   1.000  C
  C455     1.0000 0.50300  0.96510  0.07100  Biso   1.000  C
  C456     1.0000 0.49700  0.96510  0.42900  Biso   1.000  C
  C457     1.0000 0.02520  0.57790  0.92840  Biso   1.000  C
  C458     1.0000 0.97480  0.57790  0.57160  Biso   1.000  C
  C459     1.0000 0.52520  0.07790  0.92840  Biso   1.000  C
  C460     1.0000 0.47480  0.07790  0.57160  Biso   1.000  C
  C461     1.0000 0.97480  0.42210  0.07160  Biso   1.000  C
  C462     1.0000 0.02520  0.42210  0.42840  Biso   1.000  C
  C463     1.0000 0.47480  0.92210  0.07160  Biso   1.000  C
  C464     1.0000 0.52520  0.92210  0.42840  Biso   1.000  C
  H313     1.0000 0.00820  0.60730  0.92400  Biso   1.000  H
  H314     1.0000 0.99180  0.60730  0.57600  Biso   1.000  H
  H315     1.0000 0.50820  0.10730  0.92400  Biso   1.000  H
  H316     1.0000 0.49180  0.10730  0.57600  Biso   1.000  H
  H317     1.0000 0.99180  0.39270  0.07600  Biso   1.000  H
  H318     1.0000 0.00820  0.39270  0.42400  Biso   1.000  H
  H319     1.0000 0.49180  0.89270  0.07600  Biso   1.000  H
  H320     1.0000 0.50820  0.89270  0.42400  Biso   1.000  H
  C465     1.0000 0.07250  0.57700  0.93360  Biso   1.000  C
  C466     1.0000 0.92750  0.57700  0.56640  Biso   1.000  C
  C467     1.0000 0.57250  0.07700  0.93360  Biso   1.000  C
  C468     1.0000 0.42750  0.07700  0.56640  Biso   1.000  C
  C469     1.0000 0.92750  0.42300  0.06640  Biso   1.000  C
  C470     1.0000 0.07250  0.42300  0.43360  Biso   1.000  C
  C471     1.0000 0.42750  0.92300  0.06640  Biso   1.000  C
  C472     1.0000 0.57250  0.92300  0.43360  Biso   1.000  C
  H321     1.0000 0.08870  0.60590  0.93330  Biso   1.000  H
  H322     1.0000 0.91130  0.60590  0.56670  Biso   1.000  H
  H323     1.0000 0.58870  0.10590  0.93330  Biso   1.000  H
  H324     1.0000 0.41130  0.10590  0.56670  Biso   1.000  H
  H325     1.0000 0.91130  0.39410  0.06670  Biso   1.000  H
  H326     1.0000 0.08870  0.39410  0.43330  Biso   1.000  H
  H327     1.0000 0.41130  0.89410  0.06670  Biso   1.000  H
  H328     1.0000 0.58870  0.89410  0.43330  Biso   1.000  H
  C473     1.0000 0.10160  0.53470  0.93990  Biso   1.000  C
  C474     1.0000 0.89840  0.53470  0.56010  Biso   1.000  C
  C475     1.0000 0.60160  0.03470  0.93990  Biso   1.000  C
  C476     1.0000 0.39840  0.03470  0.56010  Biso   1.000  C
  C477     1.0000 0.89840  0.46530  0.06010  Biso   1.000  C
  C478     1.0000 0.10160  0.46530  0.43990  Biso   1.000  C
  C479     1.0000 0.39840  0.96530  0.06010  Biso   1.000  C
  C480     1.0000 0.60160  0.96530  0.43990  Biso   1.000  C
  H329     1.0000 0.13440  0.53500  0.93930  Biso   1.000  H
  H330     1.0000 0.86560  0.53500  0.56070  Biso   1.000  H
  H331     1.0000 0.63440  0.03500  0.93930  Biso   1.000  H
  H332     1.0000 0.36560  0.03500  0.56070  Biso   1.000  H
  H333     1.0000 0.86560  0.46500  0.06070  Biso   1.000  H
  H334     1.0000 0.13440  0.46500  0.43930  Biso   1.000  H
  H335     1.0000 0.36560  0.96500  0.06070  Biso   1.000  H
  H336     1.0000 0.63440  0.96500  0.43930  Biso   1.000  H
  N25      1.0000 0.08450  0.40500  0.95830  Biso   1.000  N
  N26      1.0000 0.91550  0.40500  0.54170  Biso   1.000  N
  N27      1.0000 0.58450  0.90500  0.95830  Biso   1.000  N
  N28      1.0000 0.41550  0.90500  0.54170  Biso   1.000  N
  N29      1.0000 0.91550  0.59500  0.04170  Biso   1.000  N
  N30      1.0000 0.08450  0.59500  0.45830  Biso   1.000  N
  N31      1.0000 0.41550  0.09500  0.04170  Biso   1.000  N
  N32      1.0000 0.58450  0.09500  0.45830  Biso   1.000  N
  O97      1.0000 0.01100  0.36890  0.96710  Biso   1.000  O
  O98      1.0000 0.98900  0.36890  0.53290  Biso   1.000  O
  O99      1.0000 0.51100  0.86890  0.96710  Biso   1.000  O
  O100     1.0000 0.48900  0.86890  0.53290  Biso   1.000  O
  O101     1.0000 0.98900  0.63110  0.03290  Biso   1.000  O
  O102     1.0000 0.01100  0.63110  0.46710  Biso   1.000  O
  O103     1.0000 0.48900  0.13110  0.03290  Biso   1.000  O
  O104     1.0000 0.51100  0.13110  0.46710  Biso   1.000  O
  O105     1.0000 0.15350  0.44850  0.95700  Biso   1.000  O
  O106     1.0000 0.84650  0.44850  0.54300  Biso   1.000  O
  O107     1.0000 0.65350  0.94850  0.95700  Biso   1.000  O
  O108     1.0000 0.34650  0.94850  0.54300  Biso   1.000  O
  O109     1.0000 0.84650  0.55150  0.04300  Biso   1.000  O
  O110     1.0000 0.15350  0.55150  0.45700  Biso   1.000  O
  O111     1.0000 0.34650  0.05150  0.04300  Biso   1.000  O
  O112     1.0000 0.65350  0.05150  0.45700  Biso   1.000  O
  O113     1.0000 0.17630  0.38080  0.13760  Biso   1.000  O
  O114     1.0000 0.82370  0.38080  0.36240  Biso   1.000  O
  O115     1.0000 0.67630  0.88080  0.13760  Biso   1.000  O
  O116     1.0000 0.32370  0.88080  0.36240  Biso   1.000  O
  O117     1.0000 0.82370  0.61920  0.86240  Biso   1.000  O
  O118     1.0000 0.17630  0.61920  0.63760  Biso   1.000  O
  O119     1.0000 0.32370  0.11920  0.86240  Biso   1.000  O
  O120     1.0000 0.67630  0.11920  0.63760  Biso   1.000  O
  O121     1.0000 0.25620  0.37930  0.13710  Biso   1.000  O
  O122     1.0000 0.74380  0.37930  0.36290  Biso   1.000  O
  O123     1.0000 0.75620  0.87930  0.13710  Biso   1.000  O
  O124     1.0000 0.24380  0.87930  0.36290  Biso   1.000  O
  O125     1.0000 0.74380  0.62070  0.86290  Biso   1.000  O
  O126     1.0000 0.25620  0.62070  0.63710  Biso   1.000  O
  O127     1.0000 0.24380  0.12070  0.86290  Biso   1.000  O
  O128     1.0000 0.75620  0.12070  0.63710  Biso   1.000  O
  C481     1.0000 0.11690  0.36110  0.96830  Biso   1.000  C
  C482     1.0000 0.88310  0.36110  0.53170  Biso   1.000  C
  C483     1.0000 0.61690  0.86110  0.96830  Biso   1.000  C
  C484     1.0000 0.38310  0.86110  0.53170  Biso   1.000  C
  C485     1.0000 0.88310  0.63890  0.03170  Biso   1.000  C
  C486     1.0000 0.11690  0.63890  0.46830  Biso   1.000  C
  C487     1.0000 0.38310  0.13890  0.03170  Biso   1.000  C
  C488     1.0000 0.61690  0.13890  0.46830  Biso   1.000  C
  H337     1.0000 0.13980  0.36370  0.95110  Biso   1.000  H
  H338     1.0000 0.86020  0.36370  0.54890  Biso   1.000  H
  H339     1.0000 0.63980  0.86370  0.95110  Biso   1.000  H
  H340     1.0000 0.36020  0.86370  0.54890  Biso   1.000  H
  H341     1.0000 0.86020  0.63630  0.04890  Biso   1.000  H
  H342     1.0000 0.13980  0.63630  0.45110  Biso   1.000  H
  H343     1.0000 0.36020  0.13630  0.04890  Biso   1.000  H
  H344     1.0000 0.63980  0.13630  0.45110  Biso   1.000  H
  H345     1.0000 0.09400  0.33380  0.95410  Biso   1.000  H
  H346     1.0000 0.90600  0.33380  0.54590  Biso   1.000  H
  H347     1.0000 0.59400  0.83380  0.95410  Biso   1.000  H
  H348     1.0000 0.40600  0.83380  0.54590  Biso   1.000  H
  H349     1.0000 0.90600  0.66620  0.04590  Biso   1.000  H
  H350     1.0000 0.09400  0.66620  0.45410  Biso   1.000  H
  H351     1.0000 0.40600  0.16620  0.04590  Biso   1.000  H
  H352     1.0000 0.59400  0.16620  0.45410  Biso   1.000  H
  C489     1.0000 0.15150  0.35200  0.02690  Biso   1.000  C
  C490     1.0000 0.84850  0.35200  0.47310  Biso   1.000  C
  C491     1.0000 0.65150  0.85200  0.02690  Biso   1.000  C
  C492     1.0000 0.34850  0.85200  0.47310  Biso   1.000  C
  C493     1.0000 0.84850  0.64800  0.97310  Biso   1.000  C
  C494     1.0000 0.15150  0.64800  0.52690  Biso   1.000  C
  C495     1.0000 0.34850  0.14800  0.97310  Biso   1.000  C
  C496     1.0000 0.65150  0.14800  0.52690  Biso   1.000  C
  H353     1.0000 0.12940  0.33760  0.04120  Biso   1.000  H
  H354     1.0000 0.87060  0.33760  0.45880  Biso   1.000  H
  H355     1.0000 0.62940  0.83760  0.04120  Biso   1.000  H
  H356     1.0000 0.37060  0.83760  0.45880  Biso   1.000  H
  H357     1.0000 0.87060  0.66240  0.95880  Biso   1.000  H
  H358     1.0000 0.12940  0.66240  0.54120  Biso   1.000  H
  H359     1.0000 0.37060  0.16240  0.95880  Biso   1.000  H
  H360     1.0000 0.62940  0.16240  0.54120  Biso   1.000  H
  H361     1.0000 0.17860  0.32900  0.03020  Biso   1.000  H
  H362     1.0000 0.82140  0.32900  0.46980  Biso   1.000  H
  H363     1.0000 0.67860  0.82900  0.03020  Biso   1.000  H
  H364     1.0000 0.32140  0.82900  0.46980  Biso   1.000  H
  H365     1.0000 0.82140  0.67100  0.96980  Biso   1.000  H
  H366     1.0000 0.17860  0.67100  0.53020  Biso   1.000  H
  H367     1.0000 0.32140  0.17100  0.96980  Biso   1.000  H
  H368     1.0000 0.67860  0.17100  0.53020  Biso   1.000  H
  C497     1.0000 0.17780  0.39600  0.05840  Biso   1.000  C
  C498     1.0000 0.82220  0.39600  0.44160  Biso   1.000  C
  C499     1.0000 0.67780  0.89600  0.05840  Biso   1.000  C
  C500     1.0000 0.32220  0.89600  0.44160  Biso   1.000  C
  C501     1.0000 0.82220  0.60400  0.94160  Biso   1.000  C
  C502     1.0000 0.17780  0.60400  0.55840  Biso   1.000  C
  C503     1.0000 0.32220  0.10400  0.94160  Biso   1.000  C
  C504     1.0000 0.67780  0.10400  0.55840  Biso   1.000  C
  H369     1.0000 0.15150  0.42040  0.05340  Biso   1.000  H
  H370     1.0000 0.84850  0.42040  0.44660  Biso   1.000  H
  H371     1.0000 0.65150  0.92040  0.05340  Biso   1.000  H
  H372     1.0000 0.34850  0.92040  0.44660  Biso   1.000  H
  H373     1.0000 0.84850  0.57960  0.94660  Biso   1.000  H
  H374     1.0000 0.15150  0.57960  0.55340  Biso   1.000  H
  H375     1.0000 0.34850  0.07960  0.94660  Biso   1.000  H
  H376     1.0000 0.65150  0.07960  0.55340  Biso   1.000  H
  H377     1.0000 0.20300  0.40890  0.04690  Biso   1.000  H
  H378     1.0000 0.79700  0.40890  0.45310  Biso   1.000  H
  H379     1.0000 0.70300  0.90890  0.04690  Biso   1.000  H
  H380     1.0000 0.29700  0.90890  0.45310  Biso   1.000  H
  H381     1.0000 0.79700  0.59110  0.95310  Biso   1.000  H
  H382     1.0000 0.20300  0.59110  0.54690  Biso   1.000  H
  H383     1.0000 0.29700  0.09110  0.95310  Biso   1.000  H
  H384     1.0000 0.70300  0.09110  0.54690  Biso   1.000  H
  C505     1.0000 0.20630  0.38340  0.11570  Biso   1.000  C
  C506     1.0000 0.79370  0.38340  0.38430  Biso   1.000  C
  C507     1.0000 0.70630  0.88340  0.11570  Biso   1.000  C
  C508     1.0000 0.29370  0.88340  0.38430  Biso   1.000  C
  C509     1.0000 0.79370  0.61660  0.88430  Biso   1.000  C
  C510     1.0000 0.20630  0.61660  0.61570  Biso   1.000  C
  C511     1.0000 0.29370  0.11660  0.88430  Biso   1.000  C
  C512     1.0000 0.70630  0.11660  0.61570  Biso   1.000  C
  C513     1.0000 0.84750  0.20150  0.88300  Biso   1.000  C
  C514     1.0000 0.15250  0.20150  0.61700  Biso   1.000  C
  C515     1.0000 0.34750  0.70150  0.88300  Biso   1.000  C
  C516     1.0000 0.65250  0.70150  0.61700  Biso   1.000  C
  C517     1.0000 0.15250  0.79850  0.11700  Biso   1.000  C
  C518     1.0000 0.84750  0.79850  0.38300  Biso   1.000  C
  C519     1.0000 0.65250  0.29850  0.11700  Biso   1.000  C
  C520     1.0000 0.34750  0.29850  0.38300  Biso   1.000  C
  H385     1.0000 0.82770  0.17380  0.87860  Biso   1.000  H
  H386     1.0000 0.17230  0.17380  0.62140  Biso   1.000  H
  H387     1.0000 0.32770  0.67380  0.87860  Biso   1.000  H
  H388     1.0000 0.67230  0.67380  0.62140  Biso   1.000  H
  H389     1.0000 0.17230  0.82620  0.12140  Biso   1.000  H
  H390     1.0000 0.82770  0.82620  0.37860  Biso   1.000  H
  H391     1.0000 0.67230  0.32620  0.12140  Biso   1.000  H
  H392     1.0000 0.32770  0.32620  0.37860  Biso   1.000  H
  C521     1.0000 0.88770  0.21040  0.93060  Biso   1.000  C
  C522     1.0000 0.11230  0.21040  0.56940  Biso   1.000  C
  C523     1.0000 0.38770  0.71040  0.93060  Biso   1.000  C
  C524     1.0000 0.61230  0.71040  0.56940  Biso   1.000  C
  C525     1.0000 0.11230  0.78960  0.06940  Biso   1.000  C
  C526     1.0000 0.88770  0.78960  0.43060  Biso   1.000  C
  C527     1.0000 0.61230  0.28960  0.06940  Biso   1.000  C
  C528     1.0000 0.38770  0.28960  0.43060  Biso   1.000  C
  H393     1.0000 0.89460  0.18910  0.95740  Biso   1.000  H
  H394     1.0000 0.10540  0.18910  0.54260  Biso   1.000  H
  H395     1.0000 0.39460  0.68910  0.95740  Biso   1.000  H
  H396     1.0000 0.60540  0.68910  0.54260  Biso   1.000  H
  H397     1.0000 0.10540  0.81090  0.04260  Biso   1.000  H
  H398     1.0000 0.89460  0.81090  0.45740  Biso   1.000  H
  H399     1.0000 0.60540  0.31090  0.04260  Biso   1.000  H
  H400     1.0000 0.39460  0.31090  0.45740  Biso   1.000  H
  C529     1.0000 0.91730  0.25130  0.93760  Biso   1.000  C
  C530     1.0000 0.08270  0.25130  0.56240  Biso   1.000  C
  C531     1.0000 0.41730  0.75130  0.93760  Biso   1.000  C
  C532     1.0000 0.58270  0.75130  0.56240  Biso   1.000  C
  C533     1.0000 0.08270  0.74870  0.06240  Biso   1.000  C
  C534     1.0000 0.91730  0.74870  0.43760  Biso   1.000  C
  C535     1.0000 0.58270  0.24870  0.06240  Biso   1.000  C
  C536     1.0000 0.41730  0.24870  0.43760  Biso   1.000  C
  C537     1.0000 0.90510  0.28050  0.89560  Biso   1.000  C
  C538     1.0000 0.09490  0.28050  0.60440  Biso   1.000  C
  C539     1.0000 0.40510  0.78050  0.89560  Biso   1.000  C
  C540     1.0000 0.59490  0.78050  0.60440  Biso   1.000  C
  C541     1.0000 0.09490  0.71950  0.10440  Biso   1.000  C
  C542     1.0000 0.90510  0.71950  0.39560  Biso   1.000  C
  C543     1.0000 0.59490  0.21950  0.10440  Biso   1.000  C
  C544     1.0000 0.40510  0.21950  0.39560  Biso   1.000  C
  H401     1.0000 0.92490  0.30790  0.89820  Biso   1.000  H
  H402     1.0000 0.07510  0.30790  0.60180  Biso   1.000  H
  H403     1.0000 0.42490  0.80790  0.89820  Biso   1.000  H
  H404     1.0000 0.57510  0.80790  0.60180  Biso   1.000  H
  H405     1.0000 0.07510  0.69210  0.10180  Biso   1.000  H
  H406     1.0000 0.92490  0.69210  0.39820  Biso   1.000  H
  H407     1.0000 0.57510  0.19210  0.10180  Biso   1.000  H
  H408     1.0000 0.42490  0.19210  0.39820  Biso   1.000  H
  C545     1.0000 0.86470  0.26970  0.85080  Biso   1.000  C
  C546     1.0000 0.13530  0.26970  0.64920  Biso   1.000  C
  C547     1.0000 0.36470  0.76970  0.85080  Biso   1.000  C
  C548     1.0000 0.63530  0.76970  0.64920  Biso   1.000  C
  C549     1.0000 0.13530  0.73030  0.14920  Biso   1.000  C
  C550     1.0000 0.86470  0.73030  0.35080  Biso   1.000  C
  C551     1.0000 0.63530  0.23030  0.14920  Biso   1.000  C
  C552     1.0000 0.36470  0.23030  0.35080  Biso   1.000  C
  H409     1.0000 0.85660  0.29070  0.82360  Biso   1.000  H
  H410     1.0000 0.14340  0.29070  0.67640  Biso   1.000  H
  H411     1.0000 0.35660  0.79070  0.82360  Biso   1.000  H
  H412     1.0000 0.64340  0.79070  0.67640  Biso   1.000  H
  H413     1.0000 0.14340  0.70930  0.17640  Biso   1.000  H
  H414     1.0000 0.85660  0.70930  0.32360  Biso   1.000  H
  H415     1.0000 0.64340  0.20930  0.17640  Biso   1.000  H
  H416     1.0000 0.35660  0.20930  0.32360  Biso   1.000  H
  C553     1.0000 0.96050  0.26430  0.98720  Biso   1.000  C
  C554     1.0000 0.03950  0.26430  0.51280  Biso   1.000  C
  C555     1.0000 0.46050  0.76430  0.98720  Biso   1.000  C
  C556     1.0000 0.53950  0.76430  0.51280  Biso   1.000  C
  C557     1.0000 0.03950  0.73570  0.01280  Biso   1.000  C
  C558     1.0000 0.96050  0.73570  0.48720  Biso   1.000  C
  C559     1.0000 0.53950  0.23570  0.01280  Biso   1.000  C
  C560     1.0000 0.46050  0.23570  0.48720  Biso   1.000  C
  H417     1.0000 0.98000  0.29140  0.98790  Biso   1.000  H
  H418     1.0000 0.02000  0.29140  0.51210  Biso   1.000  H
  H419     1.0000 0.48000  0.79140  0.98790  Biso   1.000  H
  H420     1.0000 0.52000  0.79140  0.51210  Biso   1.000  H
  H421     1.0000 0.02000  0.70860  0.01210  Biso   1.000  H
  H422     1.0000 0.98000  0.70860  0.48790  Biso   1.000  H
  H423     1.0000 0.52000  0.20860  0.01210  Biso   1.000  H
  H424     1.0000 0.48000  0.20860  0.48790  Biso   1.000  H
  C561     1.0000 0.97400  0.24120  0.03010  Biso   1.000  C
  C562     1.0000 0.02600  0.24120  0.46990  Biso   1.000  C
  C563     1.0000 0.47400  0.74120  0.03010  Biso   1.000  C
  C564     1.0000 0.52600  0.74120  0.46990  Biso   1.000  C
  C565     1.0000 0.02600  0.75880  0.96990  Biso   1.000  C
  C566     1.0000 0.97400  0.75880  0.53010  Biso   1.000  C
  C567     1.0000 0.52600  0.25880  0.96990  Biso   1.000  C
  C568     1.0000 0.47400  0.25880  0.53010  Biso   1.000  C
  H425     1.0000 0.95420  0.21430  0.02960  Biso   1.000  H
  H426     1.0000 0.04580  0.21430  0.47040  Biso   1.000  H
  H427     1.0000 0.45420  0.71430  0.02960  Biso   1.000  H
  H428     1.0000 0.54580  0.71430  0.47040  Biso   1.000  H
  H429     1.0000 0.04580  0.78570  0.97040  Biso   1.000  H
  H430     1.0000 0.95420  0.78570  0.52960  Biso   1.000  H
  H431     1.0000 0.54580  0.28570  0.97040  Biso   1.000  H
  H432     1.0000 0.45420  0.28570  0.52960  Biso   1.000  H
  C569     1.0000 0.01660  0.25360  0.07840  Biso   1.000  C
  C570     1.0000 0.98340  0.25360  0.42160  Biso   1.000  C
  C571     1.0000 0.51660  0.75360  0.07840  Biso   1.000  C
  C572     1.0000 0.48340  0.75360  0.42160  Biso   1.000  C
  C573     1.0000 0.98340  0.74640  0.92160  Biso   1.000  C
  C574     1.0000 0.01660  0.74640  0.57840  Biso   1.000  C
  C575     1.0000 0.48340  0.24640  0.92160  Biso   1.000  C
  C576     1.0000 0.51660  0.24640  0.57840  Biso   1.000  C
  C577     1.0000 0.02390  0.22600  0.12150  Biso   1.000  C
  C578     1.0000 0.97610  0.22600  0.37850  Biso   1.000  C
  C579     1.0000 0.52390  0.72600  0.12150  Biso   1.000  C
  C580     1.0000 0.47610  0.72600  0.37850  Biso   1.000  C
  C581     1.0000 0.97610  0.77400  0.87850  Biso   1.000  C
  C582     1.0000 0.02390  0.77400  0.62150  Biso   1.000  C
  C583     1.0000 0.47610  0.27400  0.87850  Biso   1.000  C
  C584     1.0000 0.52390  0.27400  0.62150  Biso   1.000  C
  H433     1.0000 0.00100  0.20110  0.11910  Biso   1.000  H
  H434     1.0000 0.99900  0.20110  0.38090  Biso   1.000  H
  H435     1.0000 0.50100  0.70110  0.11910  Biso   1.000  H
  H436     1.0000 0.49900  0.70110  0.38090  Biso   1.000  H
  H437     1.0000 0.99900  0.79890  0.88090  Biso   1.000  H
  H438     1.0000 0.00100  0.79890  0.61910  Biso   1.000  H
  H439     1.0000 0.49900  0.29890  0.88090  Biso   1.000  H
  H440     1.0000 0.50100  0.29890  0.61910  Biso   1.000  H
  C585     1.0000 0.06520  0.23660  0.16720  Biso   1.000  C
  C586     1.0000 0.93480  0.23660  0.33280  Biso   1.000  C
  C587     1.0000 0.56520  0.73660  0.16720  Biso   1.000  C
  C588     1.0000 0.43480  0.73660  0.33280  Biso   1.000  C
  C589     1.0000 0.93480  0.76340  0.83280  Biso   1.000  C
  C590     1.0000 0.06520  0.76340  0.66720  Biso   1.000  C
  C591     1.0000 0.43480  0.26340  0.83280  Biso   1.000  C
  C592     1.0000 0.56520  0.26340  0.66720  Biso   1.000  C
  H441     1.0000 0.07030  0.21750  0.19520  Biso   1.000  H
  H442     1.0000 0.92970  0.21750  0.30480  Biso   1.000  H
  H443     1.0000 0.57030  0.71750  0.19520  Biso   1.000  H
  H444     1.0000 0.42970  0.71750  0.30480  Biso   1.000  H
  H445     1.0000 0.92970  0.78250  0.80480  Biso   1.000  H
  H446     1.0000 0.07030  0.78250  0.69520  Biso   1.000  H
  H447     1.0000 0.42970  0.28250  0.80480  Biso   1.000  H
  H448     1.0000 0.57030  0.28250  0.69520  Biso   1.000  H
  C593     1.0000 0.09160  0.29920  0.13270  Biso   1.000  C
  C594     1.0000 0.90840  0.29920  0.36730  Biso   1.000  C
  C595     1.0000 0.59160  0.79920  0.13270  Biso   1.000  C
  C596     1.0000 0.40840  0.79920  0.36730  Biso   1.000  C
  C597     1.0000 0.90840  0.70080  0.86730  Biso   1.000  C
  C598     1.0000 0.09160  0.70080  0.63270  Biso   1.000  C
  C599     1.0000 0.40840  0.20080  0.86730  Biso   1.000  C
  C600     1.0000 0.59160  0.20080  0.63270  Biso   1.000  C
  H449     1.0000 0.11440  0.32440  0.13620  Biso   1.000  H
  H450     1.0000 0.88560  0.32440  0.36380  Biso   1.000  H
  H451     1.0000 0.61440  0.82440  0.13620  Biso   1.000  H
  H452     1.0000 0.38560  0.82440  0.36380  Biso   1.000  H
  H453     1.0000 0.88560  0.67560  0.86380  Biso   1.000  H
  H454     1.0000 0.11440  0.67560  0.63620  Biso   1.000  H
  H455     1.0000 0.38560  0.17560  0.86380  Biso   1.000  H
  H456     1.0000 0.61440  0.17560  0.63620  Biso   1.000  H
  C601     1.0000 0.05110  0.29030  0.08470  Biso   1.000  C
  C602     1.0000 0.94890  0.29030  0.41530  Biso   1.000  C
  C603     1.0000 0.55110  0.79030  0.08470  Biso   1.000  C
  C604     1.0000 0.44890  0.79030  0.41530  Biso   1.000  C
  C605     1.0000 0.94890  0.70970  0.91530  Biso   1.000  C
  C606     1.0000 0.05110  0.70970  0.58470  Biso   1.000  C
  C607     1.0000 0.44890  0.20970  0.91530  Biso   1.000  C
  C608     1.0000 0.55110  0.20970  0.58470  Biso   1.000  C
  H457     1.0000 0.04760  0.30930  0.05700  Biso   1.000  H
  H458     1.0000 0.95240  0.30930  0.44300  Biso   1.000  H
  H459     1.0000 0.54760  0.80930  0.05700  Biso   1.000  H
  H460     1.0000 0.45240  0.80930  0.44300  Biso   1.000  H
  H461     1.0000 0.95240  0.69070  0.94300  Biso   1.000  H
  H462     1.0000 0.04760  0.69070  0.55700  Biso   1.000  H
  H463     1.0000 0.45240  0.19070  0.94300  Biso   1.000  H
  H464     1.0000 0.54760  0.19070  0.55700  Biso   1.000  H
  N33      1.0000 0.83581  0.23030  0.84357  Biso   1.000  N
  N34      1.0000 0.16419  0.23030  0.65643  Biso   1.000  N
  N35      1.0000 0.33581  0.73030  0.84357  Biso   1.000  N
  N36      1.0000 0.66419  0.73030  0.65643  Biso   1.000  N
  N37      1.0000 0.16419  0.76970  0.15643  Biso   1.000  N
  N38      1.0000 0.83581  0.76970  0.34357  Biso   1.000  N
  N39      1.0000 0.66419  0.26970  0.15643  Biso   1.000  N
  N40      1.0000 0.33581  0.26970  0.34357  Biso   1.000  N
  N41      1.0000 0.09895  0.27303  0.17382  Biso   1.000  N
  N42      1.0000 0.90105  0.27303  0.32618  Biso   1.000  N
  N43      1.0000 0.59895  0.77303  0.17382  Biso   1.000  N
  N44      1.0000 0.40105  0.77303  0.32618  Biso   1.000  N
  N45      1.0000 0.90105  0.72697  0.82618  Biso   1.000  N
  N46      1.0000 0.09895  0.72697  0.67382  Biso   1.000  N
  N47      1.0000 0.40105  0.22697  0.82618  Biso   1.000  N
  N48      1.0000 0.59895  0.22697  0.67382  Biso   1.000  N
  C609     1.0000 0.21810  0.27330  0.35380  Biso   1.000  C
  C610     1.0000 0.78190  0.27330  0.14620  Biso   1.000  C
  C611     1.0000 0.71810  0.77330  0.35380  Biso   1.000  C
  C612     1.0000 0.28190  0.77330  0.14620  Biso   1.000  C
  C613     1.0000 0.78190  0.72670  0.64620  Biso   1.000  C
  C614     1.0000 0.21810  0.72670  0.85380  Biso   1.000  C
  C615     1.0000 0.28190  0.22670  0.64620  Biso   1.000  C
  C616     1.0000 0.71810  0.22670  0.85380  Biso   1.000  C
  H465     1.0000 0.24990  0.28310  0.38210  Biso   1.000  H
  H466     1.0000 0.75010  0.28310  0.11790  Biso   1.000  H
  H467     1.0000 0.74990  0.78310  0.38210  Biso   1.000  H
  H468     1.0000 0.25010  0.78310  0.11790  Biso   1.000  H
  H469     1.0000 0.75010  0.71690  0.61790  Biso   1.000  H
  H470     1.0000 0.24990  0.71690  0.88210  Biso   1.000  H
  H471     1.0000 0.25010  0.21690  0.61790  Biso   1.000  H
  H472     1.0000 0.74990  0.21690  0.88210  Biso   1.000  H
  H473     1.0000 0.21950  0.23950  0.34840  Biso   1.000  H
  H474     1.0000 0.78050  0.23950  0.15160  Biso   1.000  H
  H475     1.0000 0.71950  0.73950  0.34840  Biso   1.000  H
  H476     1.0000 0.28050  0.73950  0.15160  Biso   1.000  H
  H477     1.0000 0.78050  0.76050  0.65160  Biso   1.000  H
  H478     1.0000 0.21950  0.76050  0.84840  Biso   1.000  H
  H479     1.0000 0.28050  0.26050  0.65160  Biso   1.000  H
  H480     1.0000 0.71950  0.26050  0.84840  Biso   1.000  H
  H481     1.0000 0.18860  0.28030  0.36110  Biso   1.000  H
  H482     1.0000 0.81140  0.28030  0.13890  Biso   1.000  H
  H483     1.0000 0.68860  0.78030  0.36110  Biso   1.000  H
  H484     1.0000 0.31140  0.78030  0.13890  Biso   1.000  H
  H485     1.0000 0.81140  0.71970  0.63890  Biso   1.000  H
  H486     1.0000 0.18860  0.71970  0.86110  Biso   1.000  H
  H487     1.0000 0.31140  0.21970  0.63890  Biso   1.000  H
  H488     1.0000 0.68860  0.21970  0.86110  Biso   1.000  H
  O129     1.0000 0.21293  0.29840  0.30953  Biso   1.000  O
  O130     1.0000 0.78707  0.29840  0.19047  Biso   1.000  O
  O131     1.0000 0.71293  0.79840  0.30953  Biso   1.000  O
  O132     1.0000 0.28707  0.79840  0.19047  Biso   1.000  O
  O133     1.0000 0.78707  0.70160  0.69047  Biso   1.000  O
  O134     1.0000 0.21293  0.70160  0.80953  Biso   1.000  O
  O135     1.0000 0.28707  0.20160  0.69047  Biso   1.000  O
  O136     1.0000 0.71293  0.20160  0.80953  Biso   1.000  O
  C617     1.0000 0.32630  0.38010  0.29350  Biso   1.000  C
  C618     1.0000 0.67370  0.38010  0.20650  Biso   1.000  C
  C619     1.0000 0.82630  0.88010  0.29350  Biso   1.000  C
  C620     1.0000 0.17370  0.88010  0.20650  Biso   1.000  C
  C621     1.0000 0.67370  0.61990  0.70650  Biso   1.000  C
  C622     1.0000 0.32630  0.61990  0.79350  Biso   1.000  C
  C623     1.0000 0.17370  0.11990  0.70650  Biso   1.000  C
  C624     1.0000 0.82630  0.11990  0.79350  Biso   1.000  C
  H489     1.0000 0.35690  0.35990  0.30620  Biso   1.000  H
  H490     1.0000 0.64310  0.35990  0.19380  Biso   1.000  H
  H491     1.0000 0.85690  0.85990  0.30620  Biso   1.000  H
  H492     1.0000 0.14310  0.85990  0.19380  Biso   1.000  H
  H493     1.0000 0.64310  0.64010  0.69380  Biso   1.000  H
  H494     1.0000 0.35690  0.64010  0.80620  Biso   1.000  H
  H495     1.0000 0.14310  0.14010  0.69380  Biso   1.000  H
  H496     1.0000 0.85690  0.14010  0.80620  Biso   1.000  H
  H497     1.0000 0.32680  0.40040  0.32050  Biso   1.000  H
  H498     1.0000 0.67320  0.40040  0.17950  Biso   1.000  H
  H499     1.0000 0.82680  0.90040  0.32050  Biso   1.000  H
  H500     1.0000 0.17320  0.90040  0.17950  Biso   1.000  H
  H501     1.0000 0.67320  0.59960  0.67950  Biso   1.000  H
  H502     1.0000 0.32680  0.59960  0.82050  Biso   1.000  H
  H503     1.0000 0.17320  0.09960  0.67950  Biso   1.000  H
  H504     1.0000 0.82680  0.09960  0.82050  Biso   1.000  H
  H505     1.0000 0.32640  0.39950  0.26620  Biso   1.000  H
  H506     1.0000 0.67360  0.39950  0.23380  Biso   1.000  H
  H507     1.0000 0.82640  0.89950  0.26620  Biso   1.000  H
  H508     1.0000 0.17360  0.89950  0.23380  Biso   1.000  H
  H509     1.0000 0.67360  0.60050  0.73380  Biso   1.000  H
  H510     1.0000 0.32640  0.60050  0.76620  Biso   1.000  H
  H511     1.0000 0.17360  0.10050  0.73380  Biso   1.000  H
  H512     1.0000 0.82640  0.10050  0.76620  Biso   1.000  H
  O137     1.0000 0.28017  0.35117  0.27530  Biso   1.000  O
  O138     1.0000 0.71983  0.35117  0.22470  Biso   1.000  O
  O139     1.0000 0.78017  0.85117  0.27530  Biso   1.000  O
  O140     1.0000 0.21983  0.85117  0.22470  Biso   1.000  O
  O141     1.0000 0.71983  0.64883  0.72470  Biso   1.000  O
  O142     1.0000 0.28017  0.64883  0.77530  Biso   1.000  O
  O143     1.0000 0.21983  0.14883  0.72470  Biso   1.000  O
  O144     1.0000 0.78017  0.14883  0.77530  Biso   1.000  O
  C625     1.0000 0.11270  0.38340  0.21850  Biso   1.000  C
  C626     1.0000 0.88730  0.38340  0.28150  Biso   1.000  C
  C627     1.0000 0.61270  0.88340  0.21850  Biso   1.000  C
  C628     1.0000 0.38730  0.88340  0.28150  Biso   1.000  C
  C629     1.0000 0.88730  0.61660  0.78150  Biso   1.000  C
  C630     1.0000 0.11270  0.61660  0.71850  Biso   1.000  C
  C631     1.0000 0.38730  0.11660  0.78150  Biso   1.000  C
  C632     1.0000 0.61270  0.11660  0.71850  Biso   1.000  C
  H513     1.0000 0.11630  0.40830  0.24260  Biso   1.000  H
  H514     1.0000 0.88370  0.40830  0.25740  Biso   1.000  H
  H515     1.0000 0.61630  0.90830  0.24260  Biso   1.000  H
  H516     1.0000 0.38370  0.90830  0.25740  Biso   1.000  H
  H517     1.0000 0.88370  0.59170  0.75740  Biso   1.000  H
  H518     1.0000 0.11630  0.59170  0.74260  Biso   1.000  H
  H519     1.0000 0.38370  0.09170  0.75740  Biso   1.000  H
  H520     1.0000 0.61630  0.09170  0.74260  Biso   1.000  H
  H521     1.0000 0.08180  0.36490  0.21230  Biso   1.000  H
  H522     1.0000 0.91820  0.36490  0.28770  Biso   1.000  H
  H523     1.0000 0.58180  0.86490  0.21230  Biso   1.000  H
  H524     1.0000 0.41820  0.86490  0.28770  Biso   1.000  H
  H525     1.0000 0.91820  0.63510  0.78770  Biso   1.000  H
  H526     1.0000 0.08180  0.63510  0.71230  Biso   1.000  H
  H527     1.0000 0.41820  0.13510  0.78770  Biso   1.000  H
  H528     1.0000 0.58180  0.13510  0.71230  Biso   1.000  H
  H529     1.0000 0.10960  0.39750  0.18710  Biso   1.000  H
  H530     1.0000 0.89040  0.39750  0.31290  Biso   1.000  H
  H531     1.0000 0.60960  0.89750  0.18710  Biso   1.000  H
  H532     1.0000 0.39040  0.89750  0.31290  Biso   1.000  H
  H533     1.0000 0.89040  0.60250  0.81290  Biso   1.000  H
  H534     1.0000 0.10960  0.60250  0.68710  Biso   1.000  H
  H535     1.0000 0.39040  0.10250  0.81290  Biso   1.000  H
  H536     1.0000 0.60960  0.10250  0.68710  Biso   1.000  H
  O145     1.0000 0.15813  0.35299  0.23850  Biso   1.000  O
  O146     1.0000 0.84187  0.35299  0.26150  Biso   1.000  O
  O147     1.0000 0.65813  0.85299  0.23850  Biso   1.000  O
  O148     1.0000 0.34187  0.85299  0.26150  Biso   1.000  O
  O149     1.0000 0.84187  0.64701  0.76150  Biso   1.000  O
  O150     1.0000 0.15813  0.64701  0.73850  Biso   1.000  O
  O151     1.0000 0.34187  0.14701  0.76150  Biso   1.000  O
  O152     1.0000 0.65813  0.14701  0.73850  Biso   1.000  O
  C633     1.0000 0.21810  0.26490  0.16610  Biso   1.000  C
  C634     1.0000 0.78190  0.26490  0.33390  Biso   1.000  C
  C635     1.0000 0.71810  0.76490  0.16610  Biso   1.000  C
  C636     1.0000 0.28190  0.76490  0.33390  Biso   1.000  C
  C637     1.0000 0.78190  0.73510  0.83390  Biso   1.000  C
  C638     1.0000 0.21810  0.73510  0.66610  Biso   1.000  C
  C639     1.0000 0.28190  0.23510  0.83390  Biso   1.000  C
  C640     1.0000 0.71810  0.23510  0.66610  Biso   1.000  C
  H537     1.0000 0.24370  0.27340  0.15370  Biso   1.000  H
  H538     1.0000 0.75630  0.27340  0.34630  Biso   1.000  H
  H539     1.0000 0.74370  0.77340  0.15370  Biso   1.000  H
  H540     1.0000 0.25630  0.77340  0.34630  Biso   1.000  H
  H541     1.0000 0.75630  0.72660  0.84630  Biso   1.000  H
  H542     1.0000 0.24370  0.72660  0.65370  Biso   1.000  H
  H543     1.0000 0.25630  0.22660  0.84630  Biso   1.000  H
  H544     1.0000 0.74370  0.22660  0.65370  Biso   1.000  H
  H545     1.0000 0.18350  0.26860  0.13930  Biso   1.000  H
  H546     1.0000 0.81650  0.26860  0.36070  Biso   1.000  H
  H547     1.0000 0.68350  0.76860  0.13930  Biso   1.000  H
  H548     1.0000 0.31650  0.76860  0.36070  Biso   1.000  H
  H549     1.0000 0.81650  0.73140  0.86070  Biso   1.000  H
  H550     1.0000 0.18350  0.73140  0.63930  Biso   1.000  H
  H551     1.0000 0.31650  0.23140  0.86070  Biso   1.000  H
  H552     1.0000 0.68350  0.23140  0.63930  Biso   1.000  H
  H553     1.0000 0.22330  0.23220  0.17730  Biso   1.000  H
  H554     1.0000 0.77670  0.23220  0.32270  Biso   1.000  H
  H555     1.0000 0.72330  0.73220  0.17730  Biso   1.000  H
  H556     1.0000 0.27670  0.73220  0.32270  Biso   1.000  H
  H557     1.0000 0.77670  0.76780  0.82270  Biso   1.000  H
  H558     1.0000 0.22330  0.76780  0.67730  Biso   1.000  H
  H559     1.0000 0.27670  0.26780  0.82270  Biso   1.000  H
  H560     1.0000 0.72330  0.26780  0.67730  Biso   1.000  H
  O153     1.0000 0.22388  0.29489  0.20717  Biso   1.000  O
  O154     1.0000 0.77612  0.29489  0.29283  Biso   1.000  O
  O155     1.0000 0.72388  0.79489  0.20717  Biso   1.000  O
  O156     1.0000 0.27612  0.79489  0.29283  Biso   1.000  O
  O157     1.0000 0.77612  0.70511  0.79283  Biso   1.000  O
  O158     1.0000 0.22388  0.70511  0.70717  Biso   1.000  O
  O159     1.0000 0.27612  0.20511  0.79283  Biso   1.000  O
  O160     1.0000 0.72388  0.20511  0.70717  Biso   1.000  O
  C641     1.0000 0.07680  0.23190  0.29840  Biso   1.000  C
  C642     1.0000 0.92320  0.23190  0.20160  Biso   1.000  C
  C643     1.0000 0.57680  0.73190  0.29840  Biso   1.000  C
  C644     1.0000 0.42320  0.73190  0.20160  Biso   1.000  C
  C645     1.0000 0.92320  0.76810  0.70160  Biso   1.000  C
  C646     1.0000 0.07680  0.76810  0.79840  Biso   1.000  C
  C647     1.0000 0.42320  0.26810  0.70160  Biso   1.000  C
  C648     1.0000 0.57680  0.26810  0.79840  Biso   1.000  C
  H561     1.0000 0.07120  0.20520  0.27590  Biso   1.000  H
  H562     1.0000 0.92880  0.20520  0.22410  Biso   1.000  H
  H563     1.0000 0.57120  0.70520  0.27590  Biso   1.000  H
  H564     1.0000 0.42880  0.70520  0.22410  Biso   1.000  H
  H565     1.0000 0.92880  0.79480  0.72410  Biso   1.000  H
  H566     1.0000 0.07120  0.79480  0.77590  Biso   1.000  H
  H567     1.0000 0.42880  0.29480  0.72410  Biso   1.000  H
  H568     1.0000 0.57120  0.29480  0.77590  Biso   1.000  H
  H569     1.0000 0.04520  0.23810  0.30260  Biso   1.000  H
  H570     1.0000 0.95480  0.23810  0.19740  Biso   1.000  H
  H571     1.0000 0.54520  0.73810  0.30260  Biso   1.000  H
  H572     1.0000 0.45480  0.73810  0.19740  Biso   1.000  H
  H573     1.0000 0.95480  0.76190  0.69740  Biso   1.000  H
  H574     1.0000 0.04520  0.76190  0.80260  Biso   1.000  H
  H575     1.0000 0.45480  0.26190  0.69740  Biso   1.000  H
  H576     1.0000 0.54520  0.26190  0.80260  Biso   1.000  H
  H577     1.0000 0.10490  0.22460  0.33100  Biso   1.000  H
  H578     1.0000 0.89510  0.22460  0.16900  Biso   1.000  H
  H579     1.0000 0.60490  0.72460  0.33100  Biso   1.000  H
  H580     1.0000 0.39510  0.72460  0.16900  Biso   1.000  H
  H581     1.0000 0.89510  0.77540  0.66900  Biso   1.000  H
  H582     1.0000 0.10490  0.77540  0.83100  Biso   1.000  H
  H583     1.0000 0.39510  0.27540  0.66900  Biso   1.000  H
  H584     1.0000 0.60490  0.27540  0.83100  Biso   1.000  H
  O161     1.0000 0.09040  0.27402  0.27700  Biso   1.000  O
  O162     1.0000 0.90960  0.27402  0.22300  Biso   1.000  O
  O163     1.0000 0.59040  0.77402  0.27700  Biso   1.000  O
  O164     1.0000 0.40960  0.77402  0.22300  Biso   1.000  O
  O165     1.0000 0.90960  0.72598  0.72300  Biso   1.000  O
  O166     1.0000 0.09040  0.72598  0.77700  Biso   1.000  O
  O167     1.0000 0.40960  0.22598  0.72300  Biso   1.000  O
  O168     1.0000 0.59040  0.22598  0.77700  Biso   1.000  O
  C649     1.0000 0.95540  0.56730  0.92000  Biso   1.000  C
  C650     1.0000 0.04460  0.56730  0.58000  Biso   1.000  C
  C651     1.0000 0.45540  0.06730  0.92000  Biso   1.000  C
  C652     1.0000 0.54460  0.06730  0.58000  Biso   1.000  C
  C653     1.0000 0.04460  0.43270  0.08000  Biso   1.000  C
  C654     1.0000 0.95540  0.43270  0.42000  Biso   1.000  C
  C655     1.0000 0.54460  0.93270  0.08000  Biso   1.000  C
  C656     1.0000 0.45540  0.93270  0.42000  Biso   1.000  C
  C657     1.0000 0.99960  0.58040  0.92350  Biso   1.000  C
  C658     1.0000 0.00040  0.58040  0.57650  Biso   1.000  C
  C659     1.0000 0.49960  0.08040  0.92350  Biso   1.000  C
  C660     1.0000 0.50040  0.08040  0.57650  Biso   1.000  C
  C661     1.0000 0.00040  0.41960  0.07650  Biso   1.000  C
  C662     1.0000 0.99960  0.41960  0.42350  Biso   1.000  C
  C663     1.0000 0.50040  0.91960  0.07650  Biso   1.000  C
  C664     1.0000 0.49960  0.91960  0.42350  Biso   1.000  C
  C665     1.0000 0.04290  0.55050  0.93070  Biso   1.000  C
  C666     1.0000 0.95710  0.55050  0.56930  Biso   1.000  C
  C667     1.0000 0.54290  0.05050  0.93070  Biso   1.000  C
  C668     1.0000 0.45710  0.05050  0.56930  Biso   1.000  C
  C669     1.0000 0.95710  0.44950  0.06930  Biso   1.000  C
  C670     1.0000 0.04290  0.44950  0.43070  Biso   1.000  C
  C671     1.0000 0.45710  0.94950  0.06930  Biso   1.000  C
  C672     1.0000 0.54290  0.94950  0.43070  Biso   1.000  C
  C673     1.0000 0.11240  0.38750  0.96880  Biso   1.000  C
  C674     1.0000 0.88760  0.38750  0.53120  Biso   1.000  C
  C675     1.0000 0.61240  0.88750  0.96880  Biso   1.000  C
  C676     1.0000 0.38760  0.88750  0.53120  Biso   1.000  C
  C677     1.0000 0.88760  0.61250  0.03120  Biso   1.000  C
  C678     1.0000 0.11240  0.61250  0.46880  Biso   1.000  C
  C679     1.0000 0.38760  0.11250  0.03120  Biso   1.000  C
  C680     1.0000 0.61240  0.11250  0.46880  Biso   1.000  C
  C681     1.0000 0.13290  0.36740  0.02530  Biso   1.000  C
  C682     1.0000 0.86710  0.36740  0.47470  Biso   1.000  C
  C683     1.0000 0.63290  0.86740  0.02530  Biso   1.000  C
  C684     1.0000 0.36710  0.86740  0.47470  Biso   1.000  C
  C685     1.0000 0.86710  0.63260  0.97470  Biso   1.000  C
  C686     1.0000 0.13290  0.63260  0.52530  Biso   1.000  C
  C687     1.0000 0.36710  0.13260  0.97470  Biso   1.000  C
  C688     1.0000 0.63290  0.13260  0.52530  Biso   1.000  C
  C689     1.0000 0.19090  0.37560  0.05240  Biso   1.000  C
  C690     1.0000 0.80910  0.37560  0.44760  Biso   1.000  C
  C691     1.0000 0.69090  0.87560  0.05240  Biso   1.000  C
  C692     1.0000 0.30910  0.87560  0.44760  Biso   1.000  C
  C693     1.0000 0.80910  0.62440  0.94760  Biso   1.000  C
  C694     1.0000 0.19090  0.62440  0.55240  Biso   1.000  C
  C695     1.0000 0.30910  0.12440  0.94760  Biso   1.000  C
  C696     1.0000 0.69090  0.12440  0.55240  Biso   1.000  C
  C697     1.0000 0.21410  0.36580  0.10890  Biso   1.000  C
  C698     1.0000 0.78590  0.36580  0.39110  Biso   1.000  C
  C699     1.0000 0.71410  0.86580  0.10890  Biso   1.000  C
  C700     1.0000 0.28590  0.86580  0.39110  Biso   1.000  C
  C701     1.0000 0.78590  0.63420  0.89110  Biso   1.000  C
  C702     1.0000 0.21410  0.63420  0.60890  Biso   1.000  C
  C703     1.0000 0.28590  0.13420  0.89110  Biso   1.000  C
  C704     1.0000 0.71410  0.13420  0.60890  Biso   1.000  C
  C705     1.0000 0.02290  0.40380  0.95580  Biso   1.000  C
  C706     1.0000 0.97710  0.40380  0.54420  Biso   1.000  C
  C707     1.0000 0.52290  0.90380  0.95580  Biso   1.000  C
  C708     1.0000 0.47710  0.90380  0.54420  Biso   1.000  C
  C709     1.0000 0.97710  0.59620  0.04420  Biso   1.000  C
  C710     1.0000 0.02290  0.59620  0.45580  Biso   1.000  C
  C711     1.0000 0.47710  0.09620  0.04420  Biso   1.000  C
  C712     1.0000 0.52290  0.09620  0.45580  Biso   1.000  C
  C713     1.0000 0.98180  0.43680  0.94380  Biso   1.000  C
  C714     1.0000 0.01820  0.43680  0.55620  Biso   1.000  C
  C715     1.0000 0.48180  0.93680  0.94380  Biso   1.000  C
  C716     1.0000 0.51820  0.93680  0.55620  Biso   1.000  C
  C717     1.0000 0.01820  0.56320  0.05620  Biso   1.000  C
  C718     1.0000 0.98180  0.56320  0.44380  Biso   1.000  C
  C719     1.0000 0.51820  0.06320  0.05620  Biso   1.000  C
  C720     1.0000 0.48180  0.06320  0.44380  Biso   1.000  C
  C721     1.0000 0.99010  0.48610  0.93910  Biso   1.000  C
  C722     1.0000 0.00990  0.48610  0.56090  Biso   1.000  C
  C723     1.0000 0.49010  0.98610  0.93910  Biso   1.000  C
  C724     1.0000 0.50990  0.98610  0.56090  Biso   1.000  C
  C725     1.0000 0.00990  0.51390  0.06090  Biso   1.000  C
  C726     1.0000 0.99010  0.51390  0.43910  Biso   1.000  C
  C727     1.0000 0.50990  0.01390  0.06090  Biso   1.000  C
  C728     1.0000 0.49010  0.01390  0.43910  Biso   1.000  C
  C729     1.0000 0.03840  0.50360  0.94180  Biso   1.000  C
  C730     1.0000 0.96160  0.50360  0.55820  Biso   1.000  C
  C731     1.0000 0.53840  0.00360  0.94180  Biso   1.000  C
  C732     1.0000 0.46160  0.00360  0.55820  Biso   1.000  C
  C733     1.0000 0.96160  0.49640  0.05820  Biso   1.000  C
  C734     1.0000 0.03840  0.49640  0.44180  Biso   1.000  C
  C735     1.0000 0.46160  0.99640  0.05820  Biso   1.000  C
  C736     1.0000 0.53840  0.99640  0.44180  Biso   1.000  C
  C737     1.0000 0.08100  0.47060  0.95100  Biso   1.000  C
  C738     1.0000 0.91900  0.47060  0.54900  Biso   1.000  C
  C739     1.0000 0.58100  0.97060  0.95100  Biso   1.000  C
  C740     1.0000 0.41900  0.97060  0.54900  Biso   1.000  C
  C741     1.0000 0.91900  0.52940  0.04900  Biso   1.000  C
  C742     1.0000 0.08100  0.52940  0.45100  Biso   1.000  C
  C743     1.0000 0.41900  0.02940  0.04900  Biso   1.000  C
  C744     1.0000 0.58100  0.02940  0.45100  Biso   1.000  C
  C745     1.0000 0.93480  0.42170  0.94200  Biso   1.000  C
  C746     1.0000 0.06520  0.42170  0.55800  Biso   1.000  C
  C747     1.0000 0.43480  0.92170  0.94200  Biso   1.000  C
  C748     1.0000 0.56520  0.92170  0.55800  Biso   1.000  C
  C749     1.0000 0.06520  0.57830  0.05800  Biso   1.000  C
  C750     1.0000 0.93480  0.57830  0.44200  Biso   1.000  C
  C751     1.0000 0.56520  0.07830  0.05800  Biso   1.000  C
  C752     1.0000 0.43480  0.07830  0.44200  Biso   1.000  C
  C753     1.0000 0.89520  0.45470  0.93280  Biso   1.000  C
  C754     1.0000 0.10480  0.45470  0.56720  Biso   1.000  C
  C755     1.0000 0.39520  0.95470  0.93280  Biso   1.000  C
  C756     1.0000 0.60480  0.95470  0.56720  Biso   1.000  C
  C757     1.0000 0.10480  0.54530  0.06720  Biso   1.000  C
  C758     1.0000 0.89520  0.54530  0.43280  Biso   1.000  C
  C759     1.0000 0.60480  0.04530  0.06720  Biso   1.000  C
  C760     1.0000 0.39520  0.04530  0.43280  Biso   1.000  C
  C761     1.0000 0.90000  0.50110  0.92340  Biso   1.000  C
  C762     1.0000 0.10000  0.50110  0.57660  Biso   1.000  C
  C763     1.0000 0.40000  0.00110  0.92340  Biso   1.000  C
  C764     1.0000 0.60000  0.00110  0.57660  Biso   1.000  C
  C765     1.0000 0.10000  0.49890  0.07660  Biso   1.000  C
  C766     1.0000 0.90000  0.49890  0.42340  Biso   1.000  C
  C767     1.0000 0.60000  0.99890  0.07660  Biso   1.000  C
  C768     1.0000 0.40000  0.99890  0.42340  Biso   1.000  C
  C769     1.0000 0.94590  0.51810  0.92560  Biso   1.000  C
  C770     1.0000 0.05410  0.51810  0.57440  Biso   1.000  C
  C771     1.0000 0.44590  0.01810  0.92560  Biso   1.000  C
  C772     1.0000 0.55410  0.01810  0.57440  Biso   1.000  C
  C773     1.0000 0.05410  0.48190  0.07440  Biso   1.000  C
  C774     1.0000 0.94590  0.48190  0.42560  Biso   1.000  C
  C775     1.0000 0.55410  0.98190  0.07440  Biso   1.000  C
  C776     1.0000 0.44590  0.98190  0.42560  Biso   1.000  C
  H585     1.0000 0.92890  0.58980  0.91370  Biso   1.000  H
  H586     1.0000 0.07110  0.58980  0.58630  Biso   1.000  H
  H587     1.0000 0.42890  0.08980  0.91370  Biso   1.000  H
  H588     1.0000 0.57110  0.08980  0.58630  Biso   1.000  H
  H589     1.0000 0.07110  0.41020  0.08630  Biso   1.000  H
  H590     1.0000 0.92890  0.41020  0.41370  Biso   1.000  H
  H591     1.0000 0.57110  0.91020  0.08630  Biso   1.000  H
  H592     1.0000 0.42890  0.91020  0.41370  Biso   1.000  H
  H593     1.0000 0.00440  0.61310  0.92120  Biso   1.000  H
  H594     1.0000 0.99560  0.61310  0.57880  Biso   1.000  H
  H595     1.0000 0.50440  0.11310  0.92120  Biso   1.000  H
  H596     1.0000 0.49560  0.11310  0.57880  Biso   1.000  H
  H597     1.0000 0.99560  0.38690  0.07880  Biso   1.000  H
  H598     1.0000 0.00440  0.38690  0.42120  Biso   1.000  H
  H599     1.0000 0.49560  0.88690  0.07880  Biso   1.000  H
  H600     1.0000 0.50440  0.88690  0.42120  Biso   1.000  H
  H601     1.0000 0.07260  0.56210  0.92800  Biso   1.000  H
  H602     1.0000 0.92740  0.56210  0.57200  Biso   1.000  H
  H603     1.0000 0.57260  0.06210  0.92800  Biso   1.000  H
  H604     1.0000 0.42740  0.06210  0.57200  Biso   1.000  H
  H605     1.0000 0.92740  0.43790  0.07200  Biso   1.000  H
  H606     1.0000 0.07260  0.43790  0.42800  Biso   1.000  H
  H607     1.0000 0.42740  0.93790  0.07200  Biso   1.000  H
  H608     1.0000 0.57260  0.93790  0.42800  Biso   1.000  H
  H609     1.0000 0.14130  0.40230  0.96410  Biso   1.000  H
  H610     1.0000 0.85870  0.40230  0.53590  Biso   1.000  H
  H611     1.0000 0.64130  0.90230  0.96410  Biso   1.000  H
  H612     1.0000 0.35870  0.90230  0.53590  Biso   1.000  H
  H613     1.0000 0.85870  0.59770  0.03590  Biso   1.000  H
  H614     1.0000 0.14130  0.59770  0.46410  Biso   1.000  H
  H615     1.0000 0.35870  0.09770  0.03590  Biso   1.000  H
  H616     1.0000 0.64130  0.09770  0.46410  Biso   1.000  H
  H617     1.0000 0.09910  0.36120  0.94470  Biso   1.000  H
  H618     1.0000 0.90090  0.36120  0.55530  Biso   1.000  H
  H619     1.0000 0.59910  0.86120  0.94470  Biso   1.000  H
  H620     1.0000 0.40090  0.86120  0.55530  Biso   1.000  H
  H621     1.0000 0.90090  0.63880  0.05530  Biso   1.000  H
  H622     1.0000 0.09910  0.63880  0.44470  Biso   1.000  H
  H623     1.0000 0.40090  0.13880  0.05530  Biso   1.000  H
  H624     1.0000 0.59910  0.13880  0.44470  Biso   1.000  H
  H625     1.0000 0.11510  0.38380  0.04310  Biso   1.000  H
  H626     1.0000 0.88490  0.38380  0.45690  Biso   1.000  H
  H627     1.0000 0.61510  0.88380  0.04310  Biso   1.000  H
  H628     1.0000 0.38490  0.88380  0.45690  Biso   1.000  H
  H629     1.0000 0.88490  0.61620  0.95690  Biso   1.000  H
  H630     1.0000 0.11510  0.61620  0.54310  Biso   1.000  H
  H631     1.0000 0.38490  0.11620  0.95690  Biso   1.000  H
  H632     1.0000 0.61510  0.11620  0.54310  Biso   1.000  H
  H633     1.0000 0.12530  0.33350  0.02450  Biso   1.000  H
  H634     1.0000 0.87470  0.33350  0.47550  Biso   1.000  H
  H635     1.0000 0.62530  0.83350  0.02450  Biso   1.000  H
  H636     1.0000 0.37470  0.83350  0.47550  Biso   1.000  H
  H637     1.0000 0.87470  0.66650  0.97550  Biso   1.000  H
  H638     1.0000 0.12530  0.66650  0.52450  Biso   1.000  H
  H639     1.0000 0.37470  0.16650  0.97550  Biso   1.000  H
  H640     1.0000 0.62530  0.16650  0.52450  Biso   1.000  H
  H641     1.0000 0.19830  0.40850  0.04720  Biso   1.000  H
  H642     1.0000 0.80170  0.40850  0.45280  Biso   1.000  H
  H643     1.0000 0.69830  0.90850  0.04720  Biso   1.000  H
  H644     1.0000 0.30170  0.90850  0.45280  Biso   1.000  H
  H645     1.0000 0.80170  0.59150  0.95280  Biso   1.000  H
  H646     1.0000 0.19830  0.59150  0.54720  Biso   1.000  H
  H647     1.0000 0.30170  0.09150  0.95280  Biso   1.000  H
  H648     1.0000 0.69830  0.09150  0.54720  Biso   1.000  H
  H649     1.0000 0.20830  0.35520  0.03720  Biso   1.000  H
  H650     1.0000 0.79170  0.35520  0.46280  Biso   1.000  H
  H651     1.0000 0.70830  0.85520  0.03720  Biso   1.000  H
  H652     1.0000 0.29170  0.85520  0.46280  Biso   1.000  H
  H653     1.0000 0.79170  0.64480  0.96280  Biso   1.000  H
  H654     1.0000 0.20830  0.64480  0.53720  Biso   1.000  H
  H655     1.0000 0.29170  0.14480  0.96280  Biso   1.000  H
  H656     1.0000 0.70830  0.14480  0.53720  Biso   1.000  H
  H657     1.0000 0.92960  0.38960  0.94700  Biso   1.000  H
  H658     1.0000 0.07040  0.38960  0.55300  Biso   1.000  H
  H659     1.0000 0.42960  0.88960  0.94700  Biso   1.000  H
  H660     1.0000 0.57040  0.88960  0.55300  Biso   1.000  H
  H661     1.0000 0.07040  0.61040  0.05300  Biso   1.000  H
  H662     1.0000 0.92960  0.61040  0.44700  Biso   1.000  H
  H663     1.0000 0.57040  0.11040  0.05300  Biso   1.000  H
  H664     1.0000 0.42960  0.11040  0.44700  Biso   1.000  H
  H665     1.0000 0.86390  0.44430  0.93300  Biso   1.000  H
  H666     1.0000 0.13610  0.44430  0.56700  Biso   1.000  H
  H667     1.0000 0.36390  0.94430  0.93300  Biso   1.000  H
  H668     1.0000 0.63610  0.94430  0.56700  Biso   1.000  H
  H669     1.0000 0.13610  0.55570  0.06700  Biso   1.000  H
  H670     1.0000 0.86390  0.55570  0.43300  Biso   1.000  H
  H671     1.0000 0.63610  0.05570  0.06700  Biso   1.000  H
  H672     1.0000 0.36390  0.05570  0.43300  Biso   1.000  H
  H673     1.0000 0.87150  0.52160  0.91530  Biso   1.000  H
  H674     1.0000 0.12850  0.52160  0.58470  Biso   1.000  H
  H675     1.0000 0.37150  0.02160  0.91530  Biso   1.000  H
  H676     1.0000 0.62850  0.02160  0.58470  Biso   1.000  H
  H677     1.0000 0.12850  0.47840  0.08470  Biso   1.000  H
  H678     1.0000 0.87150  0.47840  0.41530  Biso   1.000  H
  H679     1.0000 0.62850  0.97840  0.08470  Biso   1.000  H
  H680     1.0000 0.37150  0.97840  0.41530  Biso   1.000  H
  N49      1.0000 0.07010  0.42320  0.95890  Biso   1.000  N
  N50      1.0000 0.92990  0.42320  0.54110  Biso   1.000  N
  N51      1.0000 0.57010  0.92320  0.95890  Biso   1.000  N
  N52      1.0000 0.42990  0.92320  0.54110  Biso   1.000  N
  N53      1.0000 0.92990  0.57680  0.04110  Biso   1.000  N
  N54      1.0000 0.07010  0.57680  0.45890  Biso   1.000  N
  N55      1.0000 0.42990  0.07680  0.04110  Biso   1.000  N
  N56      1.0000 0.57010  0.07680  0.45890  Biso   1.000  N
  O169     1.0000 0.02360  0.35850  0.95710  Biso   1.000  O
  O170     1.0000 0.97640  0.35850  0.54290  Biso   1.000  O
  O171     1.0000 0.52360  0.85850  0.95710  Biso   1.000  O
  O172     1.0000 0.47640  0.85850  0.54290  Biso   1.000  O
  O173     1.0000 0.97640  0.64150  0.04290  Biso   1.000  O
  O174     1.0000 0.02360  0.64150  0.45710  Biso   1.000  O
  O175     1.0000 0.47640  0.14150  0.04290  Biso   1.000  O
  O176     1.0000 0.52360  0.14150  0.45710  Biso   1.000  O
  O177     1.0000 0.12670  0.47920  0.95960  Biso   1.000  O
  O178     1.0000 0.87330  0.47920  0.54040  Biso   1.000  O
  O179     1.0000 0.62670  0.97920  0.95960  Biso   1.000  O
  O180     1.0000 0.37330  0.97920  0.54040  Biso   1.000  O
  O181     1.0000 0.87330  0.52080  0.04040  Biso   1.000  O
  O182     1.0000 0.12670  0.52080  0.45960  Biso   1.000  O
  O183     1.0000 0.37330  0.02080  0.04040  Biso   1.000  O
  O184     1.0000 0.62670  0.02080  0.45960  Biso   1.000  O
  O185     1.0000 0.18520  0.36610  0.13240  Biso   1.000  O
  O186     1.0000 0.81480  0.36610  0.36760  Biso   1.000  O
  O187     1.0000 0.68520  0.86610  0.13240  Biso   1.000  O
  O188     1.0000 0.31480  0.86610  0.36760  Biso   1.000  O
  O189     1.0000 0.81480  0.63390  0.86760  Biso   1.000  O
  O190     1.0000 0.18520  0.63390  0.63240  Biso   1.000  O
  O191     1.0000 0.31480  0.13390  0.86760  Biso   1.000  O
  O192     1.0000 0.68520  0.13390  0.63240  Biso   1.000  O
  O193     1.0000 0.26200  0.35870  0.13080  Biso   1.000  O
  O194     1.0000 0.73800  0.35870  0.36920  Biso   1.000  O
  O195     1.0000 0.76200  0.85870  0.13080  Biso   1.000  O
  O196     1.0000 0.23800  0.85870  0.36920  Biso   1.000  O
  O197     1.0000 0.73800  0.64130  0.86920  Biso   1.000  O
  O198     1.0000 0.26200  0.64130  0.63080  Biso   1.000  O
  O199     1.0000 0.23800  0.14130  0.86920  Biso   1.000  O
  O200     1.0000 0.76200  0.14130  0.63080  Biso   1.000  O
