data_image0
_cell_length_a       18.7403
_cell_length_b       18.7403
_cell_length_c       41.2715
_cell_angle_alpha    90
_cell_angle_beta     90
_cell_angle_gamma    120

_symmetry_space_group_name_H-M    "P 1"
_symmetry_int_tables_number       1

loop_
  _symmetry_equiv_pos_as_xyz
  'x, y, z'

loop_
  _atom_site_label
  _atom_site_occupancy
  _atom_site_fract_x
  _atom_site_fract_y
  _atom_site_fract_z
  _atom_site_thermal_displace_type
  _atom_site_B_iso_or_equiv
  _atom_site_type_symbol
  Cu1      1.0000 0.28764  0.14382  0.63978  Biso   1.000  Cu
  Cu2      1.0000 0.85618  0.14382  0.63978  Biso   1.000  Cu
  Cu3      1.0000 0.85618  0.71236  0.63978  Biso   1.000  Cu
  Cu4      1.0000 0.14382  0.85618  0.36022  Biso   1.000  Cu
  Cu5      1.0000 0.71236  0.85618  0.36022  Biso   1.000  Cu
  Cu6      1.0000 0.14382  0.28764  0.36022  Biso   1.000  Cu
  Cu7      1.0000 0.95431  0.47715  0.97311  Biso   1.000  Cu
  Cu8      1.0000 0.52285  0.47715  0.97311  Biso   1.000  Cu
  Cu9      1.0000 0.52285  0.04569  0.97311  Biso   1.000  Cu
  Cu10     1.0000 0.81049  0.18951  0.69356  Biso   1.000  Cu
  Cu11     1.0000 0.37903  0.18951  0.69356  Biso   1.000  Cu
  Cu12     1.0000 0.81049  0.62097  0.69356  Biso   1.000  Cu
  Cu13     1.0000 0.62097  0.81049  0.30644  Biso   1.000  Cu
  Cu14     1.0000 0.18951  0.81049  0.30644  Biso   1.000  Cu
  Cu15     1.0000 0.18951  0.37903  0.30644  Biso   1.000  Cu
  Cu16     1.0000 0.47715  0.52285  0.02689  Biso   1.000  Cu
  Cu17     1.0000 0.04569  0.52285  0.02689  Biso   1.000  Cu
  Cu18     1.0000 0.47715  0.95431  0.02689  Biso   1.000  Cu
  O1       1.0000 0.36665  0.11000  0.62692  Biso   1.000  O
  O2       1.0000 0.89000  0.25665  0.62692  Biso   1.000  O
  O3       1.0000 0.74335  0.63335  0.62692  Biso   1.000  O
  O4       1.0000 0.25665  0.89000  0.37308  Biso   1.000  O
  O5       1.0000 0.63335  0.74335  0.37308  Biso   1.000  O
  O6       1.0000 0.11000  0.36665  0.37308  Biso   1.000  O
  O7       1.0000 0.03332  0.44333  0.96025  Biso   1.000  O
  O8       1.0000 0.55667  0.58998  0.96025  Biso   1.000  O
  O9       1.0000 0.41002  0.96668  0.96025  Biso   1.000  O
  O10      1.0000 0.92332  0.22333  0.70641  Biso   1.000  O
  O11      1.0000 0.30002  0.07668  0.70641  Biso   1.000  O
  O12      1.0000 0.77667  0.69998  0.70641  Biso   1.000  O
  O13      1.0000 0.69998  0.77667  0.29359  Biso   1.000  O
  O14      1.0000 0.22333  0.92332  0.29359  Biso   1.000  O
  O15      1.0000 0.07668  0.30002  0.29359  Biso   1.000  O
  O16      1.0000 0.58998  0.55667  0.03975  Biso   1.000  O
  O17      1.0000 0.96668  0.41002  0.03975  Biso   1.000  O
  O18      1.0000 0.44333  0.03332  0.03975  Biso   1.000  O
  O19      1.0000 0.63335  0.89000  0.37308  Biso   1.000  O
  O20      1.0000 0.11000  0.74335  0.37308  Biso   1.000  O
  O21      1.0000 0.25665  0.36665  0.37308  Biso   1.000  O
  O22      1.0000 0.74335  0.11000  0.62692  Biso   1.000  O
  O23      1.0000 0.36665  0.25665  0.62692  Biso   1.000  O
  O24      1.0000 0.89000  0.63335  0.62692  Biso   1.000  O
  O25      1.0000 0.30002  0.22333  0.70641  Biso   1.000  O
  O26      1.0000 0.77667  0.07668  0.70641  Biso   1.000  O
  O27      1.0000 0.92332  0.69998  0.70641  Biso   1.000  O
  O28      1.0000 0.41002  0.44333  0.96025  Biso   1.000  O
  O29      1.0000 0.03332  0.58998  0.96025  Biso   1.000  O
  O30      1.0000 0.55667  0.96668  0.96025  Biso   1.000  O
  O31      1.0000 0.96668  0.55667  0.03975  Biso   1.000  O
  O32      1.0000 0.44333  0.41002  0.03975  Biso   1.000  O
  O33      1.0000 0.58998  0.03332  0.03975  Biso   1.000  O
  O34      1.0000 0.07668  0.77667  0.29359  Biso   1.000  O
  O35      1.0000 0.69998  0.92332  0.29359  Biso   1.000  O
  O36      1.0000 0.22333  0.30002  0.29359  Biso   1.000  O
  C1       1.0000 0.42790  0.12050  0.64389  Biso   1.000  C
  C2       1.0000 0.87950  0.30740  0.64389  Biso   1.000  C
  C3       1.0000 0.69260  0.57210  0.64389  Biso   1.000  C
  C4       1.0000 0.30740  0.87950  0.35611  Biso   1.000  C
  C5       1.0000 0.57210  0.69260  0.35611  Biso   1.000  C
  C6       1.0000 0.12050  0.42790  0.35611  Biso   1.000  C
  C7       1.0000 0.09457  0.45383  0.97722  Biso   1.000  C
  C8       1.0000 0.54617  0.64073  0.97722  Biso   1.000  C
  C9       1.0000 0.35927  0.90543  0.97722  Biso   1.000  C
  C10      1.0000 0.97407  0.21283  0.68944  Biso   1.000  C
  C11      1.0000 0.23877  0.02593  0.68944  Biso   1.000  C
  C12      1.0000 0.78717  0.76123  0.68944  Biso   1.000  C
  C13      1.0000 0.76123  0.78717  0.31056  Biso   1.000  C
  C14      1.0000 0.21283  0.97407  0.31056  Biso   1.000  C
  C15      1.0000 0.02593  0.23877  0.31056  Biso   1.000  C
  C16      1.0000 0.64073  0.54617  0.02278  Biso   1.000  C
  C17      1.0000 0.90543  0.35927  0.02278  Biso   1.000  C
  C18      1.0000 0.45383  0.09457  0.02278  Biso   1.000  C
  C19      1.0000 0.57210  0.87950  0.35611  Biso   1.000  C
  C20      1.0000 0.12050  0.69260  0.35611  Biso   1.000  C
  C21      1.0000 0.30740  0.42790  0.35611  Biso   1.000  C
  C22      1.0000 0.69260  0.12050  0.64389  Biso   1.000  C
  C23      1.0000 0.42790  0.30740  0.64389  Biso   1.000  C
  C24      1.0000 0.87950  0.57210  0.64389  Biso   1.000  C
  C25      1.0000 0.23877  0.21283  0.68944  Biso   1.000  C
  C26      1.0000 0.78717  0.02593  0.68944  Biso   1.000  C
  C27      1.0000 0.97407  0.76123  0.68944  Biso   1.000  C
  C28      1.0000 0.35927  0.45383  0.97722  Biso   1.000  C
  C29      1.0000 0.09457  0.64073  0.97722  Biso   1.000  C
  C30      1.0000 0.54617  0.90543  0.97722  Biso   1.000  C
  C31      1.0000 0.90543  0.54617  0.02278  Biso   1.000  C
  C32      1.0000 0.45383  0.35927  0.02278  Biso   1.000  C
  C33      1.0000 0.64073  0.09457  0.02278  Biso   1.000  C
  C34      1.0000 0.02593  0.78717  0.31056  Biso   1.000  C
  C35      1.0000 0.76123  0.97407  0.31056  Biso   1.000  C
  C36      1.0000 0.21283  0.23877  0.31056  Biso   1.000  C
  O37      1.0000 0.44480  0.14969  0.67172  Biso   1.000  O
  O38      1.0000 0.85031  0.29511  0.67172  Biso   1.000  O
  O39      1.0000 0.70489  0.55520  0.67172  Biso   1.000  O
  O40      1.0000 0.29511  0.85031  0.32828  Biso   1.000  O
  O41      1.0000 0.55520  0.70489  0.32828  Biso   1.000  O
  O42      1.0000 0.14969  0.44480  0.32828  Biso   1.000  O
  O43      1.0000 0.11147  0.48302  0.00505  Biso   1.000  O
  O44      1.0000 0.51698  0.62844  0.00505  Biso   1.000  O
  O45      1.0000 0.37156  0.88853  0.00505  Biso   1.000  O
  O46      1.0000 0.96178  0.18364  0.66161  Biso   1.000  O
  O47      1.0000 0.22187  0.03822  0.66161  Biso   1.000  O
  O48      1.0000 0.81636  0.77813  0.66161  Biso   1.000  O
  O49      1.0000 0.77813  0.81636  0.33839  Biso   1.000  O
  O50      1.0000 0.18364  0.96178  0.33839  Biso   1.000  O
  O51      1.0000 0.03822  0.22187  0.33839  Biso   1.000  O
  O52      1.0000 0.62844  0.51698  0.99495  Biso   1.000  O
  O53      1.0000 0.88853  0.37156  0.99495  Biso   1.000  O
  O54      1.0000 0.48302  0.11147  0.99495  Biso   1.000  O
  O55      1.0000 0.55520  0.85031  0.32828  Biso   1.000  O
  O56      1.0000 0.14969  0.70489  0.32828  Biso   1.000  O
  O57      1.0000 0.29511  0.44480  0.32828  Biso   1.000  O
  O58      1.0000 0.70489  0.14969  0.67172  Biso   1.000  O
  O59      1.0000 0.44480  0.29511  0.67172  Biso   1.000  O
  O60      1.0000 0.85031  0.55520  0.67172  Biso   1.000  O
  O61      1.0000 0.22187  0.18364  0.66161  Biso   1.000  O
  O62      1.0000 0.81636  0.03822  0.66161  Biso   1.000  O
  O63      1.0000 0.96178  0.77813  0.66161  Biso   1.000  O
  O64      1.0000 0.37156  0.48302  0.00505  Biso   1.000  O
  O65      1.0000 0.11147  0.62844  0.00505  Biso   1.000  O
  O66      1.0000 0.51698  0.88853  0.00505  Biso   1.000  O
  O67      1.0000 0.88853  0.51698  0.99495  Biso   1.000  O
  O68      1.0000 0.48302  0.37156  0.99495  Biso   1.000  O
  O69      1.0000 0.62844  0.11147  0.99495  Biso   1.000  O
  O70      1.0000 0.03822  0.81636  0.33839  Biso   1.000  O
  O71      1.0000 0.77813  0.96178  0.33839  Biso   1.000  O
  O72      1.0000 0.18364  0.22187  0.33839  Biso   1.000  O
  O73      1.0000 0.22860  0.11429  0.59365  Biso   1.000  O
  O74      1.0000 0.88571  0.11431  0.59365  Biso   1.000  O
  O75      1.0000 0.88569  0.77140  0.59365  Biso   1.000  O
  O76      1.0000 0.11431  0.88571  0.40635  Biso   1.000  O
  O77      1.0000 0.77140  0.88569  0.40635  Biso   1.000  O
  O78      1.0000 0.11429  0.22860  0.40635  Biso   1.000  O
  O79      1.0000 0.89527  0.44762  0.92698  Biso   1.000  O
  O80      1.0000 0.55238  0.44764  0.92698  Biso   1.000  O
  O81      1.0000 0.55236  0.10473  0.92698  Biso   1.000  O
  O82      1.0000 0.78098  0.21904  0.73968  Biso   1.000  O
  O83      1.0000 0.43807  0.21902  0.73968  Biso   1.000  O
  O84      1.0000 0.78096  0.56193  0.73968  Biso   1.000  O
  O85      1.0000 0.56193  0.78096  0.26032  Biso   1.000  O
  O86      1.0000 0.21904  0.78098  0.26032  Biso   1.000  O
  O87      1.0000 0.21902  0.43807  0.26032  Biso   1.000  O
  O88      1.0000 0.44764  0.55238  0.07302  Biso   1.000  O
  O89      1.0000 0.10473  0.55236  0.07302  Biso   1.000  O
  O90      1.0000 0.44762  0.89527  0.07302  Biso   1.000  O
  C37      1.0000 0.48660  0.10550  0.62730  Biso   1.000  C
  C38      1.0000 0.89450  0.38110  0.62730  Biso   1.000  C
  C39      1.0000 0.61890  0.51340  0.62730  Biso   1.000  C
  C40      1.0000 0.38110  0.89450  0.37270  Biso   1.000  C
  C41      1.0000 0.51340  0.61890  0.37270  Biso   1.000  C
  C42      1.0000 0.10550  0.48660  0.37270  Biso   1.000  C
  C43      1.0000 0.15327  0.43883  0.96063  Biso   1.000  C
  C44      1.0000 0.56117  0.71443  0.96063  Biso   1.000  C
  C45      1.0000 0.28557  0.84673  0.96063  Biso   1.000  C
  C46      1.0000 0.04777  0.22783  0.70603  Biso   1.000  C
  C47      1.0000 0.18007  0.95223  0.70603  Biso   1.000  C
  C48      1.0000 0.77217  0.81993  0.70603  Biso   1.000  C
  C49      1.0000 0.81993  0.77217  0.29397  Biso   1.000  C
  C50      1.0000 0.22783  0.04777  0.29397  Biso   1.000  C
  C51      1.0000 0.95223  0.18007  0.29397  Biso   1.000  C
  C52      1.0000 0.71443  0.56117  0.03937  Biso   1.000  C
  C53      1.0000 0.84673  0.28557  0.03937  Biso   1.000  C
  C54      1.0000 0.43883  0.15327  0.03937  Biso   1.000  C
  C55      1.0000 0.51340  0.89450  0.37270  Biso   1.000  C
  C56      1.0000 0.10550  0.61890  0.37270  Biso   1.000  C
  C57      1.0000 0.38110  0.48660  0.37270  Biso   1.000  C
  C58      1.0000 0.61890  0.10550  0.62730  Biso   1.000  C
  C59      1.0000 0.48660  0.38110  0.62730  Biso   1.000  C
  C60      1.0000 0.89450  0.51340  0.62730  Biso   1.000  C
  C61      1.0000 0.18007  0.22783  0.70603  Biso   1.000  C
  C62      1.0000 0.77217  0.95223  0.70603  Biso   1.000  C
  C63      1.0000 0.04777  0.81993  0.70603  Biso   1.000  C
  C64      1.0000 0.28557  0.43883  0.96063  Biso   1.000  C
  C65      1.0000 0.15327  0.71443  0.96063  Biso   1.000  C
  C66      1.0000 0.56117  0.84673  0.96063  Biso   1.000  C
  C67      1.0000 0.84673  0.56117  0.03937  Biso   1.000  C
  C68      1.0000 0.43883  0.28557  0.03937  Biso   1.000  C
  C69      1.0000 0.71443  0.15327  0.03937  Biso   1.000  C
  C70      1.0000 0.95223  0.77217  0.29397  Biso   1.000  C
  C71      1.0000 0.81993  0.04777  0.29397  Biso   1.000  C
  C72      1.0000 0.22783  0.18007  0.29397  Biso   1.000  C
  C73      1.0000 0.47430  0.07890  0.59500  Biso   1.000  C
  C74      1.0000 0.92110  0.39540  0.59500  Biso   1.000  C
  C75      1.0000 0.60460  0.52570  0.59500  Biso   1.000  C
  C76      1.0000 0.39540  0.92110  0.40500  Biso   1.000  C
  C77      1.0000 0.52570  0.60460  0.40500  Biso   1.000  C
  C78      1.0000 0.07890  0.47430  0.40500  Biso   1.000  C
  C79      1.0000 0.14097  0.41223  0.92833  Biso   1.000  C
  C80      1.0000 0.58777  0.72873  0.92833  Biso   1.000  C
  C81      1.0000 0.27127  0.85903  0.92833  Biso   1.000  C
  C82      1.0000 0.06207  0.25443  0.73833  Biso   1.000  C
  C83      1.0000 0.19237  0.93793  0.73833  Biso   1.000  C
  C84      1.0000 0.74557  0.80763  0.73833  Biso   1.000  C
  C85      1.0000 0.80763  0.74557  0.26167  Biso   1.000  C
  C86      1.0000 0.25443  0.06207  0.26167  Biso   1.000  C
  C87      1.0000 0.93793  0.19237  0.26167  Biso   1.000  C
  C88      1.0000 0.72873  0.58777  0.07167  Biso   1.000  C
  C89      1.0000 0.85903  0.27127  0.07167  Biso   1.000  C
  C90      1.0000 0.41223  0.14097  0.07167  Biso   1.000  C
  C91      1.0000 0.52570  0.92110  0.40500  Biso   1.000  C
  C92      1.0000 0.07890  0.60460  0.40500  Biso   1.000  C
  C93      1.0000 0.39540  0.47430  0.40500  Biso   1.000  C
  C94      1.0000 0.60460  0.07890  0.59500  Biso   1.000  C
  C95      1.0000 0.47430  0.39540  0.59500  Biso   1.000  C
  C96      1.0000 0.92110  0.52570  0.59500  Biso   1.000  C
  C97      1.0000 0.19237  0.25443  0.73833  Biso   1.000  C
  C98      1.0000 0.74557  0.93793  0.73833  Biso   1.000  C
  C99      1.0000 0.06207  0.80763  0.73833  Biso   1.000  C
  C100     1.0000 0.27127  0.41223  0.92833  Biso   1.000  C
  C101     1.0000 0.14097  0.72873  0.92833  Biso   1.000  C
  C102     1.0000 0.58777  0.85903  0.92833  Biso   1.000  C
  C103     1.0000 0.85903  0.58777  0.07167  Biso   1.000  C
  C104     1.0000 0.41223  0.27127  0.07167  Biso   1.000  C
  C105     1.0000 0.72873  0.14097  0.07167  Biso   1.000  C
  C106     1.0000 0.93793  0.74557  0.26167  Biso   1.000  C
  C107     1.0000 0.80763  0.06207  0.26167  Biso   1.000  C
  C108     1.0000 0.25443  0.19237  0.26167  Biso   1.000  C
  H1       1.0000 0.42680  0.07060  0.58350  Biso   1.000  H
  H2       1.0000 0.92940  0.35620  0.58350  Biso   1.000  H
  H3       1.0000 0.64380  0.57320  0.58350  Biso   1.000  H
  H4       1.0000 0.35620  0.92940  0.41650  Biso   1.000  H
  H5       1.0000 0.57320  0.64380  0.41650  Biso   1.000  H
  H6       1.0000 0.07060  0.42680  0.41650  Biso   1.000  H
  H7       1.0000 0.09347  0.40393  0.91683  Biso   1.000  H
  H8       1.0000 0.59607  0.68953  0.91683  Biso   1.000  H
  H9       1.0000 0.31047  0.90653  0.91683  Biso   1.000  H
  H10      1.0000 0.02287  0.26273  0.74983  Biso   1.000  H
  H11      1.0000 0.23987  0.97713  0.74983  Biso   1.000  H
  H12      1.0000 0.73727  0.76013  0.74983  Biso   1.000  H
  H13      1.0000 0.76013  0.73727  0.25017  Biso   1.000  H
  H14      1.0000 0.26273  0.02287  0.25017  Biso   1.000  H
  H15      1.0000 0.97713  0.23987  0.25017  Biso   1.000  H
  H16      1.0000 0.68953  0.59607  0.08317  Biso   1.000  H
  H17      1.0000 0.90653  0.31047  0.08317  Biso   1.000  H
  H18      1.0000 0.40393  0.09347  0.08317  Biso   1.000  H
  H19      1.0000 0.57320  0.92940  0.41650  Biso   1.000  H
  H20      1.0000 0.07060  0.64380  0.41650  Biso   1.000  H
  H21      1.0000 0.35620  0.42680  0.41650  Biso   1.000  H
  H22      1.0000 0.64380  0.07060  0.58350  Biso   1.000  H
  H23      1.0000 0.42680  0.35620  0.58350  Biso   1.000  H
  H24      1.0000 0.92940  0.57320  0.58350  Biso   1.000  H
  H25      1.0000 0.23987  0.26273  0.74983  Biso   1.000  H
  H26      1.0000 0.73727  0.97713  0.74983  Biso   1.000  H
  H27      1.0000 0.02287  0.76013  0.74983  Biso   1.000  H
  H28      1.0000 0.31047  0.40393  0.91683  Biso   1.000  H
  H29      1.0000 0.09347  0.68953  0.91683  Biso   1.000  H
  H30      1.0000 0.59607  0.90653  0.91683  Biso   1.000  H
  H31      1.0000 0.90653  0.59607  0.08317  Biso   1.000  H
  H32      1.0000 0.40393  0.31047  0.08317  Biso   1.000  H
  H33      1.0000 0.68953  0.09347  0.08317  Biso   1.000  H
  H34      1.0000 0.97713  0.73727  0.25017  Biso   1.000  H
  H35      1.0000 0.76013  0.02287  0.25017  Biso   1.000  H
  H36      1.0000 0.26273  0.23987  0.25017  Biso   1.000  H
  C109     1.0000 0.53250  0.06510  0.58010  Biso   1.000  C
  C110     1.0000 0.93490  0.46740  0.58010  Biso   1.000  C
  C111     1.0000 0.53260  0.46750  0.58010  Biso   1.000  C
  C112     1.0000 0.46740  0.93490  0.41990  Biso   1.000  C
  C113     1.0000 0.46750  0.53260  0.41990  Biso   1.000  C
  C114     1.0000 0.06510  0.53250  0.41990  Biso   1.000  C
  C115     1.0000 0.19917  0.39843  0.91343  Biso   1.000  C
  C116     1.0000 0.60157  0.80073  0.91343  Biso   1.000  C
  C117     1.0000 0.19927  0.80083  0.91343  Biso   1.000  C
  C118     1.0000 0.13407  0.26823  0.75323  Biso   1.000  C
  C119     1.0000 0.13417  0.86593  0.75323  Biso   1.000  C
  C120     1.0000 0.73177  0.86583  0.75323  Biso   1.000  C
  C121     1.0000 0.86583  0.73177  0.24677  Biso   1.000  C
  C122     1.0000 0.26823  0.13407  0.24677  Biso   1.000  C
  C123     1.0000 0.86593  0.13417  0.24677  Biso   1.000  C
  C124     1.0000 0.80073  0.60157  0.08657  Biso   1.000  C
  C125     1.0000 0.80083  0.19927  0.08657  Biso   1.000  C
  C126     1.0000 0.39843  0.19917  0.08657  Biso   1.000  C
  C127     1.0000 0.55860  0.11710  0.64290  Biso   1.000  C
  C128     1.0000 0.88290  0.44150  0.64290  Biso   1.000  C
  C129     1.0000 0.55850  0.44140  0.64290  Biso   1.000  C
  C130     1.0000 0.44150  0.88290  0.35710  Biso   1.000  C
  C131     1.0000 0.44140  0.55850  0.35710  Biso   1.000  C
  C132     1.0000 0.11710  0.55860  0.35710  Biso   1.000  C
  C133     1.0000 0.22527  0.45043  0.97623  Biso   1.000  C
  C134     1.0000 0.54957  0.77483  0.97623  Biso   1.000  C
  C135     1.0000 0.22517  0.77473  0.97623  Biso   1.000  C
  C136     1.0000 0.10817  0.21623  0.69043  Biso   1.000  C
  C137     1.0000 0.10807  0.89183  0.69043  Biso   1.000  C
  C138     1.0000 0.78377  0.89193  0.69043  Biso   1.000  C
  C139     1.0000 0.89193  0.78377  0.30957  Biso   1.000  C
  C140     1.0000 0.21623  0.10817  0.30957  Biso   1.000  C
  C141     1.0000 0.89183  0.10807  0.30957  Biso   1.000  C
  C142     1.0000 0.77483  0.54957  0.02377  Biso   1.000  C
  C143     1.0000 0.77473  0.22517  0.02377  Biso   1.000  C
  C144     1.0000 0.45043  0.22527  0.02377  Biso   1.000  C
  H37      1.0000 0.56680  0.13360  0.66500  Biso   1.000  H
  H38      1.0000 0.86640  0.43320  0.66500  Biso   1.000  H
  H39      1.0000 0.56680  0.43320  0.66500  Biso   1.000  H
  H40      1.0000 0.43320  0.86640  0.33500  Biso   1.000  H
  H41      1.0000 0.43320  0.56680  0.33500  Biso   1.000  H
  H42      1.0000 0.13360  0.56680  0.33500  Biso   1.000  H
  H43      1.0000 0.23347  0.46693  0.99833  Biso   1.000  H
  H44      1.0000 0.53307  0.76653  0.99833  Biso   1.000  H
  H45      1.0000 0.23347  0.76653  0.99833  Biso   1.000  H
  H46      1.0000 0.09987  0.19973  0.66833  Biso   1.000  H
  H47      1.0000 0.09987  0.90013  0.66833  Biso   1.000  H
  H48      1.0000 0.80027  0.90013  0.66833  Biso   1.000  H
  H49      1.0000 0.90013  0.80027  0.33167  Biso   1.000  H
  H50      1.0000 0.19973  0.09987  0.33167  Biso   1.000  H
  H51      1.0000 0.90013  0.09987  0.33167  Biso   1.000  H
  H52      1.0000 0.76653  0.53307  0.00167  Biso   1.000  H
  H53      1.0000 0.76653  0.23347  0.00167  Biso   1.000  H
  H54      1.0000 0.46693  0.23347  0.00167  Biso   1.000  H
  N1       1.0000 0.51910  0.03820  0.54690  Biso   1.000  N
  N2       1.0000 0.96180  0.48090  0.54690  Biso   1.000  N
  N3       1.0000 0.51910  0.48090  0.54690  Biso   1.000  N
  N4       1.0000 0.48090  0.96180  0.45310  Biso   1.000  N
  N5       1.0000 0.48090  0.51910  0.45310  Biso   1.000  N
  N6       1.0000 0.03820  0.51910  0.45310  Biso   1.000  N
  N7       1.0000 0.18577  0.37153  0.88023  Biso   1.000  N
  N8       1.0000 0.62847  0.81423  0.88023  Biso   1.000  N
  N9       1.0000 0.18577  0.81423  0.88023  Biso   1.000  N
  N10      1.0000 0.14757  0.29513  0.78643  Biso   1.000  N
  N11      1.0000 0.14757  0.85243  0.78643  Biso   1.000  N
  N12      1.0000 0.70487  0.85243  0.78643  Biso   1.000  N
  N13      1.0000 0.85243  0.70487  0.21357  Biso   1.000  N
  N14      1.0000 0.29513  0.14757  0.21357  Biso   1.000  N
  N15      1.0000 0.85243  0.14757  0.21357  Biso   1.000  N
  N16      1.0000 0.81423  0.62847  0.11977  Biso   1.000  N
  N17      1.0000 0.81423  0.18577  0.11977  Biso   1.000  N
  N18      1.0000 0.37153  0.18577  0.11977  Biso   1.000  N
  C145     1.0000 0.56530  0.02200  0.52710  Biso   1.000  C
  C146     1.0000 0.97800  0.54330  0.52710  Biso   1.000  C
  C147     1.0000 0.45670  0.43470  0.52710  Biso   1.000  C
  C148     1.0000 0.54330  0.97800  0.47290  Biso   1.000  C
  C149     1.0000 0.43470  0.45670  0.47290  Biso   1.000  C
  C150     1.0000 0.02200  0.56530  0.47290  Biso   1.000  C
  C151     1.0000 0.23197  0.35533  0.86043  Biso   1.000  C
  C152     1.0000 0.64467  0.87663  0.86043  Biso   1.000  C
  C153     1.0000 0.12337  0.76803  0.86043  Biso   1.000  C
  C154     1.0000 0.20997  0.31133  0.80623  Biso   1.000  C
  C155     1.0000 0.10137  0.79003  0.80623  Biso   1.000  C
  C156     1.0000 0.68867  0.89863  0.80623  Biso   1.000  C
  C157     1.0000 0.89863  0.68867  0.19377  Biso   1.000  C
  C158     1.0000 0.31133  0.20997  0.19377  Biso   1.000  C
  C159     1.0000 0.79003  0.10137  0.19377  Biso   1.000  C
  C160     1.0000 0.87663  0.64467  0.13957  Biso   1.000  C
  C161     1.0000 0.76803  0.12337  0.13957  Biso   1.000  C
  C162     1.0000 0.35533  0.23197  0.13957  Biso   1.000  C
  C163     1.0000 0.43470  0.97800  0.47290  Biso   1.000  C
  C164     1.0000 0.02200  0.45670  0.47290  Biso   1.000  C
  C165     1.0000 0.54330  0.56530  0.47290  Biso   1.000  C
  C166     1.0000 0.45670  0.02200  0.52710  Biso   1.000  C
  C167     1.0000 0.56530  0.54330  0.52710  Biso   1.000  C
  C168     1.0000 0.97800  0.43470  0.52710  Biso   1.000  C
  C169     1.0000 0.10137  0.31133  0.80623  Biso   1.000  C
  C170     1.0000 0.68867  0.79003  0.80623  Biso   1.000  C
  C171     1.0000 0.20997  0.89863  0.80623  Biso   1.000  C
  C172     1.0000 0.12337  0.35533  0.86043  Biso   1.000  C
  C173     1.0000 0.23197  0.87663  0.86043  Biso   1.000  C
  C174     1.0000 0.64467  0.76803  0.86043  Biso   1.000  C
  C175     1.0000 0.76803  0.64467  0.13957  Biso   1.000  C
  C176     1.0000 0.35533  0.12337  0.13957  Biso   1.000  C
  C177     1.0000 0.87663  0.23197  0.13957  Biso   1.000  C
  C178     1.0000 0.79003  0.68867  0.19377  Biso   1.000  C
  C179     1.0000 0.89863  0.20997  0.19377  Biso   1.000  C
  C180     1.0000 0.31133  0.10137  0.19377  Biso   1.000  C
  C181     1.0000 0.52200  0.00000  0.50000  Biso   1.000  C
  C182     1.0000 0.00000  0.52200  0.50000  Biso   1.000  C
  C183     1.0000 0.47800  0.47800  0.50000  Biso   1.000  C
  C184     1.0000 0.18867  0.33333  0.83333  Biso   1.000  C
  C185     1.0000 0.66667  0.85533  0.83333  Biso   1.000  C
  C186     1.0000 0.14467  0.81133  0.83333  Biso   1.000  C
  C187     1.0000 0.85533  0.66667  0.16667  Biso   1.000  C
  C188     1.0000 0.33333  0.18867  0.16667  Biso   1.000  C
  C189     1.0000 0.81133  0.14467  0.16667  Biso   1.000  C
  C190     1.0000 0.47800  0.00000  0.50000  Biso   1.000  C
  C191     1.0000 0.00000  0.47800  0.50000  Biso   1.000  C
  C192     1.0000 0.52200  0.52200  0.50000  Biso   1.000  C
  C193     1.0000 0.14467  0.33333  0.83333  Biso   1.000  C
  C194     1.0000 0.66667  0.81133  0.83333  Biso   1.000  C
  C195     1.0000 0.18867  0.85533  0.83333  Biso   1.000  C
  C196     1.0000 0.81133  0.66667  0.16667  Biso   1.000  C
  C197     1.0000 0.33333  0.14467  0.16667  Biso   1.000  C
  C198     1.0000 0.85533  0.18867  0.16667  Biso   1.000  C
  N19      1.0000 0.44890  0.00000  0.50000  Biso   1.000  N
  N20      1.0000 0.00000  0.44890  0.50000  Biso   1.000  N
  N21      1.0000 0.55110  0.55110  0.50000  Biso   1.000  N
  N22      1.0000 0.11557  0.33333  0.83333  Biso   1.000  N
  N23      1.0000 0.66667  0.78223  0.83333  Biso   1.000  N
  N24      1.0000 0.21777  0.88443  0.83333  Biso   1.000  N
  N25      1.0000 0.78223  0.66667  0.16667  Biso   1.000  N
  N26      1.0000 0.33333  0.11557  0.16667  Biso   1.000  N
  N27      1.0000 0.88443  0.21777  0.16667  Biso   1.000  N
  N28      1.0000 0.55110  0.00000  0.50000  Biso   1.000  N
  N29      1.0000 0.00000  0.55110  0.50000  Biso   1.000  N
  N30      1.0000 0.44890  0.44890  0.50000  Biso   1.000  N
  N31      1.0000 0.21777  0.33333  0.83333  Biso   1.000  N
  N32      1.0000 0.66667  0.88443  0.83333  Biso   1.000  N
  N33      1.0000 0.11557  0.78223  0.83333  Biso   1.000  N
  N34      1.0000 0.88443  0.66667  0.16667  Biso   1.000  N
  N35      1.0000 0.33333  0.21777  0.16667  Biso   1.000  N
  N36      1.0000 0.78223  0.11557  0.16667  Biso   1.000  N
  N37      1.0000 0.45070  0.02470  0.53050  Biso   1.000  N
  N38      1.0000 0.97530  0.42600  0.53050  Biso   1.000  N
  N39      1.0000 0.57400  0.54930  0.53050  Biso   1.000  N
  N40      1.0000 0.42600  0.97530  0.46950  Biso   1.000  N
  N41      1.0000 0.54930  0.57400  0.46950  Biso   1.000  N
  N42      1.0000 0.02470  0.45070  0.46950  Biso   1.000  N
  N43      1.0000 0.11737  0.35803  0.86383  Biso   1.000  N
  N44      1.0000 0.64197  0.75933  0.86383  Biso   1.000  N
  N45      1.0000 0.24067  0.88263  0.86383  Biso   1.000  N
  N46      1.0000 0.09267  0.30863  0.80283  Biso   1.000  N
  N47      1.0000 0.21597  0.90733  0.80283  Biso   1.000  N
  N48      1.0000 0.69137  0.78403  0.80283  Biso   1.000  N
  N49      1.0000 0.78403  0.69137  0.19717  Biso   1.000  N
  N50      1.0000 0.30863  0.09267  0.19717  Biso   1.000  N
  N51      1.0000 0.90733  0.21597  0.19717  Biso   1.000  N
  N52      1.0000 0.75933  0.64197  0.13617  Biso   1.000  N
  N53      1.0000 0.88263  0.24067  0.13617  Biso   1.000  N
  N54      1.0000 0.35803  0.11737  0.13617  Biso   1.000  N
  N55      1.0000 0.54930  0.97530  0.46950  Biso   1.000  N
  N56      1.0000 0.02470  0.57400  0.46950  Biso   1.000  N
  N57      1.0000 0.42600  0.45070  0.46950  Biso   1.000  N
  N58      1.0000 0.57400  0.02470  0.53050  Biso   1.000  N
  N59      1.0000 0.45070  0.42600  0.53050  Biso   1.000  N
  N60      1.0000 0.97530  0.54930  0.53050  Biso   1.000  N
  N61      1.0000 0.21597  0.30863  0.80283  Biso   1.000  N
  N62      1.0000 0.69137  0.90733  0.80283  Biso   1.000  N
  N63      1.0000 0.09267  0.78403  0.80283  Biso   1.000  N
  N64      1.0000 0.24067  0.35803  0.86383  Biso   1.000  N
  N65      1.0000 0.11737  0.75933  0.86383  Biso   1.000  N
  N66      1.0000 0.64197  0.88263  0.86383  Biso   1.000  N
  N67      1.0000 0.88263  0.64197  0.13617  Biso   1.000  N
  N68      1.0000 0.35803  0.24067  0.13617  Biso   1.000  N
  N69      1.0000 0.75933  0.11737  0.13617  Biso   1.000  N
  N70      1.0000 0.90733  0.69137  0.19717  Biso   1.000  N
  N71      1.0000 0.78403  0.09267  0.19717  Biso   1.000  N
  N72      1.0000 0.30863  0.21597  0.19717  Biso   1.000  N
  C199     1.0000 0.53560  0.97370  0.46740  Biso   1.000  C
  C200     1.0000 0.02630  0.56190  0.46740  Biso   1.000  C
  C201     1.0000 0.43810  0.46440  0.46740  Biso   1.000  C
  C202     1.0000 0.56190  0.02630  0.53260  Biso   1.000  C
  C203     1.0000 0.46440  0.43810  0.53260  Biso   1.000  C
  C204     1.0000 0.97370  0.53560  0.53260  Biso   1.000  C
  C205     1.0000 0.20227  0.30703  0.80073  Biso   1.000  C
  C206     1.0000 0.69297  0.89523  0.80073  Biso   1.000  C
  C207     1.0000 0.10477  0.79773  0.80073  Biso   1.000  C
  C208     1.0000 0.22857  0.35963  0.86593  Biso   1.000  C
  C209     1.0000 0.13107  0.77143  0.86593  Biso   1.000  C
  C210     1.0000 0.64037  0.86893  0.86593  Biso   1.000  C
  C211     1.0000 0.86893  0.64037  0.13407  Biso   1.000  C
  C212     1.0000 0.35963  0.22857  0.13407  Biso   1.000  C
  C213     1.0000 0.77143  0.13107  0.13407  Biso   1.000  C
  C214     1.0000 0.89523  0.69297  0.19927  Biso   1.000  C
  C215     1.0000 0.79773  0.10477  0.19927  Biso   1.000  C
  C216     1.0000 0.30703  0.20227  0.19927  Biso   1.000  C
  C217     1.0000 0.46440  0.02630  0.53260  Biso   1.000  C
  C218     1.0000 0.97370  0.43810  0.53260  Biso   1.000  C
  C219     1.0000 0.56190  0.53560  0.53260  Biso   1.000  C
  C220     1.0000 0.43810  0.97370  0.46740  Biso   1.000  C
  C221     1.0000 0.53560  0.56190  0.46740  Biso   1.000  C
  C222     1.0000 0.02630  0.46440  0.46740  Biso   1.000  C
  C223     1.0000 0.13107  0.35963  0.86593  Biso   1.000  C
  C224     1.0000 0.64037  0.77143  0.86593  Biso   1.000  C
  C225     1.0000 0.22857  0.86893  0.86593  Biso   1.000  C
  C226     1.0000 0.10477  0.30703  0.80073  Biso   1.000  C
  C227     1.0000 0.20227  0.89523  0.80073  Biso   1.000  C
  C228     1.0000 0.69297  0.79773  0.80073  Biso   1.000  C
  C229     1.0000 0.79773  0.69297  0.19927  Biso   1.000  C
  C230     1.0000 0.30703  0.10477  0.19927  Biso   1.000  C
  C231     1.0000 0.89523  0.20227  0.19927  Biso   1.000  C
  C232     1.0000 0.77143  0.64037  0.13407  Biso   1.000  C
  C233     1.0000 0.86893  0.22857  0.13407  Biso   1.000  C
  C234     1.0000 0.35963  0.13107  0.13407  Biso   1.000  C
  O91      1.0000 0.50290  0.00580  0.44490  Biso   1.000  O
  O92      1.0000 0.99420  0.49710  0.44490  Biso   1.000  O
  O93      1.0000 0.50290  0.49710  0.44490  Biso   1.000  O
  O94      1.0000 0.49710  0.99420  0.55510  Biso   1.000  O
  O95      1.0000 0.49710  0.50290  0.55510  Biso   1.000  O
  O96      1.0000 0.00580  0.50290  0.55510  Biso   1.000  O
  O97      1.0000 0.16957  0.33913  0.77823  Biso   1.000  O
  O98      1.0000 0.66087  0.83043  0.77823  Biso   1.000  O
  O99      1.0000 0.16957  0.83043  0.77823  Biso   1.000  O
  O100     1.0000 0.16377  0.32753  0.88843  Biso   1.000  O
  O101     1.0000 0.16377  0.83623  0.88843  Biso   1.000  O
  O102     1.0000 0.67247  0.83623  0.88843  Biso   1.000  O
  O103     1.0000 0.83623  0.67247  0.11157  Biso   1.000  O
  O104     1.0000 0.32753  0.16377  0.11157  Biso   1.000  O
  O105     1.0000 0.83623  0.16377  0.11157  Biso   1.000  O
  O106     1.0000 0.83043  0.66087  0.22177  Biso   1.000  O
  O107     1.0000 0.83043  0.16957  0.22177  Biso   1.000  O
  O108     1.0000 0.33913  0.16957  0.22177  Biso   1.000  O
  C235     1.0000 0.48280  0.09120  0.62860  Biso   1.000  C
  C236     1.0000 0.90880  0.39160  0.62860  Biso   1.000  C
  C237     1.0000 0.60840  0.51720  0.62860  Biso   1.000  C
  C238     1.0000 0.39160  0.90880  0.37140  Biso   1.000  C
  C239     1.0000 0.51720  0.60840  0.37140  Biso   1.000  C
  C240     1.0000 0.09120  0.48280  0.37140  Biso   1.000  C
  C241     1.0000 0.14947  0.42453  0.96193  Biso   1.000  C
  C242     1.0000 0.57547  0.72493  0.96193  Biso   1.000  C
  C243     1.0000 0.27507  0.85053  0.96193  Biso   1.000  C
  C244     1.0000 0.05827  0.24213  0.70473  Biso   1.000  C
  C245     1.0000 0.18387  0.94173  0.70473  Biso   1.000  C
  C246     1.0000 0.75787  0.81613  0.70473  Biso   1.000  C
  C247     1.0000 0.81613  0.75787  0.29527  Biso   1.000  C
  C248     1.0000 0.24213  0.05827  0.29527  Biso   1.000  C
  C249     1.0000 0.94173  0.18387  0.29527  Biso   1.000  C
  C250     1.0000 0.72493  0.57547  0.03807  Biso   1.000  C
  C251     1.0000 0.85053  0.27507  0.03807  Biso   1.000  C
  C252     1.0000 0.42453  0.14947  0.03807  Biso   1.000  C
  C253     1.0000 0.51720  0.90880  0.37140  Biso   1.000  C
  C254     1.0000 0.09120  0.60840  0.37140  Biso   1.000  C
  C255     1.0000 0.39160  0.48280  0.37140  Biso   1.000  C
  C256     1.0000 0.60840  0.09120  0.62860  Biso   1.000  C
  C257     1.0000 0.48280  0.39160  0.62860  Biso   1.000  C
  C258     1.0000 0.90880  0.51720  0.62860  Biso   1.000  C
  C259     1.0000 0.18387  0.24213  0.70473  Biso   1.000  C
  C260     1.0000 0.75787  0.94173  0.70473  Biso   1.000  C
  C261     1.0000 0.05827  0.81613  0.70473  Biso   1.000  C
  C262     1.0000 0.27507  0.42453  0.96193  Biso   1.000  C
  C263     1.0000 0.14947  0.72493  0.96193  Biso   1.000  C
  C264     1.0000 0.57547  0.85053  0.96193  Biso   1.000  C
  C265     1.0000 0.85053  0.57547  0.03807  Biso   1.000  C
  C266     1.0000 0.42453  0.27507  0.03807  Biso   1.000  C
  C267     1.0000 0.72493  0.14947  0.03807  Biso   1.000  C
  C268     1.0000 0.94173  0.75787  0.29527  Biso   1.000  C
  C269     1.0000 0.81613  0.05827  0.29527  Biso   1.000  C
  C270     1.0000 0.24213  0.18387  0.29527  Biso   1.000  C
  C271     1.0000 0.46220  0.04900  0.60060  Biso   1.000  C
  C272     1.0000 0.95100  0.41320  0.60060  Biso   1.000  C
  C273     1.0000 0.58680  0.53780  0.60060  Biso   1.000  C
  C274     1.0000 0.41320  0.95100  0.39940  Biso   1.000  C
  C275     1.0000 0.53780  0.58680  0.39940  Biso   1.000  C
  C276     1.0000 0.04900  0.46220  0.39940  Biso   1.000  C
  C277     1.0000 0.12887  0.38233  0.93393  Biso   1.000  C
  C278     1.0000 0.61767  0.74653  0.93393  Biso   1.000  C
  C279     1.0000 0.25347  0.87113  0.93393  Biso   1.000  C
  C280     1.0000 0.07987  0.28433  0.73273  Biso   1.000  C
  C281     1.0000 0.20447  0.92013  0.73273  Biso   1.000  C
  C282     1.0000 0.71567  0.79553  0.73273  Biso   1.000  C
  C283     1.0000 0.79553  0.71567  0.26727  Biso   1.000  C
  C284     1.0000 0.28433  0.07987  0.26727  Biso   1.000  C
  C285     1.0000 0.92013  0.20447  0.26727  Biso   1.000  C
  C286     1.0000 0.74653  0.61767  0.06607  Biso   1.000  C
  C287     1.0000 0.87113  0.25347  0.06607  Biso   1.000  C
  C288     1.0000 0.38233  0.12887  0.06607  Biso   1.000  C
  C289     1.0000 0.53780  0.95100  0.39940  Biso   1.000  C
  C290     1.0000 0.04900  0.58680  0.39940  Biso   1.000  C
  C291     1.0000 0.41320  0.46220  0.39940  Biso   1.000  C
  C292     1.0000 0.58680  0.04900  0.60060  Biso   1.000  C
  C293     1.0000 0.46220  0.41320  0.60060  Biso   1.000  C
  C294     1.0000 0.95100  0.53780  0.60060  Biso   1.000  C
  C295     1.0000 0.20447  0.28433  0.73273  Biso   1.000  C
  C296     1.0000 0.71567  0.92013  0.73273  Biso   1.000  C
  C297     1.0000 0.07987  0.79553  0.73273  Biso   1.000  C
  C298     1.0000 0.25347  0.38233  0.93393  Biso   1.000  C
  C299     1.0000 0.12887  0.74653  0.93393  Biso   1.000  C
  C300     1.0000 0.61767  0.87113  0.93393  Biso   1.000  C
  C301     1.0000 0.87113  0.61767  0.06607  Biso   1.000  C
  C302     1.0000 0.38233  0.25347  0.06607  Biso   1.000  C
  C303     1.0000 0.74653  0.12887  0.06607  Biso   1.000  C
  C304     1.0000 0.92013  0.71567  0.26727  Biso   1.000  C
  C305     1.0000 0.79553  0.07987  0.26727  Biso   1.000  C
  C306     1.0000 0.28433  0.20447  0.26727  Biso   1.000  C
  H55      1.0000 0.41200  0.03670  0.59030  Biso   1.000  H
  H56      1.0000 0.96330  0.37530  0.59030  Biso   1.000  H
  H57      1.0000 0.62470  0.58800  0.59030  Biso   1.000  H
  H58      1.0000 0.37530  0.96330  0.40970  Biso   1.000  H
  H59      1.0000 0.58800  0.62470  0.40970  Biso   1.000  H
  H60      1.0000 0.03670  0.41200  0.40970  Biso   1.000  H
  H61      1.0000 0.07867  0.37003  0.92363  Biso   1.000  H
  H62      1.0000 0.62997  0.70863  0.92363  Biso   1.000  H
  H63      1.0000 0.29137  0.92133  0.92363  Biso   1.000  H
  H64      1.0000 0.04197  0.29663  0.74303  Biso   1.000  H
  H65      1.0000 0.25467  0.95803  0.74303  Biso   1.000  H
  H66      1.0000 0.70337  0.74533  0.74303  Biso   1.000  H
  H67      1.0000 0.74533  0.70337  0.25697  Biso   1.000  H
  H68      1.0000 0.29663  0.04197  0.25697  Biso   1.000  H
  H69      1.0000 0.95803  0.25467  0.25697  Biso   1.000  H
  H70      1.0000 0.70863  0.62997  0.07637  Biso   1.000  H
  H71      1.0000 0.92133  0.29137  0.07637  Biso   1.000  H
  H72      1.0000 0.37003  0.07867  0.07637  Biso   1.000  H
  H73      1.0000 0.58800  0.96330  0.40970  Biso   1.000  H
  H74      1.0000 0.03670  0.62470  0.40970  Biso   1.000  H
  H75      1.0000 0.37530  0.41200  0.40970  Biso   1.000  H
  H76      1.0000 0.62470  0.03670  0.59030  Biso   1.000  H
  H77      1.0000 0.41200  0.37530  0.59030  Biso   1.000  H
  H78      1.0000 0.96330  0.58800  0.59030  Biso   1.000  H
  H79      1.0000 0.25467  0.29663  0.74303  Biso   1.000  H
  H80      1.0000 0.70337  0.95803  0.74303  Biso   1.000  H
  H81      1.0000 0.04197  0.74533  0.74303  Biso   1.000  H
  H82      1.0000 0.29137  0.37003  0.92363  Biso   1.000  H
  H83      1.0000 0.07867  0.70863  0.92363  Biso   1.000  H
  H84      1.0000 0.62997  0.92133  0.92363  Biso   1.000  H
  H85      1.0000 0.92133  0.62997  0.07637  Biso   1.000  H
  H86      1.0000 0.37003  0.29137  0.07637  Biso   1.000  H
  H87      1.0000 0.70863  0.07867  0.07637  Biso   1.000  H
  H88      1.0000 0.95803  0.70337  0.25697  Biso   1.000  H
  H89      1.0000 0.74533  0.04197  0.25697  Biso   1.000  H
  H90      1.0000 0.29663  0.25467  0.25697  Biso   1.000  H
  C307     1.0000 0.51160  0.02320  0.58650  Biso   1.000  C
  C308     1.0000 0.97680  0.48840  0.58650  Biso   1.000  C
  C309     1.0000 0.51160  0.48840  0.58650  Biso   1.000  C
  C310     1.0000 0.48840  0.97680  0.41350  Biso   1.000  C
  C311     1.0000 0.48840  0.51160  0.41350  Biso   1.000  C
  C312     1.0000 0.02320  0.51160  0.41350  Biso   1.000  C
  C313     1.0000 0.17827  0.35653  0.91983  Biso   1.000  C
  C314     1.0000 0.64347  0.82173  0.91983  Biso   1.000  C
  C315     1.0000 0.17827  0.82173  0.91983  Biso   1.000  C
  C316     1.0000 0.15507  0.31013  0.74683  Biso   1.000  C
  C317     1.0000 0.15507  0.84493  0.74683  Biso   1.000  C
  C318     1.0000 0.68987  0.84493  0.74683  Biso   1.000  C
  C319     1.0000 0.84493  0.68987  0.25317  Biso   1.000  C
  C320     1.0000 0.31013  0.15507  0.25317  Biso   1.000  C
  C321     1.0000 0.84493  0.15507  0.25317  Biso   1.000  C
  C322     1.0000 0.82173  0.64347  0.08017  Biso   1.000  C
  C323     1.0000 0.82173  0.17827  0.08017  Biso   1.000  C
  C324     1.0000 0.35653  0.17827  0.08017  Biso   1.000  C
  C325     1.0000 0.55510  0.11010  0.64490  Biso   1.000  C
  C326     1.0000 0.88990  0.44500  0.64490  Biso   1.000  C
  C327     1.0000 0.55500  0.44490  0.64490  Biso   1.000  C
  C328     1.0000 0.44500  0.88990  0.35510  Biso   1.000  C
  C329     1.0000 0.44490  0.55500  0.35510  Biso   1.000  C
  C330     1.0000 0.11010  0.55510  0.35510  Biso   1.000  C
  C331     1.0000 0.22177  0.44343  0.97823  Biso   1.000  C
  C332     1.0000 0.55657  0.77833  0.97823  Biso   1.000  C
  C333     1.0000 0.22167  0.77823  0.97823  Biso   1.000  C
  C334     1.0000 0.11167  0.22323  0.68843  Biso   1.000  C
  C335     1.0000 0.11157  0.88833  0.68843  Biso   1.000  C
  C336     1.0000 0.77677  0.88843  0.68843  Biso   1.000  C
  C337     1.0000 0.88843  0.77677  0.31157  Biso   1.000  C
  C338     1.0000 0.22323  0.11167  0.31157  Biso   1.000  C
  C339     1.0000 0.88833  0.11157  0.31157  Biso   1.000  C
  C340     1.0000 0.77833  0.55657  0.02177  Biso   1.000  C
  C341     1.0000 0.77823  0.22167  0.02177  Biso   1.000  C
  C342     1.0000 0.44343  0.22177  0.02177  Biso   1.000  C
  H91      1.0000 0.61670  0.02540  0.53140  Biso   1.000  H
  H92      1.0000 0.97460  0.59130  0.53140  Biso   1.000  H
  H93      1.0000 0.40870  0.38330  0.53140  Biso   1.000  H
  H94      1.0000 0.59130  0.97460  0.46860  Biso   1.000  H
  H95      1.0000 0.38330  0.40870  0.46860  Biso   1.000  H
  H96      1.0000 0.02540  0.61670  0.46860  Biso   1.000  H
  H97      1.0000 0.28337  0.35873  0.86473  Biso   1.000  H
  H98      1.0000 0.64127  0.92463  0.86473  Biso   1.000  H
  H99      1.0000 0.07537  0.71663  0.86473  Biso   1.000  H
  H100     1.0000 0.25797  0.30793  0.80193  Biso   1.000  H
  H101     1.0000 0.04997  0.74203  0.80193  Biso   1.000  H
  H102     1.0000 0.69207  0.95003  0.80193  Biso   1.000  H
  H103     1.0000 0.95003  0.69207  0.19807  Biso   1.000  H
  H104     1.0000 0.30793  0.25797  0.19807  Biso   1.000  H
  H105     1.0000 0.74203  0.04997  0.19807  Biso   1.000  H
  H106     1.0000 0.92463  0.64127  0.13527  Biso   1.000  H
  H107     1.0000 0.71663  0.07537  0.13527  Biso   1.000  H
  H108     1.0000 0.35873  0.28337  0.13527  Biso   1.000  H
  H109     1.0000 0.38330  0.97460  0.46860  Biso   1.000  H
  H110     1.0000 0.02540  0.40870  0.46860  Biso   1.000  H
  H111     1.0000 0.59130  0.61670  0.46860  Biso   1.000  H
  H112     1.0000 0.40870  0.02540  0.53140  Biso   1.000  H
  H113     1.0000 0.61670  0.59130  0.53140  Biso   1.000  H
  H114     1.0000 0.97460  0.38330  0.53140  Biso   1.000  H
  H115     1.0000 0.04997  0.30793  0.80193  Biso   1.000  H
  H116     1.0000 0.69207  0.74203  0.80193  Biso   1.000  H
  H117     1.0000 0.25797  0.95003  0.80193  Biso   1.000  H
  H118     1.0000 0.07537  0.35873  0.86473  Biso   1.000  H
  H119     1.0000 0.28337  0.92463  0.86473  Biso   1.000  H
  H120     1.0000 0.64127  0.71663  0.86473  Biso   1.000  H
  H121     1.0000 0.71663  0.64127  0.13527  Biso   1.000  H
  H122     1.0000 0.35873  0.07537  0.13527  Biso   1.000  H
  H123     1.0000 0.92463  0.28337  0.13527  Biso   1.000  H
  H124     1.0000 0.74203  0.69207  0.19807  Biso   1.000  H
  H125     1.0000 0.95003  0.25797  0.19807  Biso   1.000  H
  H126     1.0000 0.30793  0.04997  0.19807  Biso   1.000  H
  H127     1.0000 0.59520  0.99600  0.46340  Biso   1.000  H
  H128     1.0000 0.00400  0.59920  0.46340  Biso   1.000  H
  H129     1.0000 0.40080  0.40480  0.46340  Biso   1.000  H
  H130     1.0000 0.59920  0.00400  0.53660  Biso   1.000  H
  H131     1.0000 0.40480  0.40080  0.53660  Biso   1.000  H
  H132     1.0000 0.99600  0.59520  0.53660  Biso   1.000  H
  H133     1.0000 0.26187  0.32933  0.79673  Biso   1.000  H
  H134     1.0000 0.67067  0.93253  0.79673  Biso   1.000  H
  H135     1.0000 0.06747  0.73813  0.79673  Biso   1.000  H
  H136     1.0000 0.26587  0.33733  0.86993  Biso   1.000  H
  H137     1.0000 0.07147  0.73413  0.86993  Biso   1.000  H
  H138     1.0000 0.66267  0.92853  0.86993  Biso   1.000  H
  H139     1.0000 0.92853  0.66267  0.13007  Biso   1.000  H
  H140     1.0000 0.33733  0.26587  0.13007  Biso   1.000  H
  H141     1.0000 0.73413  0.07147  0.13007  Biso   1.000  H
  H142     1.0000 0.93253  0.67067  0.20327  Biso   1.000  H
  H143     1.0000 0.73813  0.06747  0.20327  Biso   1.000  H
  H144     1.0000 0.32933  0.26187  0.20327  Biso   1.000  H
  H145     1.0000 0.40480  0.00400  0.53660  Biso   1.000  H
  H146     1.0000 0.99600  0.40080  0.53660  Biso   1.000  H
  H147     1.0000 0.59920  0.59520  0.53660  Biso   1.000  H
  H148     1.0000 0.40080  0.99600  0.46340  Biso   1.000  H
  H149     1.0000 0.59520  0.59920  0.46340  Biso   1.000  H
  H150     1.0000 0.00400  0.40480  0.46340  Biso   1.000  H
  H151     1.0000 0.07147  0.33733  0.86993  Biso   1.000  H
  H152     1.0000 0.66267  0.73413  0.86993  Biso   1.000  H
  H153     1.0000 0.26587  0.92853  0.86993  Biso   1.000  H
  H154     1.0000 0.06747  0.32933  0.79673  Biso   1.000  H
  H155     1.0000 0.26187  0.93253  0.79673  Biso   1.000  H
  H156     1.0000 0.67067  0.73813  0.79673  Biso   1.000  H
  H157     1.0000 0.73813  0.67067  0.20327  Biso   1.000  H
  H158     1.0000 0.32933  0.06747  0.20327  Biso   1.000  H
  H159     1.0000 0.93253  0.26187  0.20327  Biso   1.000  H
  H160     1.0000 0.73413  0.66267  0.13007  Biso   1.000  H
  H161     1.0000 0.92853  0.26587  0.13007  Biso   1.000  H
  H162     1.0000 0.33733  0.07147  0.13007  Biso   1.000  H
  H163     1.0000 0.50710  0.91290  0.46590  Biso   1.000  H
  H164     1.0000 0.08710  0.59420  0.46590  Biso   1.000  H
  H165     1.0000 0.40580  0.49290  0.46590  Biso   1.000  H
  H166     1.0000 0.59420  0.08710  0.53410  Biso   1.000  H
  H167     1.0000 0.49290  0.40580  0.53410  Biso   1.000  H
  H168     1.0000 0.91290  0.50710  0.53410  Biso   1.000  H
  H169     1.0000 0.17377  0.24623  0.79923  Biso   1.000  H
  H170     1.0000 0.75377  0.92753  0.79923  Biso   1.000  H
  H171     1.0000 0.07247  0.82623  0.79923  Biso   1.000  H
  H172     1.0000 0.26087  0.42043  0.86743  Biso   1.000  H
  H173     1.0000 0.15957  0.73913  0.86743  Biso   1.000  H
  H174     1.0000 0.57957  0.84043  0.86743  Biso   1.000  H
  H175     1.0000 0.84043  0.57957  0.13257  Biso   1.000  H
  H176     1.0000 0.42043  0.26087  0.13257  Biso   1.000  H
  H177     1.0000 0.73913  0.15957  0.13257  Biso   1.000  H
  H178     1.0000 0.92753  0.75377  0.20077  Biso   1.000  H
  H179     1.0000 0.82623  0.07247  0.20077  Biso   1.000  H
  H180     1.0000 0.24623  0.17377  0.20077  Biso   1.000  H
  H181     1.0000 0.49290  0.08710  0.53410  Biso   1.000  H
  H182     1.0000 0.91290  0.40580  0.53410  Biso   1.000  H
  H183     1.0000 0.59420  0.50710  0.53410  Biso   1.000  H
  H184     1.0000 0.40580  0.91290  0.46590  Biso   1.000  H
  H185     1.0000 0.50710  0.59420  0.46590  Biso   1.000  H
  H186     1.0000 0.08710  0.49290  0.46590  Biso   1.000  H
  H187     1.0000 0.15957  0.42043  0.86743  Biso   1.000  H
  H188     1.0000 0.57957  0.73913  0.86743  Biso   1.000  H
  H189     1.0000 0.26087  0.84043  0.86743  Biso   1.000  H
  H190     1.0000 0.07247  0.24623  0.79923  Biso   1.000  H
  H191     1.0000 0.17377  0.92753  0.79923  Biso   1.000  H
  H192     1.0000 0.75377  0.82623  0.79923  Biso   1.000  H
  H193     1.0000 0.82623  0.75377  0.20077  Biso   1.000  H
  H194     1.0000 0.24623  0.07247  0.20077  Biso   1.000  H
  H195     1.0000 0.92753  0.17377  0.20077  Biso   1.000  H
  H196     1.0000 0.73913  0.57957  0.13257  Biso   1.000  H
  H197     1.0000 0.84043  0.26087  0.13257  Biso   1.000  H
  H198     1.0000 0.42043  0.15957  0.13257  Biso   1.000  H
