data_image0
_cell_length_a       14.13
_cell_length_b       14.13
_cell_length_c       49.48
_cell_angle_alpha    90
_cell_angle_beta     90
_cell_angle_gamma    120

_symmetry_space_group_name_H-M    "P 1"
_symmetry_int_tables_number       1

loop_
  _symmetry_equiv_pos_as_xyz
  'x, y, z'

loop_
  _atom_site_label
  _atom_site_occupancy
  _atom_site_fract_x
  _atom_site_fract_y
  _atom_site_fract_z
  _atom_site_thermal_displace_type
  _atom_site_B_iso_or_equiv
  _atom_site_type_symbol
  Nd1      1.0000 0.00000  0.00000  0.06157  Biso   1.000  Nd
  Nd2      1.0000 0.00000  0.00000  0.43843  Biso   1.000  Nd
  Nd3      1.0000 0.66667  0.33333  0.39491  Biso   1.000  Nd
  Nd4      1.0000 0.66667  0.33333  0.77176  Biso   1.000  Nd
  Nd5      1.0000 0.33333  0.66667  0.72824  Biso   1.000  Nd
  Nd6      1.0000 0.33333  0.66667  0.10509  Biso   1.000  Nd
  Nd7      1.0000 0.00000  0.00000  0.93842  Biso   1.000  Nd
  Nd8      1.0000 0.00000  0.00000  0.56157  Biso   1.000  Nd
  Nd9      1.0000 0.66667  0.33333  0.27176  Biso   1.000  Nd
  Nd10     1.0000 0.66667  0.33333  0.89491  Biso   1.000  Nd
  Nd11     1.0000 0.33333  0.66667  0.60509  Biso   1.000  Nd
  Nd12     1.0000 0.33333  0.66667  0.22824  Biso   1.000  Nd
  Cu1      1.0000 0.39176  0.39176  0.25000  Biso   1.000  Cu
  Cu2      1.0000 0.60824  0.00000  0.25000  Biso   1.000  Cu
  Cu3      1.0000 0.00000  0.60824  0.25000  Biso   1.000  Cu
  Cu4      1.0000 0.05843  0.72509  0.58333  Biso   1.000  Cu
  Cu5      1.0000 0.27491  0.33333  0.58333  Biso   1.000  Cu
  Cu6      1.0000 0.66667  0.94157  0.58333  Biso   1.000  Cu
  Cu7      1.0000 0.72509  0.05843  0.91667  Biso   1.000  Cu
  Cu8      1.0000 0.94157  0.66667  0.91667  Biso   1.000  Cu
  Cu9      1.0000 0.33333  0.27491  0.91667  Biso   1.000  Cu
  Cu10     1.0000 0.60824  0.60824  0.75000  Biso   1.000  Cu
  Cu11     1.0000 0.39176  0.00000  0.75000  Biso   1.000  Cu
  Cu12     1.0000 0.00000  0.39176  0.75000  Biso   1.000  Cu
  Cu13     1.0000 0.27491  0.94157  0.08333  Biso   1.000  Cu
  Cu14     1.0000 0.05843  0.33333  0.08333  Biso   1.000  Cu
  Cu15     1.0000 0.66667  0.72509  0.08333  Biso   1.000  Cu
  Cu16     1.0000 0.94157  0.27491  0.41667  Biso   1.000  Cu
  Cu17     1.0000 0.72509  0.66667  0.41667  Biso   1.000  Cu
  Cu18     1.0000 0.33333  0.05843  0.41667  Biso   1.000  Cu
  N1       1.0000 0.31540  0.26870  0.22385  Biso   1.000  N
  N2       1.0000 0.73130  0.04670  0.22385  Biso   1.000  N
  N3       1.0000 0.95330  0.68460  0.22385  Biso   1.000  N
  N4       1.0000 0.26870  0.31540  0.27615  Biso   1.000  N
  N5       1.0000 0.98207  0.60203  0.55718  Biso   1.000  N
  N6       1.0000 0.39797  0.38003  0.55718  Biso   1.000  N
  N7       1.0000 0.61997  0.01793  0.55718  Biso   1.000  N
  N8       1.0000 0.93537  0.64873  0.60948  Biso   1.000  N
  N9       1.0000 0.64873  0.93537  0.89052  Biso   1.000  N
  N10      1.0000 0.60203  0.98207  0.94282  Biso   1.000  N
  N11      1.0000 0.04670  0.73130  0.27615  Biso   1.000  N
  N12      1.0000 0.68460  0.95330  0.27615  Biso   1.000  N
  N13      1.0000 0.06463  0.71337  0.89052  Biso   1.000  N
  N14      1.0000 0.28663  0.35127  0.89052  Biso   1.000  N
  N15      1.0000 0.38003  0.39797  0.94282  Biso   1.000  N
  N16      1.0000 0.01793  0.61997  0.94282  Biso   1.000  N
  N17      1.0000 0.71337  0.06463  0.60948  Biso   1.000  N
  N18      1.0000 0.35127  0.28663  0.60948  Biso   1.000  N
  N19      1.0000 0.68460  0.73130  0.77615  Biso   1.000  N
  N20      1.0000 0.26870  0.95330  0.77615  Biso   1.000  N
  N21      1.0000 0.04670  0.31540  0.77615  Biso   1.000  N
  N22      1.0000 0.73130  0.68460  0.72385  Biso   1.000  N
  N23      1.0000 0.35127  0.06463  0.10948  Biso   1.000  N
  N24      1.0000 0.93537  0.28663  0.10948  Biso   1.000  N
  N25      1.0000 0.71337  0.64873  0.10948  Biso   1.000  N
  N26      1.0000 0.39797  0.01793  0.05718  Biso   1.000  N
  N27      1.0000 0.01793  0.39797  0.44282  Biso   1.000  N
  N28      1.0000 0.06463  0.35127  0.39052  Biso   1.000  N
  N29      1.0000 0.95330  0.26870  0.72385  Biso   1.000  N
  N30      1.0000 0.31540  0.04670  0.72385  Biso   1.000  N
  N31      1.0000 0.60203  0.61997  0.44282  Biso   1.000  N
  N32      1.0000 0.38003  0.98207  0.44282  Biso   1.000  N
  N33      1.0000 0.28663  0.93537  0.39052  Biso   1.000  N
  N34      1.0000 0.64873  0.71337  0.39052  Biso   1.000  N
  N35      1.0000 0.61997  0.60203  0.05718  Biso   1.000  N
  N36      1.0000 0.98207  0.38003  0.05718  Biso   1.000  N
  C1       1.0000 0.29150  0.16710  0.23020  Biso   1.000  C
  C2       1.0000 0.83290  0.12440  0.23020  Biso   1.000  C
  C3       1.0000 0.87560  0.70850  0.23020  Biso   1.000  C
  C4       1.0000 0.16710  0.29150  0.26980  Biso   1.000  C
  C5       1.0000 0.95817  0.50043  0.56353  Biso   1.000  C
  C6       1.0000 0.49957  0.45773  0.56353  Biso   1.000  C
  C7       1.0000 0.54227  0.04183  0.56353  Biso   1.000  C
  C8       1.0000 0.83377  0.62483  0.60313  Biso   1.000  C
  C9       1.0000 0.62483  0.83377  0.89687  Biso   1.000  C
  C10      1.0000 0.50043  0.95817  0.93647  Biso   1.000  C
  C11      1.0000 0.12440  0.83290  0.26980  Biso   1.000  C
  C12      1.0000 0.70850  0.87560  0.26980  Biso   1.000  C
  C13      1.0000 0.16623  0.79107  0.89687  Biso   1.000  C
  C14      1.0000 0.20893  0.37517  0.89687  Biso   1.000  C
  C15      1.0000 0.45773  0.49957  0.93647  Biso   1.000  C
  C16      1.0000 0.04183  0.54227  0.93647  Biso   1.000  C
  C17      1.0000 0.79107  0.16623  0.60313  Biso   1.000  C
  C18      1.0000 0.37517  0.20893  0.60313  Biso   1.000  C
  C19      1.0000 0.70850  0.83290  0.76980  Biso   1.000  C
  C20      1.0000 0.16710  0.87560  0.76980  Biso   1.000  C
  C21      1.0000 0.12440  0.29150  0.76980  Biso   1.000  C
  C22      1.0000 0.83290  0.70850  0.73020  Biso   1.000  C
  C23      1.0000 0.37517  0.16623  0.10313  Biso   1.000  C
  C24      1.0000 0.83377  0.20893  0.10313  Biso   1.000  C
  C25      1.0000 0.79107  0.62483  0.10313  Biso   1.000  C
  C26      1.0000 0.49957  0.04183  0.06353  Biso   1.000  C
  C27      1.0000 0.04183  0.49957  0.43647  Biso   1.000  C
  C28      1.0000 0.16623  0.37517  0.39687  Biso   1.000  C
  C29      1.0000 0.87560  0.16710  0.73020  Biso   1.000  C
  C30      1.0000 0.29150  0.12440  0.73020  Biso   1.000  C
  C31      1.0000 0.50043  0.54227  0.43647  Biso   1.000  C
  C32      1.0000 0.45773  0.95817  0.43647  Biso   1.000  C
  C33      1.0000 0.20893  0.83377  0.39687  Biso   1.000  C
  C34      1.0000 0.62483  0.79107  0.39687  Biso   1.000  C
  C35      1.0000 0.54227  0.50043  0.06353  Biso   1.000  C
  C36      1.0000 0.95817  0.45773  0.06353  Biso   1.000  C
  H1       1.0000 0.31210  0.15380  0.24740  Biso   1.000  H
  H2       1.0000 0.84620  0.15830  0.24740  Biso   1.000  H
  H3       1.0000 0.84170  0.68790  0.24740  Biso   1.000  H
  H4       1.0000 0.15380  0.31210  0.25260  Biso   1.000  H
  H5       1.0000 0.97877  0.48713  0.58073  Biso   1.000  H
  H6       1.0000 0.51287  0.49163  0.58073  Biso   1.000  H
  H7       1.0000 0.50837  0.02123  0.58073  Biso   1.000  H
  H8       1.0000 0.82047  0.64543  0.58593  Biso   1.000  H
  H9       1.0000 0.64543  0.82047  0.91407  Biso   1.000  H
  H10      1.0000 0.48713  0.97877  0.91927  Biso   1.000  H
  H11      1.0000 0.15830  0.84620  0.25260  Biso   1.000  H
  H12      1.0000 0.68790  0.84170  0.25260  Biso   1.000  H
  H13      1.0000 0.17953  0.82497  0.91407  Biso   1.000  H
  H14      1.0000 0.17503  0.35457  0.91407  Biso   1.000  H
  H15      1.0000 0.49163  0.51287  0.91927  Biso   1.000  H
  H16      1.0000 0.02123  0.50837  0.91927  Biso   1.000  H
  H17      1.0000 0.82497  0.17953  0.58593  Biso   1.000  H
  H18      1.0000 0.35457  0.17503  0.58593  Biso   1.000  H
  H19      1.0000 0.68790  0.84620  0.75260  Biso   1.000  H
  H20      1.0000 0.15380  0.84170  0.75260  Biso   1.000  H
  H21      1.0000 0.15830  0.31210  0.75260  Biso   1.000  H
  H22      1.0000 0.84620  0.68790  0.74740  Biso   1.000  H
  H23      1.0000 0.35457  0.17953  0.08593  Biso   1.000  H
  H24      1.0000 0.82047  0.17503  0.08593  Biso   1.000  H
  H25      1.0000 0.82497  0.64543  0.08593  Biso   1.000  H
  H26      1.0000 0.51287  0.02123  0.08073  Biso   1.000  H
  H27      1.0000 0.02123  0.51287  0.41927  Biso   1.000  H
  H28      1.0000 0.17953  0.35457  0.41407  Biso   1.000  H
  H29      1.0000 0.84170  0.15380  0.74740  Biso   1.000  H
  H30      1.0000 0.31210  0.15830  0.74740  Biso   1.000  H
  H31      1.0000 0.48713  0.50837  0.41927  Biso   1.000  H
  H32      1.0000 0.49163  0.97877  0.41927  Biso   1.000  H
  H33      1.0000 0.17503  0.82047  0.41407  Biso   1.000  H
  H34      1.0000 0.64543  0.82497  0.41407  Biso   1.000  H
  H35      1.0000 0.50837  0.48713  0.08073  Biso   1.000  H
  H36      1.0000 0.97877  0.49163  0.08073  Biso   1.000  H
  C37      1.0000 0.23830  0.08230  0.21267  Biso   1.000  C
  C38      1.0000 0.91770  0.15600  0.21267  Biso   1.000  C
  C39      1.0000 0.84400  0.76170  0.21267  Biso   1.000  C
  C40      1.0000 0.08230  0.23830  0.28733  Biso   1.000  C
  C41      1.0000 0.90497  0.41563  0.54600  Biso   1.000  C
  C42      1.0000 0.58437  0.48933  0.54600  Biso   1.000  C
  C43      1.0000 0.51067  0.09503  0.54600  Biso   1.000  C
  C44      1.0000 0.74897  0.57163  0.62066  Biso   1.000  C
  C45      1.0000 0.57163  0.74897  0.87934  Biso   1.000  C
  C46      1.0000 0.41563  0.90497  0.95400  Biso   1.000  C
  C47      1.0000 0.15600  0.91770  0.28733  Biso   1.000  C
  C48      1.0000 0.76170  0.84400  0.28733  Biso   1.000  C
  C49      1.0000 0.25103  0.82267  0.87934  Biso   1.000  C
  C50      1.0000 0.17733  0.42837  0.87934  Biso   1.000  C
  C51      1.0000 0.48933  0.58437  0.95400  Biso   1.000  C
  C52      1.0000 0.09503  0.51067  0.95400  Biso   1.000  C
  C53      1.0000 0.82267  0.25103  0.62066  Biso   1.000  C
  C54      1.0000 0.42837  0.17733  0.62066  Biso   1.000  C
  C55      1.0000 0.76170  0.91770  0.78733  Biso   1.000  C
  C56      1.0000 0.08230  0.84400  0.78733  Biso   1.000  C
  C57      1.0000 0.15600  0.23830  0.78733  Biso   1.000  C
  C58      1.0000 0.91770  0.76170  0.71267  Biso   1.000  C
  C59      1.0000 0.42837  0.25103  0.12066  Biso   1.000  C
  C60      1.0000 0.74897  0.17733  0.12066  Biso   1.000  C
  C61      1.0000 0.82267  0.57163  0.12066  Biso   1.000  C
  C62      1.0000 0.58437  0.09503  0.04600  Biso   1.000  C
  C63      1.0000 0.09503  0.58437  0.45400  Biso   1.000  C
  C64      1.0000 0.25103  0.42837  0.37934  Biso   1.000  C
  C65      1.0000 0.84400  0.08230  0.71267  Biso   1.000  C
  C66      1.0000 0.23830  0.15600  0.71267  Biso   1.000  C
  C67      1.0000 0.41563  0.51067  0.45400  Biso   1.000  C
  C68      1.0000 0.48933  0.90497  0.45400  Biso   1.000  C
  C69      1.0000 0.17733  0.74897  0.37934  Biso   1.000  C
  C70      1.0000 0.57163  0.82267  0.37934  Biso   1.000  C
  C71      1.0000 0.51067  0.41563  0.04600  Biso   1.000  C
  C72      1.0000 0.90497  0.48933  0.04600  Biso   1.000  C
  H37      1.0000 0.22530  0.01150  0.21730  Biso   1.000  H
  H38      1.0000 0.98850  0.21380  0.21730  Biso   1.000  H
  H39      1.0000 0.78620  0.77470  0.21730  Biso   1.000  H
  H40      1.0000 0.01150  0.22530  0.28270  Biso   1.000  H
  H41      1.0000 0.89197  0.34483  0.55063  Biso   1.000  H
  H42      1.0000 0.65517  0.54713  0.55063  Biso   1.000  H
  H43      1.0000 0.45287  0.10803  0.55063  Biso   1.000  H
  H44      1.0000 0.67817  0.55863  0.61603  Biso   1.000  H
  H45      1.0000 0.55863  0.67817  0.88397  Biso   1.000  H
  H46      1.0000 0.34483  0.89197  0.94937  Biso   1.000  H
  H47      1.0000 0.21380  0.98850  0.28270  Biso   1.000  H
  H48      1.0000 0.77470  0.78620  0.28270  Biso   1.000  H
  H49      1.0000 0.32183  0.88047  0.88397  Biso   1.000  H
  H50      1.0000 0.11953  0.44137  0.88397  Biso   1.000  H
  H51      1.0000 0.54713  0.65517  0.94937  Biso   1.000  H
  H52      1.0000 0.10803  0.45287  0.94937  Biso   1.000  H
  H53      1.0000 0.88047  0.32183  0.61603  Biso   1.000  H
  H54      1.0000 0.44137  0.11953  0.61603  Biso   1.000  H
  H55      1.0000 0.77470  0.98850  0.78270  Biso   1.000  H
  H56      1.0000 0.01150  0.78620  0.78270  Biso   1.000  H
  H57      1.0000 0.21380  0.22530  0.78270  Biso   1.000  H
  H58      1.0000 0.98850  0.77470  0.71730  Biso   1.000  H
  H59      1.0000 0.44137  0.32183  0.11603  Biso   1.000  H
  H60      1.0000 0.67817  0.11953  0.11603  Biso   1.000  H
  H61      1.0000 0.88047  0.55863  0.11603  Biso   1.000  H
  H62      1.0000 0.65517  0.10803  0.05063  Biso   1.000  H
  H63      1.0000 0.10803  0.65517  0.44937  Biso   1.000  H
  H64      1.0000 0.32183  0.44137  0.38397  Biso   1.000  H
  H65      1.0000 0.78620  0.01150  0.71730  Biso   1.000  H
  H66      1.0000 0.22530  0.21380  0.71730  Biso   1.000  H
  H67      1.0000 0.34483  0.45287  0.44937  Biso   1.000  H
  H68      1.0000 0.54713  0.89197  0.44937  Biso   1.000  H
  H69      1.0000 0.11953  0.67817  0.38397  Biso   1.000  H
  H70      1.0000 0.55863  0.88047  0.38397  Biso   1.000  H
  H71      1.0000 0.45287  0.34483  0.05063  Biso   1.000  H
  H72      1.0000 0.89197  0.54713  0.05063  Biso   1.000  H
  C73      1.0000 0.20350  0.09970  0.18815  Biso   1.000  C
  C74      1.0000 0.90030  0.10380  0.18815  Biso   1.000  C
  C75      1.0000 0.89620  0.79650  0.18815  Biso   1.000  C
  C76      1.0000 0.09970  0.20350  0.31185  Biso   1.000  C
  C77      1.0000 0.87017  0.43303  0.52148  Biso   1.000  C
  C78      1.0000 0.56697  0.43713  0.52148  Biso   1.000  C
  C79      1.0000 0.56287  0.12983  0.52148  Biso   1.000  C
  C80      1.0000 0.76637  0.53683  0.64518  Biso   1.000  C
  C81      1.0000 0.53683  0.76637  0.85482  Biso   1.000  C
  C82      1.0000 0.43303  0.87017  0.97852  Biso   1.000  C
  C83      1.0000 0.10380  0.90030  0.31185  Biso   1.000  C
  C84      1.0000 0.79650  0.89620  0.31185  Biso   1.000  C
  C85      1.0000 0.23363  0.77047  0.85482  Biso   1.000  C
  C86      1.0000 0.22953  0.46317  0.85482  Biso   1.000  C
  C87      1.0000 0.43713  0.56697  0.97852  Biso   1.000  C
  C88      1.0000 0.12983  0.56287  0.97852  Biso   1.000  C
  C89      1.0000 0.77047  0.23363  0.64518  Biso   1.000  C
  C90      1.0000 0.46317  0.22953  0.64518  Biso   1.000  C
  C91      1.0000 0.79650  0.90030  0.81185  Biso   1.000  C
  C92      1.0000 0.09970  0.89620  0.81185  Biso   1.000  C
  C93      1.0000 0.10380  0.20350  0.81185  Biso   1.000  C
  C94      1.0000 0.90030  0.79650  0.68815  Biso   1.000  C
  C95      1.0000 0.46317  0.23363  0.14518  Biso   1.000  C
  C96      1.0000 0.76637  0.22953  0.14518  Biso   1.000  C
  C97      1.0000 0.77047  0.53683  0.14518  Biso   1.000  C
  C98      1.0000 0.56697  0.12983  0.02148  Biso   1.000  C
  C99      1.0000 0.12983  0.56697  0.47852  Biso   1.000  C
  C100     1.0000 0.23363  0.46317  0.35482  Biso   1.000  C
  C101     1.0000 0.89620  0.09970  0.68815  Biso   1.000  C
  C102     1.0000 0.20350  0.10380  0.68815  Biso   1.000  C
  C103     1.0000 0.43303  0.56287  0.47852  Biso   1.000  C
  C104     1.0000 0.43713  0.87017  0.47852  Biso   1.000  C
  C105     1.0000 0.22953  0.76637  0.35482  Biso   1.000  C
  C106     1.0000 0.53683  0.77047  0.35482  Biso   1.000  C
  C107     1.0000 0.56287  0.43303  0.02148  Biso   1.000  C
  C108     1.0000 0.87017  0.43713  0.02148  Biso   1.000  C
  H73      1.0000 0.16380  0.04050  0.17610  Biso   1.000  H
  H74      1.0000 0.95950  0.12330  0.17610  Biso   1.000  H
  H75      1.0000 0.87670  0.83620  0.17610  Biso   1.000  H
  H76      1.0000 0.04050  0.16380  0.32390  Biso   1.000  H
  H77      1.0000 0.83047  0.37383  0.50943  Biso   1.000  H
  H78      1.0000 0.62617  0.45663  0.50943  Biso   1.000  H
  H79      1.0000 0.54337  0.16953  0.50943  Biso   1.000  H
  H80      1.0000 0.70717  0.49713  0.65723  Biso   1.000  H
  H81      1.0000 0.49713  0.70717  0.84277  Biso   1.000  H
  H82      1.0000 0.37383  0.83047  0.99057  Biso   1.000  H
  H83      1.0000 0.12330  0.95950  0.32390  Biso   1.000  H
  H84      1.0000 0.83620  0.87670  0.32390  Biso   1.000  H
  H85      1.0000 0.29283  0.78997  0.84277  Biso   1.000  H
  H86      1.0000 0.21003  0.50287  0.84277  Biso   1.000  H
  H87      1.0000 0.45663  0.62617  0.99057  Biso   1.000  H
  H88      1.0000 0.16953  0.54337  0.99057  Biso   1.000  H
  H89      1.0000 0.78997  0.29283  0.65723  Biso   1.000  H
  H90      1.0000 0.50287  0.21003  0.65723  Biso   1.000  H
  H91      1.0000 0.83620  0.95950  0.82390  Biso   1.000  H
  H92      1.0000 0.04050  0.87670  0.82390  Biso   1.000  H
  H93      1.0000 0.12330  0.16380  0.82390  Biso   1.000  H
  H94      1.0000 0.95950  0.83620  0.67610  Biso   1.000  H
  H95      1.0000 0.50287  0.29283  0.15723  Biso   1.000  H
  H96      1.0000 0.70717  0.21003  0.15723  Biso   1.000  H
  H97      1.0000 0.78997  0.49713  0.15723  Biso   1.000  H
  H98      1.0000 0.62617  0.16953  0.00943  Biso   1.000  H
  H99      1.0000 0.16953  0.62617  0.49057  Biso   1.000  H
  H100     1.0000 0.29283  0.50287  0.34277  Biso   1.000  H
  H101     1.0000 0.87670  0.04050  0.67610  Biso   1.000  H
  H102     1.0000 0.16380  0.12330  0.67610  Biso   1.000  H
  H103     1.0000 0.37383  0.54337  0.49057  Biso   1.000  H
  H104     1.0000 0.45663  0.83047  0.49057  Biso   1.000  H
  H105     1.0000 0.21003  0.70717  0.34277  Biso   1.000  H
  H106     1.0000 0.49713  0.78997  0.34277  Biso   1.000  H
  H107     1.0000 0.54337  0.37383  0.00943  Biso   1.000  H
  H108     1.0000 0.83047  0.45663  0.00943  Biso   1.000  H
  C109     1.0000 0.22680  0.20380  0.18133  Biso   1.000  C
  C110     1.0000 0.79620  0.02300  0.18133  Biso   1.000  C
  C111     1.0000 0.97700  0.77320  0.18133  Biso   1.000  C
  C112     1.0000 0.20380  0.22680  0.31867  Biso   1.000  C
  C113     1.0000 0.89347  0.53713  0.51466  Biso   1.000  C
  C114     1.0000 0.46287  0.35633  0.51466  Biso   1.000  C
  C115     1.0000 0.64367  0.10653  0.51466  Biso   1.000  C
  C116     1.0000 0.87047  0.56013  0.65200  Biso   1.000  C
  C117     1.0000 0.56013  0.87047  0.84800  Biso   1.000  C
  C118     1.0000 0.53713  0.89347  0.98534  Biso   1.000  C
  C119     1.0000 0.02300  0.79620  0.31867  Biso   1.000  C
  C120     1.0000 0.77320  0.97700  0.31867  Biso   1.000  C
  C121     1.0000 0.12953  0.68967  0.84800  Biso   1.000  C
  C122     1.0000 0.31033  0.43987  0.84800  Biso   1.000  C
  C123     1.0000 0.35633  0.46287  0.98534  Biso   1.000  C
  C124     1.0000 0.10653  0.64367  0.98534  Biso   1.000  C
  C125     1.0000 0.68967  0.12953  0.65200  Biso   1.000  C
  C126     1.0000 0.43987  0.31033  0.65200  Biso   1.000  C
  C127     1.0000 0.77320  0.79620  0.81867  Biso   1.000  C
  C128     1.0000 0.20380  0.97700  0.81867  Biso   1.000  C
  C129     1.0000 0.02300  0.22680  0.81867  Biso   1.000  C
  C130     1.0000 0.79620  0.77320  0.68133  Biso   1.000  C
  C131     1.0000 0.43987  0.12953  0.15200  Biso   1.000  C
  C132     1.0000 0.87047  0.31033  0.15200  Biso   1.000  C
  C133     1.0000 0.68967  0.56013  0.15200  Biso   1.000  C
  C134     1.0000 0.46287  0.10653  0.01466  Biso   1.000  C
  C135     1.0000 0.10653  0.46287  0.48534  Biso   1.000  C
  C136     1.0000 0.12953  0.43987  0.34800  Biso   1.000  C
  C137     1.0000 0.97700  0.20380  0.68133  Biso   1.000  C
  C138     1.0000 0.22680  0.02300  0.68133  Biso   1.000  C
  C139     1.0000 0.53713  0.64367  0.48534  Biso   1.000  C
  C140     1.0000 0.35633  0.89347  0.48534  Biso   1.000  C
  C141     1.0000 0.31033  0.87047  0.34800  Biso   1.000  C
  C142     1.0000 0.56013  0.68967  0.34800  Biso   1.000  C
  C143     1.0000 0.64367  0.53713  0.01466  Biso   1.000  C
  C144     1.0000 0.89347  0.35633  0.01466  Biso   1.000  C
  C145     1.0000 0.28530  0.28600  0.19985  Biso   1.000  C
  C146     1.0000 0.71400  0.99930  0.19985  Biso   1.000  C
  C147     1.0000 0.00070  0.71470  0.19985  Biso   1.000  C
  C148     1.0000 0.28600  0.28530  0.30015  Biso   1.000  C
  C149     1.0000 0.95197  0.61933  0.53318  Biso   1.000  C
  C150     1.0000 0.38067  0.33263  0.53318  Biso   1.000  C
  C151     1.0000 0.66737  0.04803  0.53318  Biso   1.000  C
  C152     1.0000 0.95267  0.61863  0.63348  Biso   1.000  C
  C153     1.0000 0.61863  0.95267  0.86652  Biso   1.000  C
  C154     1.0000 0.61933  0.95197  0.96682  Biso   1.000  C
  C155     1.0000 0.99930  0.71400  0.30015  Biso   1.000  C
  C156     1.0000 0.71470  0.00070  0.30015  Biso   1.000  C
  C157     1.0000 0.04733  0.66597  0.86652  Biso   1.000  C
  C158     1.0000 0.33403  0.38137  0.86652  Biso   1.000  C
  C159     1.0000 0.33263  0.38067  0.96682  Biso   1.000  C
  C160     1.0000 0.04803  0.66737  0.96682  Biso   1.000  C
  C161     1.0000 0.66597  0.04733  0.63348  Biso   1.000  C
  C162     1.0000 0.38137  0.33403  0.63348  Biso   1.000  C
  C163     1.0000 0.71470  0.71400  0.80015  Biso   1.000  C
  C164     1.0000 0.28600  0.00070  0.80015  Biso   1.000  C
  C165     1.0000 0.99930  0.28530  0.80015  Biso   1.000  C
  C166     1.0000 0.71400  0.71470  0.69985  Biso   1.000  C
  C167     1.0000 0.38137  0.04733  0.13348  Biso   1.000  C
  C168     1.0000 0.95267  0.33403  0.13348  Biso   1.000  C
  C169     1.0000 0.66597  0.61863  0.13348  Biso   1.000  C
  C170     1.0000 0.38067  0.04803  0.03318  Biso   1.000  C
  C171     1.0000 0.04803  0.38067  0.46682  Biso   1.000  C
  C172     1.0000 0.04733  0.38137  0.36652  Biso   1.000  C
  C173     1.0000 0.00070  0.28600  0.69985  Biso   1.000  C
  C174     1.0000 0.28530  0.99930  0.69985  Biso   1.000  C
  C175     1.0000 0.61933  0.66737  0.46682  Biso   1.000  C
  C176     1.0000 0.33263  0.95197  0.46682  Biso   1.000  C
  C177     1.0000 0.33403  0.95267  0.36652  Biso   1.000  C
  C178     1.0000 0.61863  0.66597  0.36652  Biso   1.000  C
  C179     1.0000 0.66737  0.61933  0.03318  Biso   1.000  C
  C180     1.0000 0.95197  0.33263  0.03318  Biso   1.000  C
  H109     1.0000 0.30500  0.35880  0.19510  Biso   1.000  H
  H110     1.0000 0.64120  0.94620  0.19510  Biso   1.000  H
  H111     1.0000 0.05380  0.69500  0.19510  Biso   1.000  H
  H112     1.0000 0.35880  0.30500  0.30490  Biso   1.000  H
  H113     1.0000 0.97167  0.69213  0.52843  Biso   1.000  H
  H114     1.0000 0.30787  0.27953  0.52843  Biso   1.000  H
  H115     1.0000 0.72047  0.02833  0.52843  Biso   1.000  H
  H116     1.0000 0.02547  0.63833  0.63823  Biso   1.000  H
  H117     1.0000 0.63833  0.02547  0.86177  Biso   1.000  H
  H118     1.0000 0.69213  0.97167  0.97157  Biso   1.000  H
  H119     1.0000 0.94620  0.64120  0.30490  Biso   1.000  H
  H120     1.0000 0.69500  0.05380  0.30490  Biso   1.000  H
  H121     1.0000 0.97453  0.61287  0.86177  Biso   1.000  H
  H122     1.0000 0.38713  0.36167  0.86177  Biso   1.000  H
  H123     1.0000 0.27953  0.30787  0.97157  Biso   1.000  H
  H124     1.0000 0.02833  0.72047  0.97157  Biso   1.000  H
  H125     1.0000 0.61287  0.97453  0.63823  Biso   1.000  H
  H126     1.0000 0.36167  0.38713  0.63823  Biso   1.000  H
  H127     1.0000 0.69500  0.64120  0.80490  Biso   1.000  H
  H128     1.0000 0.35880  0.05380  0.80490  Biso   1.000  H
  H129     1.0000 0.94620  0.30500  0.80490  Biso   1.000  H
  H130     1.0000 0.64120  0.69500  0.69510  Biso   1.000  H
  H131     1.0000 0.36167  0.97453  0.13823  Biso   1.000  H
  H132     1.0000 0.02547  0.38713  0.13823  Biso   1.000  H
  H133     1.0000 0.61287  0.63833  0.13823  Biso   1.000  H
  H134     1.0000 0.30787  0.02833  0.02843  Biso   1.000  H
  H135     1.0000 0.02833  0.30787  0.47157  Biso   1.000  H
  H136     1.0000 0.97453  0.36167  0.36177  Biso   1.000  H
  H137     1.0000 0.05380  0.35880  0.69510  Biso   1.000  H
  H138     1.0000 0.30500  0.94620  0.69510  Biso   1.000  H
  H139     1.0000 0.69213  0.72047  0.47157  Biso   1.000  H
  H140     1.0000 0.27953  0.97167  0.47157  Biso   1.000  H
  H141     1.0000 0.38713  0.02547  0.36177  Biso   1.000  H
  H142     1.0000 0.63833  0.61287  0.36177  Biso   1.000  H
  H143     1.0000 0.72047  0.69213  0.02843  Biso   1.000  H
  H144     1.0000 0.97167  0.27953  0.02843  Biso   1.000  H
  C181     1.0000 0.19330  0.23220  0.15643  Biso   1.000  C
  C182     1.0000 0.76780  0.96110  0.15643  Biso   1.000  C
  C183     1.0000 0.03890  0.80670  0.15643  Biso   1.000  C
  C184     1.0000 0.23220  0.19330  0.34357  Biso   1.000  C
  C185     1.0000 0.85997  0.56553  0.48976  Biso   1.000  C
  C186     1.0000 0.43447  0.29443  0.48976  Biso   1.000  C
  C187     1.0000 0.70557  0.14003  0.48976  Biso   1.000  C
  C188     1.0000 0.89887  0.52663  0.67690  Biso   1.000  C
  C189     1.0000 0.52663  0.89887  0.82310  Biso   1.000  C
  C190     1.0000 0.56553  0.85997  0.01024  Biso   1.000  C
  C191     1.0000 0.96110  0.76780  0.34357  Biso   1.000  C
  C192     1.0000 0.80670  0.03890  0.34357  Biso   1.000  C
  C193     1.0000 0.10113  0.62777  0.82310  Biso   1.000  C
  C194     1.0000 0.37223  0.47337  0.82310  Biso   1.000  C
  C195     1.0000 0.29443  0.43447  0.01024  Biso   1.000  C
  C196     1.0000 0.14003  0.70557  0.01024  Biso   1.000  C
  C197     1.0000 0.62777  0.10113  0.67690  Biso   1.000  C
  C198     1.0000 0.47337  0.37223  0.67690  Biso   1.000  C
  C199     1.0000 0.80670  0.76780  0.84357  Biso   1.000  C
  C200     1.0000 0.23220  0.03890  0.84357  Biso   1.000  C
  C201     1.0000 0.96110  0.19330  0.84357  Biso   1.000  C
  C202     1.0000 0.76780  0.80670  0.65643  Biso   1.000  C
  C203     1.0000 0.47337  0.10113  0.17690  Biso   1.000  C
  C204     1.0000 0.89887  0.37223  0.17690  Biso   1.000  C
  C205     1.0000 0.62777  0.52663  0.17690  Biso   1.000  C
  C206     1.0000 0.43447  0.14003  0.98976  Biso   1.000  C
  C207     1.0000 0.14003  0.43447  0.51024  Biso   1.000  C
  C208     1.0000 0.10113  0.47337  0.32310  Biso   1.000  C
  C209     1.0000 0.03890  0.23220  0.65643  Biso   1.000  C
  C210     1.0000 0.19330  0.96110  0.65643  Biso   1.000  C
  C211     1.0000 0.56553  0.70557  0.51024  Biso   1.000  C
  C212     1.0000 0.29443  0.85997  0.51024  Biso   1.000  C
  C213     1.0000 0.37223  0.89887  0.32310  Biso   1.000  C
  C214     1.0000 0.52663  0.62777  0.32310  Biso   1.000  C
  C215     1.0000 0.70557  0.56553  0.98976  Biso   1.000  C
  C216     1.0000 0.85997  0.29443  0.98976  Biso   1.000  C
  H145     1.0000 0.20330  0.30380  0.15550  Biso   1.000  H
  H146     1.0000 0.69620  0.89950  0.15550  Biso   1.000  H
  H147     1.0000 0.10050  0.79670  0.15550  Biso   1.000  H
  H148     1.0000 0.30380  0.20330  0.34450  Biso   1.000  H
  H149     1.0000 0.86997  0.63713  0.48883  Biso   1.000  H
  H150     1.0000 0.36287  0.23283  0.48883  Biso   1.000  H
  H151     1.0000 0.76717  0.13003  0.48883  Biso   1.000  H
  H152     1.0000 0.97047  0.53663  0.67783  Biso   1.000  H
  H153     1.0000 0.53663  0.97047  0.82217  Biso   1.000  H
  H154     1.0000 0.63713  0.86997  0.01117  Biso   1.000  H
  H155     1.0000 0.89950  0.69620  0.34450  Biso   1.000  H
  H156     1.0000 0.79670  0.10050  0.34450  Biso   1.000  H
  H157     1.0000 0.02953  0.56617  0.82217  Biso   1.000  H
  H158     1.0000 0.43383  0.46337  0.82217  Biso   1.000  H
  H159     1.0000 0.23283  0.36287  0.01117  Biso   1.000  H
  H160     1.0000 0.13003  0.76717  0.01117  Biso   1.000  H
  H161     1.0000 0.56617  0.02953  0.67783  Biso   1.000  H
  H162     1.0000 0.46337  0.43383  0.67783  Biso   1.000  H
  H163     1.0000 0.79670  0.69620  0.84450  Biso   1.000  H
  H164     1.0000 0.30380  0.10050  0.84450  Biso   1.000  H
  H165     1.0000 0.89950  0.20330  0.84450  Biso   1.000  H
  H166     1.0000 0.69620  0.79670  0.65550  Biso   1.000  H
  H167     1.0000 0.46337  0.02953  0.17783  Biso   1.000  H
  H168     1.0000 0.97047  0.43383  0.17783  Biso   1.000  H
  H169     1.0000 0.56617  0.53663  0.17783  Biso   1.000  H
  H170     1.0000 0.36287  0.13003  0.98883  Biso   1.000  H
  H171     1.0000 0.13003  0.36287  0.51117  Biso   1.000  H
  H172     1.0000 0.02953  0.46337  0.32217  Biso   1.000  H
  H173     1.0000 0.10050  0.30380  0.65550  Biso   1.000  H
  H174     1.0000 0.20330  0.89950  0.65550  Biso   1.000  H
  H175     1.0000 0.63713  0.76717  0.51117  Biso   1.000  H
  H176     1.0000 0.23283  0.86997  0.51117  Biso   1.000  H
  H177     1.0000 0.43383  0.97047  0.32217  Biso   1.000  H
  H178     1.0000 0.53663  0.56617  0.32217  Biso   1.000  H
  H179     1.0000 0.76717  0.63713  0.98883  Biso   1.000  H
  H180     1.0000 0.86997  0.23283  0.98883  Biso   1.000  H
  C217     1.0000 0.15000  0.16950  0.13480  Biso   1.000  C
  C218     1.0000 0.83050  0.98050  0.13480  Biso   1.000  C
  C219     1.0000 0.01950  0.85000  0.13480  Biso   1.000  C
  C220     1.0000 0.16950  0.15000  0.36520  Biso   1.000  C
  C221     1.0000 0.81667  0.50283  0.46813  Biso   1.000  C
  C222     1.0000 0.49717  0.31383  0.46813  Biso   1.000  C
  C223     1.0000 0.68617  0.18333  0.46813  Biso   1.000  C
  C224     1.0000 0.83617  0.48333  0.69853  Biso   1.000  C
  C225     1.0000 0.48333  0.83617  0.80147  Biso   1.000  C
  C226     1.0000 0.50283  0.81667  0.03187  Biso   1.000  C
  C227     1.0000 0.98050  0.83050  0.36520  Biso   1.000  C
  C228     1.0000 0.85000  0.01950  0.36520  Biso   1.000  C
  C229     1.0000 0.16383  0.64717  0.80147  Biso   1.000  C
  C230     1.0000 0.35283  0.51667  0.80147  Biso   1.000  C
  C231     1.0000 0.31383  0.49717  0.03187  Biso   1.000  C
  C232     1.0000 0.18333  0.68617  0.03187  Biso   1.000  C
  C233     1.0000 0.64717  0.16383  0.69853  Biso   1.000  C
  C234     1.0000 0.51667  0.35283  0.69853  Biso   1.000  C
  C235     1.0000 0.85000  0.83050  0.86520  Biso   1.000  C
  C236     1.0000 0.16950  0.01950  0.86520  Biso   1.000  C
  C237     1.0000 0.98050  0.15000  0.86520  Biso   1.000  C
  C238     1.0000 0.83050  0.85000  0.63480  Biso   1.000  C
  C239     1.0000 0.51667  0.16383  0.19853  Biso   1.000  C
  C240     1.0000 0.83617  0.35283  0.19853  Biso   1.000  C
  C241     1.0000 0.64717  0.48333  0.19853  Biso   1.000  C
  C242     1.0000 0.49717  0.18333  0.96813  Biso   1.000  C
  C243     1.0000 0.18333  0.49717  0.53187  Biso   1.000  C
  C244     1.0000 0.16383  0.51667  0.30147  Biso   1.000  C
  C245     1.0000 0.01950  0.16950  0.63480  Biso   1.000  C
  C246     1.0000 0.15000  0.98050  0.63480  Biso   1.000  C
  C247     1.0000 0.50283  0.68617  0.53187  Biso   1.000  C
  C248     1.0000 0.31383  0.81667  0.53187  Biso   1.000  C
  C249     1.0000 0.35283  0.83617  0.30147  Biso   1.000  C
  C250     1.0000 0.48333  0.64717  0.30147  Biso   1.000  C
  C251     1.0000 0.68617  0.50283  0.96813  Biso   1.000  C
  C252     1.0000 0.81667  0.31383  0.96813  Biso   1.000  C
  H181     1.0000 0.14140  0.09840  0.13440  Biso   1.000  H
  H182     1.0000 0.90160  0.04300  0.13440  Biso   1.000  H
  H183     1.0000 0.95700  0.85860  0.13440  Biso   1.000  H
  H184     1.0000 0.09840  0.14140  0.36560  Biso   1.000  H
  H185     1.0000 0.80807  0.43173  0.46773  Biso   1.000  H
  H186     1.0000 0.56827  0.37633  0.46773  Biso   1.000  H
  H187     1.0000 0.62367  0.19193  0.46773  Biso   1.000  H
  H188     1.0000 0.76507  0.47473  0.69893  Biso   1.000  H
  H189     1.0000 0.47473  0.76507  0.80107  Biso   1.000  H
  H190     1.0000 0.43173  0.80807  0.03227  Biso   1.000  H
  H191     1.0000 0.04300  0.90160  0.36560  Biso   1.000  H
  H192     1.0000 0.85860  0.95700  0.36560  Biso   1.000  H
  H193     1.0000 0.23493  0.70967  0.80107  Biso   1.000  H
  H194     1.0000 0.29033  0.52527  0.80107  Biso   1.000  H
  H195     1.0000 0.37633  0.56827  0.03227  Biso   1.000  H
  H196     1.0000 0.19193  0.62367  0.03227  Biso   1.000  H
  H197     1.0000 0.70967  0.23493  0.69893  Biso   1.000  H
  H198     1.0000 0.52527  0.29033  0.69893  Biso   1.000  H
  H199     1.0000 0.85860  0.90160  0.86560  Biso   1.000  H
  H200     1.0000 0.09840  0.95700  0.86560  Biso   1.000  H
  H201     1.0000 0.04300  0.14140  0.86560  Biso   1.000  H
  H202     1.0000 0.90160  0.85860  0.63440  Biso   1.000  H
  H203     1.0000 0.52527  0.23493  0.19893  Biso   1.000  H
  H204     1.0000 0.76507  0.29033  0.19893  Biso   1.000  H
  H205     1.0000 0.70967  0.47473  0.19893  Biso   1.000  H
  H206     1.0000 0.56827  0.19193  0.96773  Biso   1.000  H
  H207     1.0000 0.19193  0.56827  0.53227  Biso   1.000  H
  H208     1.0000 0.23493  0.52527  0.30107  Biso   1.000  H
  H209     1.0000 0.95700  0.09840  0.63440  Biso   1.000  H
  H210     1.0000 0.14140  0.04300  0.63440  Biso   1.000  H
  H211     1.0000 0.43173  0.62367  0.53227  Biso   1.000  H
  H212     1.0000 0.37633  0.80807  0.53227  Biso   1.000  H
  H213     1.0000 0.29033  0.76507  0.30107  Biso   1.000  H
  H214     1.0000 0.47473  0.70967  0.30107  Biso   1.000  H
  H215     1.0000 0.62367  0.43173  0.96773  Biso   1.000  H
  H216     1.0000 0.80807  0.37633  0.96773  Biso   1.000  H
  C253     1.0000 0.11520  0.20940  0.11128  Biso   1.000  C
  C254     1.0000 0.79060  0.90580  0.11128  Biso   1.000  C
  C255     1.0000 0.09420  0.88480  0.11128  Biso   1.000  C
  C256     1.0000 0.20940  0.11520  0.38872  Biso   1.000  C
  C257     1.0000 0.78187  0.54273  0.44461  Biso   1.000  C
  C258     1.0000 0.45727  0.23913  0.44461  Biso   1.000  C
  C259     1.0000 0.76087  0.21813  0.44461  Biso   1.000  C
  C260     1.0000 0.87607  0.44853  0.72205  Biso   1.000  C
  C261     1.0000 0.44853  0.87607  0.77795  Biso   1.000  C
  C262     1.0000 0.54273  0.78187  0.05539  Biso   1.000  C
  C263     1.0000 0.90580  0.79060  0.38872  Biso   1.000  C
  C264     1.0000 0.88480  0.09420  0.38872  Biso   1.000  C
  C265     1.0000 0.12393  0.57247  0.77795  Biso   1.000  C
  C266     1.0000 0.42753  0.55147  0.77795  Biso   1.000  C
  C267     1.0000 0.23913  0.45727  0.05539  Biso   1.000  C
  C268     1.0000 0.21813  0.76087  0.05539  Biso   1.000  C
  C269     1.0000 0.57247  0.12393  0.72205  Biso   1.000  C
  C270     1.0000 0.55147  0.42753  0.72205  Biso   1.000  C
  C271     1.0000 0.88480  0.79060  0.88872  Biso   1.000  C
  C272     1.0000 0.20940  0.09420  0.88872  Biso   1.000  C
  C273     1.0000 0.90580  0.11520  0.88872  Biso   1.000  C
  C274     1.0000 0.79060  0.88480  0.61128  Biso   1.000  C
  C275     1.0000 0.55147  0.12393  0.22205  Biso   1.000  C
  C276     1.0000 0.87607  0.42753  0.22205  Biso   1.000  C
  C277     1.0000 0.57247  0.44853  0.22205  Biso   1.000  C
  C278     1.0000 0.45727  0.21813  0.94461  Biso   1.000  C
  C279     1.0000 0.21813  0.45727  0.55539  Biso   1.000  C
  C280     1.0000 0.12393  0.55147  0.27795  Biso   1.000  C
  C281     1.0000 0.09420  0.20940  0.61128  Biso   1.000  C
  C282     1.0000 0.11520  0.90580  0.61128  Biso   1.000  C
  C283     1.0000 0.54273  0.76087  0.55539  Biso   1.000  C
  C284     1.0000 0.23913  0.78187  0.55539  Biso   1.000  C
  C285     1.0000 0.42753  0.87607  0.27795  Biso   1.000  C
  C286     1.0000 0.44853  0.57247  0.27795  Biso   1.000  C
  C287     1.0000 0.76087  0.54273  0.94461  Biso   1.000  C
  C288     1.0000 0.78187  0.23913  0.94461  Biso   1.000  C
  O1       1.0000 0.05940  0.14440  0.09312  Biso   1.000  O
  O2       1.0000 0.85560  0.91500  0.09312  Biso   1.000  O
  O3       1.0000 0.08500  0.94060  0.09312  Biso   1.000  O
  O4       1.0000 0.14440  0.05940  0.40688  Biso   1.000  O
  O5       1.0000 0.72607  0.47773  0.42645  Biso   1.000  O
  O6       1.0000 0.52227  0.24833  0.42645  Biso   1.000  O
  O7       1.0000 0.75167  0.27393  0.42645  Biso   1.000  O
  O8       1.0000 0.81107  0.39273  0.74021  Biso   1.000  O
  O9       1.0000 0.39273  0.81107  0.75979  Biso   1.000  O
  O10      1.0000 0.47773  0.72607  0.07355  Biso   1.000  O
  O11      1.0000 0.91500  0.85560  0.40688  Biso   1.000  O
  O12      1.0000 0.94060  0.08500  0.40688  Biso   1.000  O
  O13      1.0000 0.18893  0.58167  0.75979  Biso   1.000  O
  O14      1.0000 0.41833  0.60727  0.75979  Biso   1.000  O
  O15      1.0000 0.24833  0.52227  0.07355  Biso   1.000  O
  O16      1.0000 0.27393  0.75167  0.07355  Biso   1.000  O
  O17      1.0000 0.58167  0.18893  0.74021  Biso   1.000  O
  O18      1.0000 0.60727  0.41833  0.74021  Biso   1.000  O
  O19      1.0000 0.94060  0.85560  0.90688  Biso   1.000  O
  O20      1.0000 0.14440  0.08500  0.90688  Biso   1.000  O
  O21      1.0000 0.91500  0.05940  0.90688  Biso   1.000  O
  O22      1.0000 0.85560  0.94060  0.59312  Biso   1.000  O
  O23      1.0000 0.60727  0.18893  0.24021  Biso   1.000  O
  O24      1.0000 0.81107  0.41833  0.24021  Biso   1.000  O
  O25      1.0000 0.58167  0.39273  0.24021  Biso   1.000  O
  O26      1.0000 0.52227  0.27393  0.92645  Biso   1.000  O
  O27      1.0000 0.27393  0.52227  0.57355  Biso   1.000  O
  O28      1.0000 0.18893  0.60727  0.25979  Biso   1.000  O
  O29      1.0000 0.08500  0.14440  0.59312  Biso   1.000  O
  O30      1.0000 0.05940  0.91500  0.59312  Biso   1.000  O
  O31      1.0000 0.47773  0.75167  0.57355  Biso   1.000  O
  O32      1.0000 0.24833  0.72607  0.57355  Biso   1.000  O
  O33      1.0000 0.41833  0.81107  0.25979  Biso   1.000  O
  O34      1.0000 0.39273  0.58167  0.25979  Biso   1.000  O
  O35      1.0000 0.75167  0.47773  0.92645  Biso   1.000  O
  O36      1.0000 0.72607  0.24833  0.92645  Biso   1.000  O
  O37      1.0000 0.13900  0.30750  0.11098  Biso   1.000  O
  O38      1.0000 0.69250  0.83150  0.11098  Biso   1.000  O
  O39      1.0000 0.16850  0.86100  0.11098  Biso   1.000  O
  O40      1.0000 0.30750  0.13900  0.38902  Biso   1.000  O
  O41      1.0000 0.80567  0.64083  0.44431  Biso   1.000  O
  O42      1.0000 0.35917  0.16483  0.44431  Biso   1.000  O
  O43      1.0000 0.83517  0.19433  0.44431  Biso   1.000  O
  O44      1.0000 0.97417  0.47233  0.72235  Biso   1.000  O
  O45      1.0000 0.47233  0.97417  0.77765  Biso   1.000  O
  O46      1.0000 0.64083  0.80567  0.05569  Biso   1.000  O
  O47      1.0000 0.83150  0.69250  0.38902  Biso   1.000  O
  O48      1.0000 0.86100  0.16850  0.38902  Biso   1.000  O
  O49      1.0000 0.02583  0.49817  0.77765  Biso   1.000  O
  O50      1.0000 0.50183  0.52767  0.77765  Biso   1.000  O
  O51      1.0000 0.16483  0.35917  0.05569  Biso   1.000  O
  O52      1.0000 0.19433  0.83517  0.05569  Biso   1.000  O
  O53      1.0000 0.49817  0.02583  0.72235  Biso   1.000  O
  O54      1.0000 0.52767  0.50183  0.72235  Biso   1.000  O
  O55      1.0000 0.86100  0.69250  0.88902  Biso   1.000  O
  O56      1.0000 0.30750  0.16850  0.88902  Biso   1.000  O
  O57      1.0000 0.83150  0.13900  0.88902  Biso   1.000  O
  O58      1.0000 0.69250  0.86100  0.61098  Biso   1.000  O
  O59      1.0000 0.52767  0.02583  0.22235  Biso   1.000  O
  O60      1.0000 0.97417  0.50183  0.22235  Biso   1.000  O
  O61      1.0000 0.49817  0.47233  0.22235  Biso   1.000  O
  O62      1.0000 0.35917  0.19433  0.94431  Biso   1.000  O
  O63      1.0000 0.19433  0.35917  0.55569  Biso   1.000  O
  O64      1.0000 0.02583  0.52767  0.27765  Biso   1.000  O
  O65      1.0000 0.16850  0.30750  0.61098  Biso   1.000  O
  O66      1.0000 0.13900  0.83150  0.61098  Biso   1.000  O
  O67      1.0000 0.64083  0.83517  0.55569  Biso   1.000  O
  O68      1.0000 0.16483  0.80567  0.55569  Biso   1.000  O
  O69      1.0000 0.50183  0.97417  0.27765  Biso   1.000  O
  O70      1.0000 0.47233  0.49817  0.27765  Biso   1.000  O
  O71      1.0000 0.83517  0.64083  0.94431  Biso   1.000  O
  O72      1.0000 0.80567  0.16483  0.94431  Biso   1.000  O
  N37      1.0000 0.20140  0.15630  0.03293  Biso   1.000  N
  N38      1.0000 0.84370  0.04510  0.03293  Biso   1.000  N
  N39      1.0000 0.95490  0.79860  0.03293  Biso   1.000  N
  N40      1.0000 0.15630  0.20140  0.46707  Biso   1.000  N
  N41      1.0000 0.86807  0.48963  0.36626  Biso   1.000  N
  N42      1.0000 0.51037  0.37843  0.36626  Biso   1.000  N
  N43      1.0000 0.62157  0.13193  0.36626  Biso   1.000  N
  N44      1.0000 0.82297  0.53473  0.80040  Biso   1.000  N
  N45      1.0000 0.53473  0.82297  0.69960  Biso   1.000  N
  N46      1.0000 0.48963  0.86807  0.13374  Biso   1.000  N
  N47      1.0000 0.04510  0.84370  0.46707  Biso   1.000  N
  N48      1.0000 0.79860  0.95490  0.46707  Biso   1.000  N
  N49      1.0000 0.17703  0.71177  0.69960  Biso   1.000  N
  N50      1.0000 0.28823  0.46527  0.69960  Biso   1.000  N
  N51      1.0000 0.37843  0.51037  0.13374  Biso   1.000  N
  N52      1.0000 0.13193  0.62157  0.13374  Biso   1.000  N
  N53      1.0000 0.71177  0.17703  0.80040  Biso   1.000  N
  N54      1.0000 0.46527  0.28823  0.80040  Biso   1.000  N
  N55      1.0000 0.79860  0.84370  0.96707  Biso   1.000  N
  N56      1.0000 0.15630  0.95490  0.96707  Biso   1.000  N
  N57      1.0000 0.04510  0.20140  0.96707  Biso   1.000  N
  N58      1.0000 0.84370  0.79860  0.53293  Biso   1.000  N
  N59      1.0000 0.46527  0.17703  0.30040  Biso   1.000  N
  N60      1.0000 0.82297  0.28823  0.30040  Biso   1.000  N
  N61      1.0000 0.71177  0.53473  0.30040  Biso   1.000  N
  N62      1.0000 0.51037  0.13193  0.86626  Biso   1.000  N
  N63      1.0000 0.13193  0.51037  0.63374  Biso   1.000  N
  N64      1.0000 0.17703  0.46527  0.19960  Biso   1.000  N
  N65      1.0000 0.95490  0.15630  0.53293  Biso   1.000  N
  N66      1.0000 0.20140  0.04510  0.53293  Biso   1.000  N
  N67      1.0000 0.48963  0.62157  0.63374  Biso   1.000  N
  N68      1.0000 0.37843  0.86807  0.63374  Biso   1.000  N
  N69      1.0000 0.28823  0.82297  0.19960  Biso   1.000  N
  N70      1.0000 0.53473  0.71177  0.19960  Biso   1.000  N
  N71      1.0000 0.62157  0.48963  0.86626  Biso   1.000  N
  N72      1.0000 0.86807  0.37843  0.86626  Biso   1.000  N
  O73      1.0000 0.20170  0.10230  0.05381  Biso   1.000  O
  O74      1.0000 0.89770  0.09940  0.05381  Biso   1.000  O
  O75      1.0000 0.90060  0.79830  0.05381  Biso   1.000  O
  O76      1.0000 0.10230  0.20170  0.44619  Biso   1.000  O
  O77      1.0000 0.86837  0.43563  0.38714  Biso   1.000  O
  O78      1.0000 0.56437  0.43273  0.38714  Biso   1.000  O
  O79      1.0000 0.56727  0.13163  0.38714  Biso   1.000  O
  O80      1.0000 0.76897  0.53503  0.77952  Biso   1.000  O
  O81      1.0000 0.53503  0.76897  0.72048  Biso   1.000  O
  O82      1.0000 0.43563  0.86837  0.11286  Biso   1.000  O
  O83      1.0000 0.09940  0.89770  0.44619  Biso   1.000  O
  O84      1.0000 0.79830  0.90060  0.44619  Biso   1.000  O
  O85      1.0000 0.23103  0.76607  0.72048  Biso   1.000  O
  O86      1.0000 0.23393  0.46497  0.72048  Biso   1.000  O
  O87      1.0000 0.43273  0.56437  0.11286  Biso   1.000  O
  O88      1.0000 0.13163  0.56727  0.11286  Biso   1.000  O
  O89      1.0000 0.76607  0.23103  0.77952  Biso   1.000  O
  O90      1.0000 0.46497  0.23393  0.77952  Biso   1.000  O
  O91      1.0000 0.79830  0.89770  0.94619  Biso   1.000  O
  O92      1.0000 0.10230  0.90060  0.94619  Biso   1.000  O
  O93      1.0000 0.09940  0.20170  0.94619  Biso   1.000  O
  O94      1.0000 0.89770  0.79830  0.55381  Biso   1.000  O
  O95      1.0000 0.46497  0.23103  0.27952  Biso   1.000  O
  O96      1.0000 0.76897  0.23393  0.27952  Biso   1.000  O
  O97      1.0000 0.76607  0.53503  0.27952  Biso   1.000  O
  O98      1.0000 0.56437  0.13163  0.88714  Biso   1.000  O
  O99      1.0000 0.13163  0.56437  0.61286  Biso   1.000  O
  O100     1.0000 0.23103  0.46497  0.22048  Biso   1.000  O
  O101     1.0000 0.90060  0.10230  0.55381  Biso   1.000  O
  O102     1.0000 0.20170  0.09940  0.55381  Biso   1.000  O
  O103     1.0000 0.43563  0.56727  0.61286  Biso   1.000  O
  O104     1.0000 0.43273  0.86837  0.61286  Biso   1.000  O
  O105     1.0000 0.23393  0.76897  0.22048  Biso   1.000  O
  O106     1.0000 0.53503  0.76607  0.22048  Biso   1.000  O
  O107     1.0000 0.56727  0.43563  0.88714  Biso   1.000  O
  O108     1.0000 0.86837  0.43273  0.88714  Biso   1.000  O
  O109     1.0000 0.11010  0.14080  0.02572  Biso   1.000  O
  O110     1.0000 0.85920  0.96930  0.02572  Biso   1.000  O
  O111     1.0000 0.03070  0.88990  0.02572  Biso   1.000  O
  O112     1.0000 0.14080  0.11010  0.47428  Biso   1.000  O
  O113     1.0000 0.77677  0.47413  0.35905  Biso   1.000  O
  O114     1.0000 0.52587  0.30263  0.35905  Biso   1.000  O
  O115     1.0000 0.69737  0.22323  0.35905  Biso   1.000  O
  O116     1.0000 0.80747  0.44343  0.80761  Biso   1.000  O
  O117     1.0000 0.44343  0.80747  0.69239  Biso   1.000  O
  O118     1.0000 0.47413  0.77677  0.14095  Biso   1.000  O
  O119     1.0000 0.96930  0.85920  0.47428  Biso   1.000  O
  O120     1.0000 0.88990  0.03070  0.47428  Biso   1.000  O
  O121     1.0000 0.19253  0.63597  0.69239  Biso   1.000  O
  O122     1.0000 0.36403  0.55657  0.69239  Biso   1.000  O
  O123     1.0000 0.30263  0.52587  0.14095  Biso   1.000  O
  O124     1.0000 0.22323  0.69737  0.14095  Biso   1.000  O
  O125     1.0000 0.63597  0.19253  0.80761  Biso   1.000  O
  O126     1.0000 0.55657  0.36403  0.80761  Biso   1.000  O
  O127     1.0000 0.88990  0.85920  0.97428  Biso   1.000  O
  O128     1.0000 0.14080  0.03070  0.97428  Biso   1.000  O
  O129     1.0000 0.96930  0.11010  0.97428  Biso   1.000  O
  O130     1.0000 0.85920  0.88990  0.52572  Biso   1.000  O
  O131     1.0000 0.55657  0.19253  0.30761  Biso   1.000  O
  O132     1.0000 0.80747  0.36403  0.30761  Biso   1.000  O
  O133     1.0000 0.63597  0.44343  0.30761  Biso   1.000  O
  O134     1.0000 0.52587  0.22323  0.85905  Biso   1.000  O
  O135     1.0000 0.22323  0.52587  0.64095  Biso   1.000  O
  O136     1.0000 0.19253  0.55657  0.19239  Biso   1.000  O
  O137     1.0000 0.03070  0.14080  0.52572  Biso   1.000  O
  O138     1.0000 0.11010  0.96930  0.52572  Biso   1.000  O
  O139     1.0000 0.47413  0.69737  0.64095  Biso   1.000  O
  O140     1.0000 0.30263  0.77677  0.64095  Biso   1.000  O
  O141     1.0000 0.36403  0.80747  0.19239  Biso   1.000  O
  O142     1.0000 0.44343  0.63597  0.19239  Biso   1.000  O
  O143     1.0000 0.69737  0.47413  0.85905  Biso   1.000  O
  O144     1.0000 0.77677  0.30263  0.85905  Biso   1.000  O
  O145     1.0000 0.28580  0.21770  0.02155  Biso   1.000  O
  O146     1.0000 0.78230  0.06810  0.02155  Biso   1.000  O
  O147     1.0000 0.93190  0.71420  0.02155  Biso   1.000  O
  O148     1.0000 0.21770  0.28580  0.47845  Biso   1.000  O
  O149     1.0000 0.95247  0.55103  0.35488  Biso   1.000  O
  O150     1.0000 0.44897  0.40143  0.35488  Biso   1.000  O
  O151     1.0000 0.59857  0.04753  0.35488  Biso   1.000  O
  O152     1.0000 0.88437  0.61913  0.81178  Biso   1.000  O
  O153     1.0000 0.61913  0.88437  0.68822  Biso   1.000  O
  O154     1.0000 0.55103  0.95247  0.14512  Biso   1.000  O
  O155     1.0000 0.06810  0.78230  0.47845  Biso   1.000  O
  O156     1.0000 0.71420  0.93190  0.47845  Biso   1.000  O
  O157     1.0000 0.11563  0.73477  0.68822  Biso   1.000  O
  O158     1.0000 0.26523  0.38087  0.68822  Biso   1.000  O
  O159     1.0000 0.40143  0.44897  0.14512  Biso   1.000  O
  O160     1.0000 0.04753  0.59857  0.14512  Biso   1.000  O
  O161     1.0000 0.73477  0.11563  0.81178  Biso   1.000  O
  O162     1.0000 0.38087  0.26523  0.81178  Biso   1.000  O
  O163     1.0000 0.71420  0.78230  0.97845  Biso   1.000  O
  O164     1.0000 0.21770  0.93190  0.97845  Biso   1.000  O
  O165     1.0000 0.06810  0.28580  0.97845  Biso   1.000  O
  O166     1.0000 0.78230  0.71420  0.52155  Biso   1.000  O
  O167     1.0000 0.38087  0.11563  0.31178  Biso   1.000  O
  O168     1.0000 0.88437  0.26523  0.31178  Biso   1.000  O
  O169     1.0000 0.73477  0.61913  0.31178  Biso   1.000  O
  O170     1.0000 0.44897  0.04753  0.85488  Biso   1.000  O
  O171     1.0000 0.04753  0.44897  0.64512  Biso   1.000  O
  O172     1.0000 0.11563  0.38087  0.18822  Biso   1.000  O
  O173     1.0000 0.93190  0.21770  0.52155  Biso   1.000  O
  O174     1.0000 0.28580  0.06810  0.52155  Biso   1.000  O
  O175     1.0000 0.55103  0.59857  0.64512  Biso   1.000  O
  O176     1.0000 0.40143  0.95247  0.64512  Biso   1.000  O
  O177     1.0000 0.26523  0.88437  0.18822  Biso   1.000  O
  O178     1.0000 0.61913  0.73477  0.18822  Biso   1.000  O
  O179     1.0000 0.59857  0.55103  0.85488  Biso   1.000  O
  O180     1.0000 0.95247  0.40143  0.85488  Biso   1.000  O
