data_image0
_cell_length_a       23.3019
_cell_length_b       23.3019
_cell_length_c       23.3019
_cell_angle_alpha    90
_cell_angle_beta     90
_cell_angle_gamma    90

_symmetry_space_group_name_H-M    "P 1"
_symmetry_int_tables_number       1

loop_
  _symmetry_equiv_pos_as_xyz
  'x, y, z'

loop_
  _atom_site_label
  _atom_site_occupancy
  _atom_site_fract_x
  _atom_site_fract_y
  _atom_site_fract_z
  _atom_site_thermal_displace_type
  _atom_site_B_iso_or_equiv
  _atom_site_type_symbol
  Cu1      1.0000 0.26791  0.14492  0.93550  Biso   1.000  Cu
  Cu2      1.0000 0.93550  0.26791  0.14492  Biso   1.000  Cu
  Cu3      1.0000 0.14492  0.93550  0.26791  Biso   1.000  Cu
  Cu4      1.0000 0.23209  0.85508  0.43550  Biso   1.000  Cu
  Cu5      1.0000 0.73209  0.64492  0.56450  Biso   1.000  Cu
  Cu6      1.0000 0.76791  0.35508  0.06450  Biso   1.000  Cu
  Cu7      1.0000 0.43550  0.23209  0.85508  Biso   1.000  Cu
  Cu8      1.0000 0.56450  0.73209  0.64492  Biso   1.000  Cu
  Cu9      1.0000 0.06450  0.76791  0.35508  Biso   1.000  Cu
  Cu10     1.0000 0.85508  0.43550  0.23209  Biso   1.000  Cu
  Cu11     1.0000 0.64492  0.56450  0.73209  Biso   1.000  Cu
  Cu12     1.0000 0.35508  0.06450  0.76791  Biso   1.000  Cu
  Cu13     1.0000 0.73209  0.85508  0.06450  Biso   1.000  Cu
  Cu14     1.0000 0.06450  0.73209  0.85508  Biso   1.000  Cu
  Cu15     1.0000 0.85508  0.06450  0.73209  Biso   1.000  Cu
  Cu16     1.0000 0.76791  0.14492  0.56450  Biso   1.000  Cu
  Cu17     1.0000 0.26791  0.35508  0.43550  Biso   1.000  Cu
  Cu18     1.0000 0.23209  0.64492  0.93550  Biso   1.000  Cu
  Cu19     1.0000 0.56450  0.76791  0.14492  Biso   1.000  Cu
  Cu20     1.0000 0.43550  0.26791  0.35508  Biso   1.000  Cu
  Cu21     1.0000 0.93550  0.23209  0.64492  Biso   1.000  Cu
  Cu22     1.0000 0.14492  0.56450  0.76791  Biso   1.000  Cu
  Cu23     1.0000 0.35508  0.43550  0.26791  Biso   1.000  Cu
  Cu24     1.0000 0.64492  0.93550  0.23209  Biso   1.000  Cu
  O1       1.0000 0.20650  0.10420  0.97120  Biso   1.000  O
  O2       1.0000 0.97120  0.20650  0.10420  Biso   1.000  O
  O3       1.0000 0.10420  0.97120  0.20650  Biso   1.000  O
  O4       1.0000 0.29350  0.89580  0.47120  Biso   1.000  O
  O5       1.0000 0.79350  0.60420  0.52880  Biso   1.000  O
  O6       1.0000 0.70650  0.39580  0.02880  Biso   1.000  O
  O7       1.0000 0.47120  0.29350  0.89580  Biso   1.000  O
  O8       1.0000 0.52880  0.79350  0.60420  Biso   1.000  O
  O9       1.0000 0.02880  0.70650  0.39580  Biso   1.000  O
  O10      1.0000 0.89580  0.47120  0.29350  Biso   1.000  O
  O11      1.0000 0.60420  0.52880  0.79350  Biso   1.000  O
  O12      1.0000 0.39580  0.02880  0.70650  Biso   1.000  O
  O13      1.0000 0.79350  0.89580  0.02880  Biso   1.000  O
  O14      1.0000 0.02880  0.79350  0.89580  Biso   1.000  O
  O15      1.0000 0.89580  0.02880  0.79350  Biso   1.000  O
  O16      1.0000 0.70650  0.10420  0.52880  Biso   1.000  O
  O17      1.0000 0.20650  0.39580  0.47120  Biso   1.000  O
  O18      1.0000 0.29350  0.60420  0.97120  Biso   1.000  O
  O19      1.0000 0.52880  0.70650  0.10420  Biso   1.000  O
  O20      1.0000 0.47120  0.20650  0.39580  Biso   1.000  O
  O21      1.0000 0.97120  0.29350  0.60420  Biso   1.000  O
  O22      1.0000 0.10420  0.52880  0.70650  Biso   1.000  O
  O23      1.0000 0.39580  0.47120  0.20650  Biso   1.000  O
  O24      1.0000 0.60420  0.97120  0.29350  Biso   1.000  O
  N1       1.0000 0.34070  0.17360  0.90360  Biso   1.000  N
  N2       1.0000 0.90360  0.34070  0.17360  Biso   1.000  N
  N3       1.0000 0.17360  0.90360  0.34070  Biso   1.000  N
  N4       1.0000 0.15930  0.82640  0.40360  Biso   1.000  N
  N5       1.0000 0.65930  0.67360  0.59640  Biso   1.000  N
  N6       1.0000 0.84070  0.32640  0.09640  Biso   1.000  N
  N7       1.0000 0.40360  0.15930  0.82640  Biso   1.000  N
  N8       1.0000 0.59640  0.65930  0.67360  Biso   1.000  N
  N9       1.0000 0.09640  0.84070  0.32640  Biso   1.000  N
  N10      1.0000 0.82640  0.40360  0.15930  Biso   1.000  N
  N11      1.0000 0.67360  0.59640  0.65930  Biso   1.000  N
  N12      1.0000 0.32640  0.09640  0.84070  Biso   1.000  N
  N13      1.0000 0.65930  0.82640  0.09640  Biso   1.000  N
  N14      1.0000 0.09640  0.65930  0.82640  Biso   1.000  N
  N15      1.0000 0.82640  0.09640  0.65930  Biso   1.000  N
  N16      1.0000 0.84070  0.17360  0.59640  Biso   1.000  N
  N17      1.0000 0.34070  0.32640  0.40360  Biso   1.000  N
  N18      1.0000 0.15930  0.67360  0.90360  Biso   1.000  N
  N19      1.0000 0.59640  0.84070  0.17360  Biso   1.000  N
  N20      1.0000 0.40360  0.34070  0.32640  Biso   1.000  N
  N21      1.0000 0.90360  0.15930  0.67360  Biso   1.000  N
  N22      1.0000 0.17360  0.59640  0.84070  Biso   1.000  N
  N23      1.0000 0.32640  0.40360  0.34070  Biso   1.000  N
  N24      1.0000 0.67360  0.90360  0.15930  Biso   1.000  N
  N25      1.0000 0.28400  0.08360  0.88070  Biso   1.000  N
  N26      1.0000 0.88070  0.28400  0.08360  Biso   1.000  N
  N27      1.0000 0.08360  0.88070  0.28400  Biso   1.000  N
  N28      1.0000 0.21600  0.91640  0.38070  Biso   1.000  N
  N29      1.0000 0.71600  0.58360  0.61930  Biso   1.000  N
  N30      1.0000 0.78400  0.41640  0.11930  Biso   1.000  N
  N31      1.0000 0.38070  0.21600  0.91640  Biso   1.000  N
  N32      1.0000 0.61930  0.71600  0.58360  Biso   1.000  N
  N33      1.0000 0.11930  0.78400  0.41640  Biso   1.000  N
  N34      1.0000 0.91640  0.38070  0.21600  Biso   1.000  N
  N35      1.0000 0.58360  0.61930  0.71600  Biso   1.000  N
  N36      1.0000 0.41640  0.11930  0.78400  Biso   1.000  N
  N37      1.0000 0.71600  0.91640  0.11930  Biso   1.000  N
  N38      1.0000 0.11930  0.71600  0.91640  Biso   1.000  N
  N39      1.0000 0.91640  0.11930  0.71600  Biso   1.000  N
  N40      1.0000 0.78400  0.08360  0.61930  Biso   1.000  N
  N41      1.0000 0.28400  0.41640  0.38070  Biso   1.000  N
  N42      1.0000 0.21600  0.58360  0.88070  Biso   1.000  N
  N43      1.0000 0.61930  0.78400  0.08360  Biso   1.000  N
  N44      1.0000 0.38070  0.28400  0.41640  Biso   1.000  N
  N45      1.0000 0.88070  0.21600  0.58360  Biso   1.000  N
  N46      1.0000 0.08360  0.61930  0.78400  Biso   1.000  N
  N47      1.0000 0.41640  0.38070  0.28400  Biso   1.000  N
  N48      1.0000 0.58360  0.88070  0.21600  Biso   1.000  N
  C1       1.0000 0.35650  0.14350  0.85650  Biso   1.000  C
  C2       1.0000 0.85650  0.35650  0.14350  Biso   1.000  C
  C3       1.0000 0.14350  0.85650  0.35650  Biso   1.000  C
  C4       1.0000 0.64350  0.64350  0.64350  Biso   1.000  C
  C5       1.0000 0.64350  0.85650  0.14350  Biso   1.000  C
  C6       1.0000 0.14350  0.64350  0.85650  Biso   1.000  C
  C7       1.0000 0.85650  0.14350  0.64350  Biso   1.000  C
  C8       1.0000 0.35650  0.35650  0.35650  Biso   1.000  C
  C9       1.0000 0.25710  0.03470  0.87710  Biso   1.000  C
  C10      1.0000 0.87710  0.25710  0.03470  Biso   1.000  C
  C11      1.0000 0.03470  0.87710  0.25710  Biso   1.000  C
  C12      1.0000 0.24290  0.96530  0.37710  Biso   1.000  C
  C13      1.0000 0.74290  0.53470  0.62290  Biso   1.000  C
  C14      1.0000 0.75710  0.46530  0.12290  Biso   1.000  C
  C15      1.0000 0.37710  0.24290  0.96530  Biso   1.000  C
  C16      1.0000 0.62290  0.74290  0.53470  Biso   1.000  C
  C17      1.0000 0.12290  0.75710  0.46530  Biso   1.000  C
  C18      1.0000 0.96530  0.37710  0.24290  Biso   1.000  C
  C19      1.0000 0.53470  0.62290  0.74290  Biso   1.000  C
  C20      1.0000 0.46530  0.12290  0.75710  Biso   1.000  C
  C21      1.0000 0.74290  0.96530  0.12290  Biso   1.000  C
  C22      1.0000 0.12290  0.74290  0.96530  Biso   1.000  C
  C23      1.0000 0.96530  0.12290  0.74290  Biso   1.000  C
  C24      1.0000 0.75710  0.03470  0.62290  Biso   1.000  C
  C25      1.0000 0.25710  0.46530  0.37710  Biso   1.000  C
  C26      1.0000 0.24290  0.53470  0.87710  Biso   1.000  C
  C27      1.0000 0.62290  0.75710  0.03470  Biso   1.000  C
  C28      1.0000 0.37710  0.25710  0.46530  Biso   1.000  C
  C29      1.0000 0.87710  0.24290  0.53470  Biso   1.000  C
  C30      1.0000 0.03470  0.62290  0.75710  Biso   1.000  C
  C31      1.0000 0.46530  0.37710  0.25710  Biso   1.000  C
  C32      1.0000 0.53470  0.87710  0.24290  Biso   1.000  C
  H1       1.0000 0.26730  0.00960  0.84660  Biso   1.000  H
  H2       1.0000 0.84660  0.26730  0.00960  Biso   1.000  H
  H3       1.0000 0.00960  0.84660  0.26730  Biso   1.000  H
  H4       1.0000 0.23270  0.99040  0.34660  Biso   1.000  H
  H5       1.0000 0.73270  0.50960  0.65340  Biso   1.000  H
  H6       1.0000 0.76730  0.49040  0.15340  Biso   1.000  H
  H7       1.0000 0.34660  0.23270  0.99040  Biso   1.000  H
  H8       1.0000 0.65340  0.73270  0.50960  Biso   1.000  H
  H9       1.0000 0.15340  0.76730  0.49040  Biso   1.000  H
  H10      1.0000 0.99040  0.34660  0.23270  Biso   1.000  H
  H11      1.0000 0.50960  0.65340  0.73270  Biso   1.000  H
  H12      1.0000 0.49040  0.15340  0.76730  Biso   1.000  H
  H13      1.0000 0.73270  0.99040  0.15340  Biso   1.000  H
  H14      1.0000 0.15340  0.73270  0.99040  Biso   1.000  H
  H15      1.0000 0.99040  0.15340  0.73270  Biso   1.000  H
  H16      1.0000 0.76730  0.00960  0.65340  Biso   1.000  H
  H17      1.0000 0.26730  0.49040  0.34660  Biso   1.000  H
  H18      1.0000 0.23270  0.50960  0.84660  Biso   1.000  H
  H19      1.0000 0.65340  0.76730  0.00960  Biso   1.000  H
  H20      1.0000 0.34660  0.26730  0.49040  Biso   1.000  H
  H21      1.0000 0.84660  0.23270  0.50960  Biso   1.000  H
  H22      1.0000 0.00960  0.65340  0.76730  Biso   1.000  H
  H23      1.0000 0.49040  0.34660  0.26730  Biso   1.000  H
  H24      1.0000 0.50960  0.84660  0.23270  Biso   1.000  H
  C33      1.0000 0.21300  0.01590  0.91640  Biso   1.000  C
  C34      1.0000 0.91640  0.21300  0.01590  Biso   1.000  C
  C35      1.0000 0.01590  0.91640  0.21300  Biso   1.000  C
  C36      1.0000 0.28700  0.98410  0.41640  Biso   1.000  C
  C37      1.0000 0.78700  0.51590  0.58360  Biso   1.000  C
  C38      1.0000 0.71300  0.48410  0.08360  Biso   1.000  C
  C39      1.0000 0.41640  0.28700  0.98410  Biso   1.000  C
  C40      1.0000 0.58360  0.78700  0.51590  Biso   1.000  C
  C41      1.0000 0.08360  0.71300  0.48410  Biso   1.000  C
  C42      1.0000 0.98410  0.41640  0.28700  Biso   1.000  C
  C43      1.0000 0.51590  0.58360  0.78700  Biso   1.000  C
  C44      1.0000 0.48410  0.08360  0.71300  Biso   1.000  C
  C45      1.0000 0.78700  0.98410  0.08360  Biso   1.000  C
  C46      1.0000 0.08360  0.78700  0.98410  Biso   1.000  C
  C47      1.0000 0.98410  0.08360  0.78700  Biso   1.000  C
  C48      1.0000 0.71300  0.01590  0.58360  Biso   1.000  C
  C49      1.0000 0.21300  0.48410  0.41640  Biso   1.000  C
  C50      1.0000 0.28700  0.51590  0.91640  Biso   1.000  C
  C51      1.0000 0.58360  0.71300  0.01590  Biso   1.000  C
  C52      1.0000 0.41640  0.21300  0.48410  Biso   1.000  C
  C53      1.0000 0.91640  0.28700  0.51590  Biso   1.000  C
  C54      1.0000 0.01590  0.58360  0.71300  Biso   1.000  C
  C55      1.0000 0.48410  0.41640  0.21300  Biso   1.000  C
  C56      1.0000 0.51590  0.91640  0.28700  Biso   1.000  C
  C57      1.0000 0.19010  0.05050  0.96180  Biso   1.000  C
  C58      1.0000 0.96180  0.19010  0.05050  Biso   1.000  C
  C59      1.0000 0.05050  0.96180  0.19010  Biso   1.000  C
  C60      1.0000 0.30990  0.94950  0.46180  Biso   1.000  C
  C61      1.0000 0.80990  0.55050  0.53820  Biso   1.000  C
  C62      1.0000 0.69010  0.44950  0.03820  Biso   1.000  C
  C63      1.0000 0.46180  0.30990  0.94950  Biso   1.000  C
  C64      1.0000 0.53820  0.80990  0.55050  Biso   1.000  C
  C65      1.0000 0.03820  0.69010  0.44950  Biso   1.000  C
  C66      1.0000 0.94950  0.46180  0.30990  Biso   1.000  C
  C67      1.0000 0.55050  0.53820  0.80990  Biso   1.000  C
  C68      1.0000 0.44950  0.03820  0.69010  Biso   1.000  C
  C69      1.0000 0.80990  0.94950  0.03820  Biso   1.000  C
  C70      1.0000 0.03820  0.80990  0.94950  Biso   1.000  C
  C71      1.0000 0.94950  0.03820  0.80990  Biso   1.000  C
  C72      1.0000 0.69010  0.05050  0.53820  Biso   1.000  C
  C73      1.0000 0.19010  0.44950  0.46180  Biso   1.000  C
  C74      1.0000 0.30990  0.55050  0.96180  Biso   1.000  C
  C75      1.0000 0.53820  0.69010  0.05050  Biso   1.000  C
  C76      1.0000 0.46180  0.19010  0.44950  Biso   1.000  C
  C77      1.0000 0.96180  0.30990  0.55050  Biso   1.000  C
  C78      1.0000 0.05050  0.53820  0.69010  Biso   1.000  C
  C79      1.0000 0.44950  0.46180  0.19010  Biso   1.000  C
  C80      1.0000 0.55050  0.96180  0.30990  Biso   1.000  C
  C81      1.0000 0.14680  0.02790  0.99700  Biso   1.000  C
  C82      1.0000 0.99700  0.14680  0.02790  Biso   1.000  C
  C83      1.0000 0.02790  0.99700  0.14680  Biso   1.000  C
  C84      1.0000 0.35320  0.97210  0.49700  Biso   1.000  C
  C85      1.0000 0.85320  0.52790  0.50300  Biso   1.000  C
  C86      1.0000 0.64680  0.47210  0.00300  Biso   1.000  C
  C87      1.0000 0.49700  0.35320  0.97210  Biso   1.000  C
  C88      1.0000 0.50300  0.85320  0.52790  Biso   1.000  C
  C89      1.0000 0.00300  0.64680  0.47210  Biso   1.000  C
  C90      1.0000 0.97210  0.49700  0.35320  Biso   1.000  C
  C91      1.0000 0.52790  0.50300  0.85320  Biso   1.000  C
  C92      1.0000 0.47210  0.00300  0.64680  Biso   1.000  C
  C93      1.0000 0.85320  0.97210  0.00300  Biso   1.000  C
  C94      1.0000 0.00300  0.85320  0.97210  Biso   1.000  C
  C95      1.0000 0.97210  0.00300  0.85320  Biso   1.000  C
  C96      1.0000 0.64680  0.02790  0.50300  Biso   1.000  C
  C97      1.0000 0.14680  0.47210  0.49700  Biso   1.000  C
  C98      1.0000 0.35320  0.52790  0.99700  Biso   1.000  C
  C99      1.0000 0.50300  0.64680  0.02790  Biso   1.000  C
  C100     1.0000 0.49700  0.14680  0.47210  Biso   1.000  C
  C101     1.0000 0.99700  0.35320  0.52790  Biso   1.000  C
  C102     1.0000 0.02790  0.50300  0.64680  Biso   1.000  C
  C103     1.0000 0.47210  0.49700  0.14680  Biso   1.000  C
  C104     1.0000 0.52790  0.99700  0.35320  Biso   1.000  C
  H25      1.0000 0.13050  0.05070  0.02650  Biso   1.000  H
  H26      1.0000 0.02650  0.13050  0.05070  Biso   1.000  H
  H27      1.0000 0.05070  0.02650  0.13050  Biso   1.000  H
  H28      1.0000 0.36950  0.94930  0.52650  Biso   1.000  H
  H29      1.0000 0.86950  0.55070  0.47350  Biso   1.000  H
  H30      1.0000 0.63050  0.44930  0.97350  Biso   1.000  H
  H31      1.0000 0.52650  0.36950  0.94930  Biso   1.000  H
  H32      1.0000 0.47350  0.86950  0.55070  Biso   1.000  H
  H33      1.0000 0.97350  0.63050  0.44930  Biso   1.000  H
  H34      1.0000 0.94930  0.52650  0.36950  Biso   1.000  H
  H35      1.0000 0.55070  0.47350  0.86950  Biso   1.000  H
  H36      1.0000 0.44930  0.97350  0.63050  Biso   1.000  H
  H37      1.0000 0.86950  0.94930  0.97350  Biso   1.000  H
  H38      1.0000 0.97350  0.86950  0.94930  Biso   1.000  H
  H39      1.0000 0.94930  0.97350  0.86950  Biso   1.000  H
  H40      1.0000 0.63050  0.05070  0.47350  Biso   1.000  H
  H41      1.0000 0.13050  0.44930  0.52650  Biso   1.000  H
  H42      1.0000 0.36950  0.55070  0.02650  Biso   1.000  H
  H43      1.0000 0.47350  0.63050  0.05070  Biso   1.000  H
  H44      1.0000 0.52650  0.13050  0.44930  Biso   1.000  H
  H45      1.0000 0.02650  0.36950  0.55070  Biso   1.000  H
  H46      1.0000 0.05070  0.47350  0.63050  Biso   1.000  H
  H47      1.0000 0.44930  0.52650  0.13050  Biso   1.000  H
  H48      1.0000 0.55070  0.02650  0.36950  Biso   1.000  H
  C105     1.0000 0.12750  0.97110  0.98830  Biso   1.000  C
  C106     1.0000 0.98830  0.12750  0.97110  Biso   1.000  C
  C107     1.0000 0.97110  0.98830  0.12750  Biso   1.000  C
  C108     1.0000 0.37250  0.02890  0.48830  Biso   1.000  C
  C109     1.0000 0.87250  0.47110  0.51170  Biso   1.000  C
  C110     1.0000 0.62750  0.52890  0.01170  Biso   1.000  C
  C111     1.0000 0.48830  0.37250  0.02890  Biso   1.000  C
  C112     1.0000 0.51170  0.87250  0.47110  Biso   1.000  C
  C113     1.0000 0.01170  0.62750  0.52890  Biso   1.000  C
  C114     1.0000 0.02890  0.48830  0.37250  Biso   1.000  C
  C115     1.0000 0.47110  0.51170  0.87250  Biso   1.000  C
  C116     1.0000 0.52890  0.01170  0.62750  Biso   1.000  C
  C117     1.0000 0.87250  0.02890  0.01170  Biso   1.000  C
  C118     1.0000 0.01170  0.87250  0.02890  Biso   1.000  C
  C119     1.0000 0.02890  0.01170  0.87250  Biso   1.000  C
  C120     1.0000 0.62750  0.97110  0.51170  Biso   1.000  C
  C121     1.0000 0.12750  0.52890  0.48830  Biso   1.000  C
  C122     1.0000 0.37250  0.47110  0.98830  Biso   1.000  C
  C123     1.0000 0.51170  0.62750  0.97110  Biso   1.000  C
  C124     1.0000 0.48830  0.12750  0.52890  Biso   1.000  C
  C125     1.0000 0.98830  0.37250  0.47110  Biso   1.000  C
  C126     1.0000 0.97110  0.51170  0.62750  Biso   1.000  C
  C127     1.0000 0.52890  0.48830  0.12750  Biso   1.000  C
  C128     1.0000 0.47110  0.98830  0.37250  Biso   1.000  C
  H49      1.0000 0.09930  0.95560  0.01330  Biso   1.000  H
  H50      1.0000 0.01330  0.09930  0.95560  Biso   1.000  H
  H51      1.0000 0.95560  0.01330  0.09930  Biso   1.000  H
  H52      1.0000 0.40070  0.04440  0.51330  Biso   1.000  H
  H53      1.0000 0.90070  0.45560  0.48670  Biso   1.000  H
  H54      1.0000 0.59930  0.54440  0.98670  Biso   1.000  H
  H55      1.0000 0.51330  0.40070  0.04440  Biso   1.000  H
  H56      1.0000 0.48670  0.90070  0.45560  Biso   1.000  H
  H57      1.0000 0.98670  0.59930  0.54440  Biso   1.000  H
  H58      1.0000 0.04440  0.51330  0.40070  Biso   1.000  H
  H59      1.0000 0.45560  0.48670  0.90070  Biso   1.000  H
  H60      1.0000 0.54440  0.98670  0.59930  Biso   1.000  H
  H61      1.0000 0.90070  0.04440  0.98670  Biso   1.000  H
  H62      1.0000 0.98670  0.90070  0.04440  Biso   1.000  H
  H63      1.0000 0.04440  0.98670  0.90070  Biso   1.000  H
  H64      1.0000 0.59930  0.95560  0.48670  Biso   1.000  H
  H65      1.0000 0.09930  0.54440  0.51330  Biso   1.000  H
  H66      1.0000 0.40070  0.45560  0.01330  Biso   1.000  H
  H67      1.0000 0.48670  0.59930  0.95560  Biso   1.000  H
  H68      1.0000 0.51330  0.09930  0.54440  Biso   1.000  H
  H69      1.0000 0.01330  0.40070  0.45560  Biso   1.000  H
  H70      1.0000 0.95560  0.48670  0.59930  Biso   1.000  H
  H71      1.0000 0.54440  0.51330  0.09930  Biso   1.000  H
  H72      1.0000 0.45560  0.01330  0.40070  Biso   1.000  H
  C129     1.0000 0.14870  0.93780  0.94460  Biso   1.000  C
  C130     1.0000 0.94460  0.14870  0.93780  Biso   1.000  C
  C131     1.0000 0.93780  0.94460  0.14870  Biso   1.000  C
  C132     1.0000 0.35130  0.06220  0.44460  Biso   1.000  C
  C133     1.0000 0.85130  0.43780  0.55540  Biso   1.000  C
  C134     1.0000 0.64870  0.56220  0.05540  Biso   1.000  C
  C135     1.0000 0.44460  0.35130  0.06220  Biso   1.000  C
  C136     1.0000 0.55540  0.85130  0.43780  Biso   1.000  C
  C137     1.0000 0.05540  0.64870  0.56220  Biso   1.000  C
  C138     1.0000 0.06220  0.44460  0.35130  Biso   1.000  C
  C139     1.0000 0.43780  0.55540  0.85130  Biso   1.000  C
  C140     1.0000 0.56220  0.05540  0.64870  Biso   1.000  C
  C141     1.0000 0.85130  0.06220  0.05540  Biso   1.000  C
  C142     1.0000 0.05540  0.85130  0.06220  Biso   1.000  C
  C143     1.0000 0.06220  0.05540  0.85130  Biso   1.000  C
  C144     1.0000 0.64870  0.93780  0.55540  Biso   1.000  C
  C145     1.0000 0.14870  0.56220  0.44460  Biso   1.000  C
  C146     1.0000 0.35130  0.43780  0.94460  Biso   1.000  C
  C147     1.0000 0.55540  0.64870  0.93780  Biso   1.000  C
  C148     1.0000 0.44460  0.14870  0.56220  Biso   1.000  C
  C149     1.0000 0.94460  0.35130  0.43780  Biso   1.000  C
  C150     1.0000 0.93780  0.55540  0.64870  Biso   1.000  C
  C151     1.0000 0.56220  0.44460  0.14870  Biso   1.000  C
  C152     1.0000 0.43780  0.94460  0.35130  Biso   1.000  C
  H73      1.0000 0.13500  0.89980  0.93900  Biso   1.000  H
  H74      1.0000 0.93900  0.13500  0.89980  Biso   1.000  H
  H75      1.0000 0.89980  0.93900  0.13500  Biso   1.000  H
  H76      1.0000 0.36500  0.10020  0.43900  Biso   1.000  H
  H77      1.0000 0.86500  0.39980  0.56100  Biso   1.000  H
  H78      1.0000 0.63500  0.60020  0.06100  Biso   1.000  H
  H79      1.0000 0.43900  0.36500  0.10020  Biso   1.000  H
  H80      1.0000 0.56100  0.86500  0.39980  Biso   1.000  H
  H81      1.0000 0.06100  0.63500  0.60020  Biso   1.000  H
  H82      1.0000 0.10020  0.43900  0.36500  Biso   1.000  H
  H83      1.0000 0.39980  0.56100  0.86500  Biso   1.000  H
  H84      1.0000 0.60020  0.06100  0.63500  Biso   1.000  H
  H85      1.0000 0.86500  0.10020  0.06100  Biso   1.000  H
  H86      1.0000 0.06100  0.86500  0.10020  Biso   1.000  H
  H87      1.0000 0.10020  0.06100  0.86500  Biso   1.000  H
  H88      1.0000 0.63500  0.89980  0.56100  Biso   1.000  H
  H89      1.0000 0.13500  0.60020  0.43900  Biso   1.000  H
  H90      1.0000 0.36500  0.39980  0.93900  Biso   1.000  H
  H91      1.0000 0.56100  0.63500  0.89980  Biso   1.000  H
  H92      1.0000 0.43900  0.13500  0.60020  Biso   1.000  H
  H93      1.0000 0.93900  0.36500  0.39980  Biso   1.000  H
  H94      1.0000 0.89980  0.56100  0.63500  Biso   1.000  H
  H95      1.0000 0.60020  0.43900  0.13500  Biso   1.000  H
  H96      1.0000 0.39980  0.93900  0.36500  Biso   1.000  H
  C153     1.0000 0.19090  0.96070  0.90860  Biso   1.000  C
  C154     1.0000 0.90860  0.19090  0.96070  Biso   1.000  C
  C155     1.0000 0.96070  0.90860  0.19090  Biso   1.000  C
  C156     1.0000 0.30910  0.03930  0.40860  Biso   1.000  C
  C157     1.0000 0.80910  0.46070  0.59140  Biso   1.000  C
  C158     1.0000 0.69090  0.53930  0.09140  Biso   1.000  C
  C159     1.0000 0.40860  0.30910  0.03930  Biso   1.000  C
  C160     1.0000 0.59140  0.80910  0.46070  Biso   1.000  C
  C161     1.0000 0.09140  0.69090  0.53930  Biso   1.000  C
  C162     1.0000 0.03930  0.40860  0.30910  Biso   1.000  C
  C163     1.0000 0.46070  0.59140  0.80910  Biso   1.000  C
  C164     1.0000 0.53930  0.09140  0.69090  Biso   1.000  C
  C165     1.0000 0.80910  0.03930  0.09140  Biso   1.000  C
  C166     1.0000 0.09140  0.80910  0.03930  Biso   1.000  C
  C167     1.0000 0.03930  0.09140  0.80910  Biso   1.000  C
  C168     1.0000 0.69090  0.96070  0.59140  Biso   1.000  C
  C169     1.0000 0.19090  0.53930  0.40860  Biso   1.000  C
  C170     1.0000 0.30910  0.46070  0.90860  Biso   1.000  C
  C171     1.0000 0.59140  0.69090  0.96070  Biso   1.000  C
  C172     1.0000 0.40860  0.19090  0.53930  Biso   1.000  C
  C173     1.0000 0.90860  0.30910  0.46070  Biso   1.000  C
  C174     1.0000 0.96070  0.59140  0.69090  Biso   1.000  C
  C175     1.0000 0.53930  0.40860  0.19090  Biso   1.000  C
  C176     1.0000 0.46070  0.90860  0.30910  Biso   1.000  C
  H97      1.0000 0.20490  0.93800  0.87770  Biso   1.000  H
  H98      1.0000 0.87770  0.20490  0.93800  Biso   1.000  H
  H99      1.0000 0.93800  0.87770  0.20490  Biso   1.000  H
  H100     1.0000 0.29510  0.06200  0.37770  Biso   1.000  H
  H101     1.0000 0.79510  0.43800  0.62230  Biso   1.000  H
  H102     1.0000 0.70490  0.56200  0.12230  Biso   1.000  H
  H103     1.0000 0.37770  0.29510  0.06200  Biso   1.000  H
  H104     1.0000 0.62230  0.79510  0.43800  Biso   1.000  H
  H105     1.0000 0.12230  0.70490  0.56200  Biso   1.000  H
  H106     1.0000 0.06200  0.37770  0.29510  Biso   1.000  H
  H107     1.0000 0.43800  0.62230  0.79510  Biso   1.000  H
  H108     1.0000 0.56200  0.12230  0.70490  Biso   1.000  H
  H109     1.0000 0.79510  0.06200  0.12230  Biso   1.000  H
  H110     1.0000 0.12230  0.79510  0.06200  Biso   1.000  H
  H111     1.0000 0.06200  0.12230  0.79510  Biso   1.000  H
  H112     1.0000 0.70490  0.93800  0.62230  Biso   1.000  H
  H113     1.0000 0.20490  0.56200  0.37770  Biso   1.000  H
  H114     1.0000 0.29510  0.43800  0.87770  Biso   1.000  H
  H115     1.0000 0.62230  0.70490  0.93800  Biso   1.000  H
  H116     1.0000 0.37770  0.20490  0.56200  Biso   1.000  H
  H117     1.0000 0.87770  0.29510  0.43800  Biso   1.000  H
  H118     1.0000 0.93800  0.62230  0.70490  Biso   1.000  H
  H119     1.0000 0.56200  0.37770  0.20490  Biso   1.000  H
  H120     1.0000 0.43800  0.87770  0.29510  Biso   1.000  H
  Cu25     1.0000 0.21730  0.15836  0.05151  Biso   1.000  Cu
  Cu26     1.0000 0.05151  0.21730  0.15836  Biso   1.000  Cu
  Cu27     1.0000 0.15836  0.05151  0.21730  Biso   1.000  Cu
  Cu28     1.0000 0.28270  0.84164  0.55151  Biso   1.000  Cu
  Cu29     1.0000 0.78270  0.65836  0.44849  Biso   1.000  Cu
  Cu30     1.0000 0.71730  0.34164  0.94849  Biso   1.000  Cu
  Cu31     1.0000 0.55151  0.28270  0.84164  Biso   1.000  Cu
  Cu32     1.0000 0.44849  0.78270  0.65836  Biso   1.000  Cu
  Cu33     1.0000 0.94849  0.71730  0.34164  Biso   1.000  Cu
  Cu34     1.0000 0.84164  0.55151  0.28270  Biso   1.000  Cu
  Cu35     1.0000 0.65836  0.44849  0.78270  Biso   1.000  Cu
  Cu36     1.0000 0.34164  0.94849  0.71730  Biso   1.000  Cu
  Cu37     1.0000 0.78270  0.84164  0.94849  Biso   1.000  Cu
  Cu38     1.0000 0.94849  0.78270  0.84164  Biso   1.000  Cu
  Cu39     1.0000 0.84164  0.94849  0.78270  Biso   1.000  Cu
  Cu40     1.0000 0.71730  0.15836  0.44849  Biso   1.000  Cu
  Cu41     1.0000 0.21730  0.34164  0.55151  Biso   1.000  Cu
  Cu42     1.0000 0.28270  0.65836  0.05151  Biso   1.000  Cu
  Cu43     1.0000 0.44849  0.71730  0.15836  Biso   1.000  Cu
  Cu44     1.0000 0.55151  0.21730  0.34164  Biso   1.000  Cu
  Cu45     1.0000 0.05151  0.28270  0.65836  Biso   1.000  Cu
  Cu46     1.0000 0.15836  0.44849  0.71730  Biso   1.000  Cu
  Cu47     1.0000 0.34164  0.55151  0.21730  Biso   1.000  Cu
  Cu48     1.0000 0.65836  0.05151  0.28270  Biso   1.000  Cu
  Cl1      1.0000 0.31220  0.13390  0.05890  Biso   1.000  Cl
  Cl2      1.0000 0.05890  0.31220  0.13390  Biso   1.000  Cl
  Cl3      1.0000 0.13390  0.05890  0.31220  Biso   1.000  Cl
  Cl4      1.0000 0.18780  0.86610  0.55890  Biso   1.000  Cl
  Cl5      1.0000 0.68780  0.63390  0.44110  Biso   1.000  Cl
  Cl6      1.0000 0.81220  0.36610  0.94110  Biso   1.000  Cl
  Cl7      1.0000 0.55890  0.18780  0.86610  Biso   1.000  Cl
  Cl8      1.0000 0.44110  0.68780  0.63390  Biso   1.000  Cl
  Cl9      1.0000 0.94110  0.81220  0.36610  Biso   1.000  Cl
  Cl10     1.0000 0.86610  0.55890  0.18780  Biso   1.000  Cl
  Cl11     1.0000 0.63390  0.44110  0.68780  Biso   1.000  Cl
  Cl12     1.0000 0.36610  0.94110  0.81220  Biso   1.000  Cl
  Cl13     1.0000 0.68780  0.86610  0.94110  Biso   1.000  Cl
  Cl14     1.0000 0.94110  0.68780  0.86610  Biso   1.000  Cl
  Cl15     1.0000 0.86610  0.94110  0.68780  Biso   1.000  Cl
  Cl16     1.0000 0.81220  0.13390  0.44110  Biso   1.000  Cl
  Cl17     1.0000 0.31220  0.36610  0.55890  Biso   1.000  Cl
  Cl18     1.0000 0.18780  0.63390  0.05890  Biso   1.000  Cl
  Cl19     1.0000 0.44110  0.81220  0.13390  Biso   1.000  Cl
  Cl20     1.0000 0.55890  0.31220  0.36610  Biso   1.000  Cl
  Cl21     1.0000 0.05890  0.18780  0.63390  Biso   1.000  Cl
  Cl22     1.0000 0.13390  0.44110  0.81220  Biso   1.000  Cl
  Cl23     1.0000 0.36610  0.55890  0.31220  Biso   1.000  Cl
  Cl24     1.0000 0.63390  0.05890  0.18780  Biso   1.000  Cl
  O25      1.0000 0.31130  0.14120  0.04730  Biso   1.000  O
  O26      1.0000 0.04730  0.31130  0.14120  Biso   1.000  O
  O27      1.0000 0.14120  0.04730  0.31130  Biso   1.000  O
  O28      1.0000 0.18870  0.85880  0.54730  Biso   1.000  O
  O29      1.0000 0.68870  0.64120  0.45270  Biso   1.000  O
  O30      1.0000 0.81130  0.35880  0.95270  Biso   1.000  O
  O31      1.0000 0.54730  0.18870  0.85880  Biso   1.000  O
  O32      1.0000 0.45270  0.68870  0.64120  Biso   1.000  O
  O33      1.0000 0.95270  0.81130  0.35880  Biso   1.000  O
  O34      1.0000 0.85880  0.54730  0.18870  Biso   1.000  O
  O35      1.0000 0.64120  0.45270  0.68870  Biso   1.000  O
  O36      1.0000 0.35880  0.95270  0.81130  Biso   1.000  O
  O37      1.0000 0.68870  0.85880  0.95270  Biso   1.000  O
  O38      1.0000 0.95270  0.68870  0.85880  Biso   1.000  O
  O39      1.0000 0.85880  0.95270  0.68870  Biso   1.000  O
  O40      1.0000 0.81130  0.14120  0.45270  Biso   1.000  O
  O41      1.0000 0.31130  0.35880  0.54730  Biso   1.000  O
  O42      1.0000 0.18870  0.64120  0.04730  Biso   1.000  O
  O43      1.0000 0.45270  0.81130  0.14120  Biso   1.000  O
  O44      1.0000 0.54730  0.31130  0.35880  Biso   1.000  O
  O45      1.0000 0.04730  0.18870  0.64120  Biso   1.000  O
  O46      1.0000 0.14120  0.45270  0.81130  Biso   1.000  O
  O47      1.0000 0.35880  0.54730  0.31130  Biso   1.000  O
  O48      1.0000 0.64120  0.04730  0.18870  Biso   1.000  O
  O49      1.0000 0.29140  0.01310  0.73980  Biso   1.000  O
  O50      1.0000 0.73980  0.29140  0.01310  Biso   1.000  O
  O51      1.0000 0.01310  0.73980  0.29140  Biso   1.000  O
  O52      1.0000 0.20860  0.98690  0.23980  Biso   1.000  O
  O53      1.0000 0.70860  0.51310  0.76020  Biso   1.000  O
  O54      1.0000 0.79140  0.48690  0.26020  Biso   1.000  O
  O55      1.0000 0.23980  0.20860  0.98690  Biso   1.000  O
  O56      1.0000 0.76020  0.70860  0.51310  Biso   1.000  O
  O57      1.0000 0.26020  0.79140  0.48690  Biso   1.000  O
  O58      1.0000 0.98690  0.23980  0.20860  Biso   1.000  O
  O59      1.0000 0.51310  0.76020  0.70860  Biso   1.000  O
  O60      1.0000 0.48690  0.26020  0.79140  Biso   1.000  O
  O61      1.0000 0.70860  0.98690  0.26020  Biso   1.000  O
  O62      1.0000 0.26020  0.70860  0.98690  Biso   1.000  O
  O63      1.0000 0.98690  0.26020  0.70860  Biso   1.000  O
  O64      1.0000 0.79140  0.01310  0.76020  Biso   1.000  O
  O65      1.0000 0.29140  0.48690  0.23980  Biso   1.000  O
  O66      1.0000 0.20860  0.51310  0.73980  Biso   1.000  O
  O67      1.0000 0.76020  0.79140  0.01310  Biso   1.000  O
  O68      1.0000 0.23980  0.29140  0.48690  Biso   1.000  O
  O69      1.0000 0.73980  0.20860  0.51310  Biso   1.000  O
  O70      1.0000 0.01310  0.76020  0.79140  Biso   1.000  O
  O71      1.0000 0.48690  0.23980  0.29140  Biso   1.000  O
  O72      1.0000 0.51310  0.73980  0.20860  Biso   1.000  O
  N49      1.0000 0.38830  0.88670  0.68330  Biso   1.000  N
  N50      1.0000 0.68330  0.38830  0.88670  Biso   1.000  N
  N51      1.0000 0.88670  0.68330  0.38830  Biso   1.000  N
  N52      1.0000 0.11170  0.11330  0.18330  Biso   1.000  N
  N53      1.0000 0.61170  0.38670  0.81670  Biso   1.000  N
  N54      1.0000 0.88830  0.61330  0.31670  Biso   1.000  N
  N55      1.0000 0.18330  0.11170  0.11330  Biso   1.000  N
  N56      1.0000 0.81670  0.61170  0.38670  Biso   1.000  N
  N57      1.0000 0.31670  0.88830  0.61330  Biso   1.000  N
  N58      1.0000 0.11330  0.18330  0.11170  Biso   1.000  N
  N59      1.0000 0.38670  0.81670  0.61170  Biso   1.000  N
  N60      1.0000 0.61330  0.31670  0.88830  Biso   1.000  N
  N61      1.0000 0.61170  0.11330  0.31670  Biso   1.000  N
  N62      1.0000 0.31670  0.61170  0.11330  Biso   1.000  N
  N63      1.0000 0.11330  0.31670  0.61170  Biso   1.000  N
  N64      1.0000 0.88830  0.88670  0.81670  Biso   1.000  N
  N65      1.0000 0.38830  0.61330  0.18330  Biso   1.000  N
  N66      1.0000 0.11170  0.38670  0.68330  Biso   1.000  N
  N67      1.0000 0.81670  0.88830  0.88670  Biso   1.000  N
  N68      1.0000 0.18330  0.38830  0.61330  Biso   1.000  N
  N69      1.0000 0.68330  0.11170  0.38670  Biso   1.000  N
  N70      1.0000 0.88670  0.81670  0.88830  Biso   1.000  N
  N71      1.0000 0.61330  0.18330  0.38830  Biso   1.000  N
  N72      1.0000 0.38670  0.68330  0.11170  Biso   1.000  N
  N73      1.0000 0.29770  0.93370  0.64710  Biso   1.000  N
  N74      1.0000 0.64710  0.29770  0.93370  Biso   1.000  N
  N75      1.0000 0.93370  0.64710  0.29770  Biso   1.000  N
  N76      1.0000 0.20230  0.06630  0.14710  Biso   1.000  N
  N77      1.0000 0.70230  0.43370  0.85290  Biso   1.000  N
  N78      1.0000 0.79770  0.56630  0.35290  Biso   1.000  N
  N79      1.0000 0.14710  0.20230  0.06630  Biso   1.000  N
  N80      1.0000 0.85290  0.70230  0.43370  Biso   1.000  N
  N81      1.0000 0.35290  0.79770  0.56630  Biso   1.000  N
  N82      1.0000 0.06630  0.14710  0.20230  Biso   1.000  N
  N83      1.0000 0.43370  0.85290  0.70230  Biso   1.000  N
  N84      1.0000 0.56630  0.35290  0.79770  Biso   1.000  N
  N85      1.0000 0.70230  0.06630  0.35290  Biso   1.000  N
  N86      1.0000 0.35290  0.70230  0.06630  Biso   1.000  N
  N87      1.0000 0.06630  0.35290  0.70230  Biso   1.000  N
  N88      1.0000 0.79770  0.93370  0.85290  Biso   1.000  N
  N89      1.0000 0.29770  0.56630  0.14710  Biso   1.000  N
  N90      1.0000 0.20230  0.43370  0.64710  Biso   1.000  N
  N91      1.0000 0.85290  0.79770  0.93370  Biso   1.000  N
  N92      1.0000 0.14710  0.29770  0.56630  Biso   1.000  N
  N93      1.0000 0.64710  0.20230  0.43370  Biso   1.000  N
  N94      1.0000 0.93370  0.85290  0.79770  Biso   1.000  N
  N95      1.0000 0.56630  0.14710  0.29770  Biso   1.000  N
  N96      1.0000 0.43370  0.64710  0.20230  Biso   1.000  N
  C177     1.0000 0.36340  0.86340  0.63660  Biso   1.000  C
  C178     1.0000 0.63660  0.36340  0.86340  Biso   1.000  C
  C179     1.0000 0.86340  0.63660  0.36340  Biso   1.000  C
  C180     1.0000 0.13660  0.13660  0.13660  Biso   1.000  C
  C181     1.0000 0.63660  0.13660  0.36340  Biso   1.000  C
  C182     1.0000 0.36340  0.63660  0.13660  Biso   1.000  C
  C183     1.0000 0.13660  0.36340  0.63660  Biso   1.000  C
  C184     1.0000 0.86340  0.86340  0.86340  Biso   1.000  C
  C185     1.0000 0.25420  0.96360  0.62830  Biso   1.000  C
  C186     1.0000 0.62830  0.25420  0.96360  Biso   1.000  C
  C187     1.0000 0.96360  0.62830  0.25420  Biso   1.000  C
  C188     1.0000 0.24580  0.03640  0.12830  Biso   1.000  C
  C189     1.0000 0.74580  0.46360  0.87170  Biso   1.000  C
  C190     1.0000 0.75420  0.53640  0.37170  Biso   1.000  C
  C191     1.0000 0.12830  0.24580  0.03640  Biso   1.000  C
  C192     1.0000 0.87170  0.74580  0.46360  Biso   1.000  C
  C193     1.0000 0.37170  0.75420  0.53640  Biso   1.000  C
  C194     1.0000 0.03640  0.12830  0.24580  Biso   1.000  C
  C195     1.0000 0.46360  0.87170  0.74580  Biso   1.000  C
  C196     1.0000 0.53640  0.37170  0.75420  Biso   1.000  C
  C197     1.0000 0.74580  0.03640  0.37170  Biso   1.000  C
  C198     1.0000 0.37170  0.74580  0.03640  Biso   1.000  C
  C199     1.0000 0.03640  0.37170  0.74580  Biso   1.000  C
  C200     1.0000 0.75420  0.96360  0.87170  Biso   1.000  C
  C201     1.0000 0.25420  0.53640  0.12830  Biso   1.000  C
  C202     1.0000 0.24580  0.46360  0.62830  Biso   1.000  C
  C203     1.0000 0.87170  0.75420  0.96360  Biso   1.000  C
  C204     1.0000 0.12830  0.25420  0.53640  Biso   1.000  C
  C205     1.0000 0.62830  0.24580  0.46360  Biso   1.000  C
  C206     1.0000 0.96360  0.87170  0.75420  Biso   1.000  C
  C207     1.0000 0.53640  0.12830  0.25420  Biso   1.000  C
  C208     1.0000 0.46360  0.62830  0.24580  Biso   1.000  C
  H121     1.0000 0.40870  0.73970  0.54560  Biso   1.000  H
  H122     1.0000 0.54560  0.40870  0.73970  Biso   1.000  H
  H123     1.0000 0.73970  0.54560  0.40870  Biso   1.000  H
  H124     1.0000 0.09130  0.26030  0.04560  Biso   1.000  H
  H125     1.0000 0.59130  0.23970  0.95440  Biso   1.000  H
  H126     1.0000 0.90870  0.76030  0.45440  Biso   1.000  H
  H127     1.0000 0.04560  0.09130  0.26030  Biso   1.000  H
  H128     1.0000 0.95440  0.59130  0.23970  Biso   1.000  H
  H129     1.0000 0.45440  0.90870  0.76030  Biso   1.000  H
  H130     1.0000 0.26030  0.04560  0.09130  Biso   1.000  H
  H131     1.0000 0.23970  0.95440  0.59130  Biso   1.000  H
  H132     1.0000 0.76030  0.45440  0.90870  Biso   1.000  H
  H133     1.0000 0.59130  0.26030  0.45440  Biso   1.000  H
  H134     1.0000 0.45440  0.59130  0.26030  Biso   1.000  H
  H135     1.0000 0.26030  0.45440  0.59130  Biso   1.000  H
  H136     1.0000 0.90870  0.73970  0.95440  Biso   1.000  H
  H137     1.0000 0.40870  0.76030  0.04560  Biso   1.000  H
  H138     1.0000 0.09130  0.23970  0.54560  Biso   1.000  H
  H139     1.0000 0.95440  0.90870  0.73970  Biso   1.000  H
  H140     1.0000 0.04560  0.40870  0.76030  Biso   1.000  H
  H141     1.0000 0.54560  0.09130  0.23970  Biso   1.000  H
  H142     1.0000 0.73970  0.95440  0.90870  Biso   1.000  H
  H143     1.0000 0.76030  0.04560  0.40870  Biso   1.000  H
  H144     1.0000 0.23970  0.54560  0.09130  Biso   1.000  H
  C209     1.0000 0.22660  0.00920  0.65920  Biso   1.000  C
  C210     1.0000 0.65920  0.22660  0.00920  Biso   1.000  C
  C211     1.0000 0.00920  0.65920  0.22660  Biso   1.000  C
  C212     1.0000 0.27340  0.99080  0.15920  Biso   1.000  C
  C213     1.0000 0.77340  0.50920  0.84080  Biso   1.000  C
  C214     1.0000 0.72660  0.49080  0.34080  Biso   1.000  C
  C215     1.0000 0.15920  0.27340  0.99080  Biso   1.000  C
  C216     1.0000 0.84080  0.77340  0.50920  Biso   1.000  C
  C217     1.0000 0.34080  0.72660  0.49080  Biso   1.000  C
  C218     1.0000 0.99080  0.15920  0.27340  Biso   1.000  C
  C219     1.0000 0.50920  0.84080  0.77340  Biso   1.000  C
  C220     1.0000 0.49080  0.34080  0.72660  Biso   1.000  C
  C221     1.0000 0.77340  0.99080  0.34080  Biso   1.000  C
  C222     1.0000 0.34080  0.77340  0.99080  Biso   1.000  C
  C223     1.0000 0.99080  0.34080  0.77340  Biso   1.000  C
  C224     1.0000 0.72660  0.00920  0.84080  Biso   1.000  C
  C225     1.0000 0.22660  0.49080  0.15920  Biso   1.000  C
  C226     1.0000 0.27340  0.50920  0.65920  Biso   1.000  C
  C227     1.0000 0.84080  0.72660  0.00920  Biso   1.000  C
  C228     1.0000 0.15920  0.22660  0.49080  Biso   1.000  C
  C229     1.0000 0.65920  0.27340  0.50920  Biso   1.000  C
  C230     1.0000 0.00920  0.84080  0.72660  Biso   1.000  C
  C231     1.0000 0.49080  0.15920  0.22660  Biso   1.000  C
  C232     1.0000 0.50920  0.65920  0.27340  Biso   1.000  C
  C233     1.0000 0.24560  0.03240  0.71260  Biso   1.000  C
  C234     1.0000 0.71260  0.24560  0.03240  Biso   1.000  C
  C235     1.0000 0.03240  0.71260  0.24560  Biso   1.000  C
  C236     1.0000 0.25440  0.96760  0.21260  Biso   1.000  C
  C237     1.0000 0.75440  0.53240  0.78740  Biso   1.000  C
  C238     1.0000 0.74560  0.46760  0.28740  Biso   1.000  C
  C239     1.0000 0.21260  0.25440  0.96760  Biso   1.000  C
  C240     1.0000 0.78740  0.75440  0.53240  Biso   1.000  C
  C241     1.0000 0.28740  0.74560  0.46760  Biso   1.000  C
  C242     1.0000 0.96760  0.21260  0.25440  Biso   1.000  C
  C243     1.0000 0.53240  0.78740  0.75440  Biso   1.000  C
  C244     1.0000 0.46760  0.28740  0.74560  Biso   1.000  C
  C245     1.0000 0.75440  0.96760  0.28740  Biso   1.000  C
  C246     1.0000 0.28740  0.75440  0.96760  Biso   1.000  C
  C247     1.0000 0.96760  0.28740  0.75440  Biso   1.000  C
  C248     1.0000 0.74560  0.03240  0.78740  Biso   1.000  C
  C249     1.0000 0.24560  0.46760  0.21260  Biso   1.000  C
  C250     1.0000 0.25440  0.53240  0.71260  Biso   1.000  C
  C251     1.0000 0.78740  0.74560  0.03240  Biso   1.000  C
  C252     1.0000 0.21260  0.24560  0.46760  Biso   1.000  C
  C253     1.0000 0.71260  0.25440  0.53240  Biso   1.000  C
  C254     1.0000 0.03240  0.78740  0.74560  Biso   1.000  C
  C255     1.0000 0.46760  0.21260  0.24560  Biso   1.000  C
  C256     1.0000 0.53240  0.71260  0.25440  Biso   1.000  C
  C257     1.0000 0.26330  0.71410  0.42170  Biso   1.000  C
  C258     1.0000 0.42170  0.26330  0.71410  Biso   1.000  C
  C259     1.0000 0.71410  0.42170  0.26330  Biso   1.000  C
  C260     1.0000 0.23670  0.28590  0.92170  Biso   1.000  C
  C261     1.0000 0.73670  0.21410  0.07830  Biso   1.000  C
  C262     1.0000 0.76330  0.78590  0.57830  Biso   1.000  C
  C263     1.0000 0.92170  0.23670  0.28590  Biso   1.000  C
  C264     1.0000 0.07830  0.73670  0.21410  Biso   1.000  C
  C265     1.0000 0.57830  0.76330  0.78590  Biso   1.000  C
  C266     1.0000 0.28590  0.92170  0.23670  Biso   1.000  C
  C267     1.0000 0.21410  0.07830  0.73670  Biso   1.000  C
  C268     1.0000 0.78590  0.57830  0.76330  Biso   1.000  C
  C269     1.0000 0.73670  0.28590  0.57830  Biso   1.000  C
  C270     1.0000 0.57830  0.73670  0.28590  Biso   1.000  C
  C271     1.0000 0.28590  0.57830  0.73670  Biso   1.000  C
  C272     1.0000 0.76330  0.71410  0.07830  Biso   1.000  C
  C273     1.0000 0.26330  0.78590  0.92170  Biso   1.000  C
  C274     1.0000 0.23670  0.21410  0.42170  Biso   1.000  C
  C275     1.0000 0.07830  0.76330  0.71410  Biso   1.000  C
  C276     1.0000 0.92170  0.26330  0.78590  Biso   1.000  C
  C277     1.0000 0.42170  0.23670  0.21410  Biso   1.000  C
  C278     1.0000 0.71410  0.07830  0.76330  Biso   1.000  C
  C279     1.0000 0.78590  0.92170  0.26330  Biso   1.000  C
  C280     1.0000 0.21410  0.42170  0.23670  Biso   1.000  C
  H145     1.0000 0.22870  0.72710  0.40460  Biso   1.000  H
  H146     1.0000 0.40460  0.22870  0.72710  Biso   1.000  H
  H147     1.0000 0.72710  0.40460  0.22870  Biso   1.000  H
  H148     1.0000 0.27130  0.27290  0.90460  Biso   1.000  H
  H149     1.0000 0.77130  0.22710  0.09540  Biso   1.000  H
  H150     1.0000 0.72870  0.77290  0.59540  Biso   1.000  H
  H151     1.0000 0.90460  0.27130  0.27290  Biso   1.000  H
  H152     1.0000 0.09540  0.77130  0.22710  Biso   1.000  H
  H153     1.0000 0.59540  0.72870  0.77290  Biso   1.000  H
  H154     1.0000 0.27290  0.90460  0.27130  Biso   1.000  H
  H155     1.0000 0.22710  0.09540  0.77130  Biso   1.000  H
  H156     1.0000 0.77290  0.59540  0.72870  Biso   1.000  H
  H157     1.0000 0.77130  0.27290  0.59540  Biso   1.000  H
  H158     1.0000 0.59540  0.77130  0.27290  Biso   1.000  H
  H159     1.0000 0.27290  0.59540  0.77130  Biso   1.000  H
  H160     1.0000 0.72870  0.72710  0.09540  Biso   1.000  H
  H161     1.0000 0.22870  0.77290  0.90460  Biso   1.000  H
  H162     1.0000 0.27130  0.22710  0.40460  Biso   1.000  H
  H163     1.0000 0.09540  0.72870  0.72710  Biso   1.000  H
  H164     1.0000 0.90460  0.22870  0.77290  Biso   1.000  H
  H165     1.0000 0.40460  0.27130  0.22710  Biso   1.000  H
  H166     1.0000 0.72710  0.09540  0.72870  Biso   1.000  H
  H167     1.0000 0.77290  0.90460  0.22870  Biso   1.000  H
  H168     1.0000 0.22710  0.40460  0.27130  Biso   1.000  H
  C281     1.0000 0.28890  0.66500  0.40140  Biso   1.000  C
  C282     1.0000 0.40140  0.28890  0.66500  Biso   1.000  C
  C283     1.0000 0.66500  0.40140  0.28890  Biso   1.000  C
  C284     1.0000 0.21110  0.33500  0.90140  Biso   1.000  C
  C285     1.0000 0.71110  0.16500  0.09860  Biso   1.000  C
  C286     1.0000 0.78890  0.83500  0.59860  Biso   1.000  C
  C287     1.0000 0.90140  0.21110  0.33500  Biso   1.000  C
  C288     1.0000 0.09860  0.71110  0.16500  Biso   1.000  C
  C289     1.0000 0.59860  0.78890  0.83500  Biso   1.000  C
  C290     1.0000 0.33500  0.90140  0.21110  Biso   1.000  C
  C291     1.0000 0.16500  0.09860  0.71110  Biso   1.000  C
  C292     1.0000 0.83500  0.59860  0.78890  Biso   1.000  C
  C293     1.0000 0.71110  0.33500  0.59860  Biso   1.000  C
  C294     1.0000 0.59860  0.71110  0.33500  Biso   1.000  C
  C295     1.0000 0.33500  0.59860  0.71110  Biso   1.000  C
  C296     1.0000 0.78890  0.66500  0.09860  Biso   1.000  C
  C297     1.0000 0.28890  0.83500  0.90140  Biso   1.000  C
  C298     1.0000 0.21110  0.16500  0.40140  Biso   1.000  C
  C299     1.0000 0.09860  0.78890  0.66500  Biso   1.000  C
  C300     1.0000 0.90140  0.28890  0.83500  Biso   1.000  C
  C301     1.0000 0.40140  0.21110  0.16500  Biso   1.000  C
  C302     1.0000 0.66500  0.09860  0.78890  Biso   1.000  C
  C303     1.0000 0.83500  0.90140  0.28890  Biso   1.000  C
  C304     1.0000 0.16500  0.40140  0.21110  Biso   1.000  C
  H169     1.0000 0.27040  0.64320  0.37240  Biso   1.000  H
  H170     1.0000 0.37240  0.27040  0.64320  Biso   1.000  H
  H171     1.0000 0.64320  0.37240  0.27040  Biso   1.000  H
  H172     1.0000 0.22960  0.35680  0.87240  Biso   1.000  H
  H173     1.0000 0.72960  0.14320  0.12760  Biso   1.000  H
  H174     1.0000 0.77040  0.85680  0.62760  Biso   1.000  H
  H175     1.0000 0.87240  0.22960  0.35680  Biso   1.000  H
  H176     1.0000 0.12760  0.72960  0.14320  Biso   1.000  H
  H177     1.0000 0.62760  0.77040  0.85680  Biso   1.000  H
  H178     1.0000 0.35680  0.87240  0.22960  Biso   1.000  H
  H179     1.0000 0.14320  0.12760  0.72960  Biso   1.000  H
  H180     1.0000 0.85680  0.62760  0.77040  Biso   1.000  H
  H181     1.0000 0.72960  0.35680  0.62760  Biso   1.000  H
  H182     1.0000 0.62760  0.72960  0.35680  Biso   1.000  H
  H183     1.0000 0.35680  0.62760  0.72960  Biso   1.000  H
  H184     1.0000 0.77040  0.64320  0.12760  Biso   1.000  H
  H185     1.0000 0.27040  0.85680  0.87240  Biso   1.000  H
  H186     1.0000 0.22960  0.14320  0.37240  Biso   1.000  H
  H187     1.0000 0.12760  0.77040  0.64320  Biso   1.000  H
  H188     1.0000 0.87240  0.27040  0.85680  Biso   1.000  H
  H189     1.0000 0.37240  0.22960  0.14320  Biso   1.000  H
  H190     1.0000 0.64320  0.12760  0.77040  Biso   1.000  H
  H191     1.0000 0.85680  0.87240  0.27040  Biso   1.000  H
  H192     1.0000 0.14320  0.37240  0.22960  Biso   1.000  H
  C305     1.0000 0.34300  0.64660  0.42350  Biso   1.000  C
  C306     1.0000 0.42350  0.34300  0.64660  Biso   1.000  C
  C307     1.0000 0.64660  0.42350  0.34300  Biso   1.000  C
  C308     1.0000 0.15700  0.35340  0.92350  Biso   1.000  C
  C309     1.0000 0.65700  0.14660  0.07650  Biso   1.000  C
  C310     1.0000 0.84300  0.85340  0.57650  Biso   1.000  C
  C311     1.0000 0.92350  0.15700  0.35340  Biso   1.000  C
  C312     1.0000 0.07650  0.65700  0.14660  Biso   1.000  C
  C313     1.0000 0.57650  0.84300  0.85340  Biso   1.000  C
  C314     1.0000 0.35340  0.92350  0.15700  Biso   1.000  C
  C315     1.0000 0.14660  0.07650  0.65700  Biso   1.000  C
  C316     1.0000 0.85340  0.57650  0.84300  Biso   1.000  C
  C317     1.0000 0.65700  0.35340  0.57650  Biso   1.000  C
  C318     1.0000 0.57650  0.65700  0.35340  Biso   1.000  C
  C319     1.0000 0.35340  0.57650  0.65700  Biso   1.000  C
  C320     1.0000 0.84300  0.64660  0.07650  Biso   1.000  C
  C321     1.0000 0.34300  0.85340  0.92350  Biso   1.000  C
  C322     1.0000 0.15700  0.14660  0.42350  Biso   1.000  C
  C323     1.0000 0.07650  0.84300  0.64660  Biso   1.000  C
  C324     1.0000 0.92350  0.34300  0.85340  Biso   1.000  C
  C325     1.0000 0.42350  0.15700  0.14660  Biso   1.000  C
  C326     1.0000 0.64660  0.07650  0.84300  Biso   1.000  C
  C327     1.0000 0.85340  0.92350  0.34300  Biso   1.000  C
  C328     1.0000 0.14660  0.42350  0.15700  Biso   1.000  C
  H193     1.0000 0.36230  0.61430  0.40760  Biso   1.000  H
  H194     1.0000 0.40760  0.36230  0.61430  Biso   1.000  H
  H195     1.0000 0.61430  0.40760  0.36230  Biso   1.000  H
  H196     1.0000 0.13770  0.38570  0.90760  Biso   1.000  H
  H197     1.0000 0.63770  0.11430  0.09240  Biso   1.000  H
  H198     1.0000 0.86230  0.88570  0.59240  Biso   1.000  H
  H199     1.0000 0.90760  0.13770  0.38570  Biso   1.000  H
  H200     1.0000 0.09240  0.63770  0.11430  Biso   1.000  H
  H201     1.0000 0.59240  0.86230  0.88570  Biso   1.000  H
  H202     1.0000 0.38570  0.90760  0.13770  Biso   1.000  H
  H203     1.0000 0.11430  0.09240  0.63770  Biso   1.000  H
  H204     1.0000 0.88570  0.59240  0.86230  Biso   1.000  H
  H205     1.0000 0.63770  0.38570  0.59240  Biso   1.000  H
  H206     1.0000 0.59240  0.63770  0.38570  Biso   1.000  H
  H207     1.0000 0.38570  0.59240  0.63770  Biso   1.000  H
  H208     1.0000 0.86230  0.61430  0.09240  Biso   1.000  H
  H209     1.0000 0.36230  0.88570  0.90760  Biso   1.000  H
  H210     1.0000 0.13770  0.11430  0.40760  Biso   1.000  H
  H211     1.0000 0.09240  0.86230  0.61430  Biso   1.000  H
  H212     1.0000 0.90760  0.36230  0.88570  Biso   1.000  H
  H213     1.0000 0.40760  0.13770  0.11430  Biso   1.000  H
  H214     1.0000 0.61430  0.09240  0.86230  Biso   1.000  H
  H215     1.0000 0.88570  0.90760  0.36230  Biso   1.000  H
  H216     1.0000 0.11430  0.40760  0.13770  Biso   1.000  H
  C329     1.0000 0.36630  0.67660  0.46820  Biso   1.000  C
  C330     1.0000 0.46820  0.36630  0.67660  Biso   1.000  C
  C331     1.0000 0.67660  0.46820  0.36630  Biso   1.000  C
  C332     1.0000 0.13370  0.32340  0.96820  Biso   1.000  C
  C333     1.0000 0.63370  0.17660  0.03180  Biso   1.000  C
  C334     1.0000 0.86630  0.82340  0.53180  Biso   1.000  C
  C335     1.0000 0.96820  0.13370  0.32340  Biso   1.000  C
  C336     1.0000 0.03180  0.63370  0.17660  Biso   1.000  C
  C337     1.0000 0.53180  0.86630  0.82340  Biso   1.000  C
  C338     1.0000 0.32340  0.96820  0.13370  Biso   1.000  C
  C339     1.0000 0.17660  0.03180  0.63370  Biso   1.000  C
  C340     1.0000 0.82340  0.53180  0.86630  Biso   1.000  C
  C341     1.0000 0.63370  0.32340  0.53180  Biso   1.000  C
  C342     1.0000 0.53180  0.63370  0.32340  Biso   1.000  C
  C343     1.0000 0.32340  0.53180  0.63370  Biso   1.000  C
  C344     1.0000 0.86630  0.67660  0.03180  Biso   1.000  C
  C345     1.0000 0.36630  0.82340  0.96820  Biso   1.000  C
  C346     1.0000 0.13370  0.17660  0.46820  Biso   1.000  C
  C347     1.0000 0.03180  0.86630  0.67660  Biso   1.000  C
  C348     1.0000 0.96820  0.36630  0.82340  Biso   1.000  C
  C349     1.0000 0.46820  0.13370  0.17660  Biso   1.000  C
  C350     1.0000 0.67660  0.03180  0.86630  Biso   1.000  C
  C351     1.0000 0.82340  0.96820  0.36630  Biso   1.000  C
  C352     1.0000 0.17660  0.46820  0.13370  Biso   1.000  C
  H217     1.0000 0.40110  0.66320  0.48460  Biso   1.000  H
  H218     1.0000 0.48460  0.40110  0.66320  Biso   1.000  H
  H219     1.0000 0.66320  0.48460  0.40110  Biso   1.000  H
  H220     1.0000 0.09890  0.33680  0.98460  Biso   1.000  H
  H221     1.0000 0.59890  0.16320  0.01540  Biso   1.000  H
  H222     1.0000 0.90110  0.83680  0.51540  Biso   1.000  H
  H223     1.0000 0.98460  0.09890  0.33680  Biso   1.000  H
  H224     1.0000 0.01540  0.59890  0.16320  Biso   1.000  H
  H225     1.0000 0.51540  0.90110  0.83680  Biso   1.000  H
  H226     1.0000 0.33680  0.98460  0.09890  Biso   1.000  H
  H227     1.0000 0.16320  0.01540  0.59890  Biso   1.000  H
  H228     1.0000 0.83680  0.51540  0.90110  Biso   1.000  H
  H229     1.0000 0.59890  0.33680  0.51540  Biso   1.000  H
  H230     1.0000 0.51540  0.59890  0.33680  Biso   1.000  H
  H231     1.0000 0.33680  0.51540  0.59890  Biso   1.000  H
  H232     1.0000 0.90110  0.66320  0.01540  Biso   1.000  H
  H233     1.0000 0.40110  0.83680  0.98460  Biso   1.000  H
  H234     1.0000 0.09890  0.16320  0.48460  Biso   1.000  H
  H235     1.0000 0.01540  0.90110  0.66320  Biso   1.000  H
  H236     1.0000 0.98460  0.40110  0.83680  Biso   1.000  H
  H237     1.0000 0.48460  0.09890  0.16320  Biso   1.000  H
  H238     1.0000 0.66320  0.01540  0.90110  Biso   1.000  H
  H239     1.0000 0.83680  0.98460  0.40110  Biso   1.000  H
  H240     1.0000 0.16320  0.48460  0.09890  Biso   1.000  H
  O73      1.0000 0.19930  0.17410  0.85530  Biso   1.000  O
  O74      1.0000 0.85530  0.19930  0.17410  Biso   1.000  O
  O75      1.0000 0.17410  0.85530  0.19930  Biso   1.000  O
  O76      1.0000 0.30070  0.82590  0.35530  Biso   1.000  O
  O77      1.0000 0.80070  0.67410  0.64470  Biso   1.000  O
  O78      1.0000 0.69930  0.32590  0.14470  Biso   1.000  O
  O79      1.0000 0.35530  0.30070  0.82590  Biso   1.000  O
  O80      1.0000 0.64470  0.80070  0.67410  Biso   1.000  O
  O81      1.0000 0.14470  0.69930  0.32590  Biso   1.000  O
  O82      1.0000 0.82590  0.35530  0.30070  Biso   1.000  O
  O83      1.0000 0.67410  0.64470  0.80070  Biso   1.000  O
  O84      1.0000 0.32590  0.14470  0.69930  Biso   1.000  O
  O85      1.0000 0.80070  0.82590  0.14470  Biso   1.000  O
  O86      1.0000 0.14470  0.80070  0.82590  Biso   1.000  O
  O87      1.0000 0.82590  0.14470  0.80070  Biso   1.000  O
  O88      1.0000 0.69930  0.17410  0.64470  Biso   1.000  O
  O89      1.0000 0.19930  0.32590  0.35530  Biso   1.000  O
  O90      1.0000 0.30070  0.67410  0.85530  Biso   1.000  O
  O91      1.0000 0.64470  0.69930  0.17410  Biso   1.000  O
  O92      1.0000 0.35530  0.19930  0.32590  Biso   1.000  O
  O93      1.0000 0.85530  0.30070  0.67410  Biso   1.000  O
  O94      1.0000 0.17410  0.64470  0.69930  Biso   1.000  O
  O95      1.0000 0.32590  0.35530  0.19930  Biso   1.000  O
  O96      1.0000 0.67410  0.85530  0.30070  Biso   1.000  O
  N97      1.0000 0.11350  0.22210  0.84810  Biso   1.000  N
  N98      1.0000 0.84810  0.11350  0.22210  Biso   1.000  N
  N99      1.0000 0.22210  0.84810  0.11350  Biso   1.000  N
  N100     1.0000 0.38650  0.77790  0.34810  Biso   1.000  N
  N101     1.0000 0.88650  0.72210  0.65190  Biso   1.000  N
  N102     1.0000 0.61350  0.27790  0.15190  Biso   1.000  N
  N103     1.0000 0.34810  0.38650  0.77790  Biso   1.000  N
  N104     1.0000 0.65190  0.88650  0.72210  Biso   1.000  N
  N105     1.0000 0.15190  0.61350  0.27790  Biso   1.000  N
  N106     1.0000 0.77790  0.34810  0.38650  Biso   1.000  N
  N107     1.0000 0.72210  0.65190  0.88650  Biso   1.000  N
  N108     1.0000 0.27790  0.15190  0.61350  Biso   1.000  N
  N109     1.0000 0.88650  0.77790  0.15190  Biso   1.000  N
  N110     1.0000 0.15190  0.88650  0.77790  Biso   1.000  N
  N111     1.0000 0.77790  0.15190  0.88650  Biso   1.000  N
  N112     1.0000 0.61350  0.22210  0.65190  Biso   1.000  N
  N113     1.0000 0.11350  0.27790  0.34810  Biso   1.000  N
  N114     1.0000 0.38650  0.72210  0.84810  Biso   1.000  N
  N115     1.0000 0.65190  0.61350  0.22210  Biso   1.000  N
  N116     1.0000 0.34810  0.11350  0.27790  Biso   1.000  N
  N117     1.0000 0.84810  0.38650  0.72210  Biso   1.000  N
  N118     1.0000 0.22210  0.65190  0.61350  Biso   1.000  N
  N119     1.0000 0.27790  0.34810  0.11350  Biso   1.000  N
  N120     1.0000 0.72210  0.84810  0.38650  Biso   1.000  N
  C353     1.0000 0.15040  0.18590  0.87170  Biso   1.000  C
  C354     1.0000 0.87170  0.15040  0.18590  Biso   1.000  C
  C355     1.0000 0.18590  0.87170  0.15040  Biso   1.000  C
  C356     1.0000 0.34960  0.81410  0.37170  Biso   1.000  C
  C357     1.0000 0.84960  0.68590  0.62830  Biso   1.000  C
  C358     1.0000 0.65040  0.31410  0.12830  Biso   1.000  C
  C359     1.0000 0.37170  0.34960  0.81410  Biso   1.000  C
  C360     1.0000 0.62830  0.84960  0.68590  Biso   1.000  C
  C361     1.0000 0.12830  0.65040  0.31410  Biso   1.000  C
  C362     1.0000 0.81410  0.37170  0.34960  Biso   1.000  C
  C363     1.0000 0.68590  0.62830  0.84960  Biso   1.000  C
  C364     1.0000 0.31410  0.12830  0.65040  Biso   1.000  C
  C365     1.0000 0.84960  0.81410  0.12830  Biso   1.000  C
  C366     1.0000 0.12830  0.84960  0.81410  Biso   1.000  C
  C367     1.0000 0.81410  0.12830  0.84960  Biso   1.000  C
  C368     1.0000 0.65040  0.18590  0.62830  Biso   1.000  C
  C369     1.0000 0.15040  0.31410  0.37170  Biso   1.000  C
  C370     1.0000 0.34960  0.68590  0.87170  Biso   1.000  C
  C371     1.0000 0.62830  0.65040  0.18590  Biso   1.000  C
  C372     1.0000 0.37170  0.15040  0.31410  Biso   1.000  C
  C373     1.0000 0.87170  0.34960  0.68590  Biso   1.000  C
  C374     1.0000 0.18590  0.62830  0.65040  Biso   1.000  C
  C375     1.0000 0.31410  0.37170  0.15040  Biso   1.000  C
  C376     1.0000 0.68590  0.87170  0.34960  Biso   1.000  C
  H241     1.0000 0.13760  0.16680  0.90540  Biso   1.000  H
  H242     1.0000 0.90540  0.13760  0.16680  Biso   1.000  H
  H243     1.0000 0.16680  0.90540  0.13760  Biso   1.000  H
  H244     1.0000 0.36240  0.83320  0.40540  Biso   1.000  H
  H245     1.0000 0.86240  0.66680  0.59460  Biso   1.000  H
  H246     1.0000 0.63760  0.33320  0.09460  Biso   1.000  H
  H247     1.0000 0.40540  0.36240  0.83320  Biso   1.000  H
  H248     1.0000 0.59460  0.86240  0.66680  Biso   1.000  H
  H249     1.0000 0.09460  0.63760  0.33320  Biso   1.000  H
  H250     1.0000 0.83320  0.40540  0.36240  Biso   1.000  H
  H251     1.0000 0.66680  0.59460  0.86240  Biso   1.000  H
  H252     1.0000 0.33320  0.09460  0.63760  Biso   1.000  H
  H253     1.0000 0.86240  0.83320  0.09460  Biso   1.000  H
  H254     1.0000 0.09460  0.86240  0.83320  Biso   1.000  H
  H255     1.0000 0.83320  0.09460  0.86240  Biso   1.000  H
  H256     1.0000 0.63760  0.16680  0.59460  Biso   1.000  H
  H257     1.0000 0.13760  0.33320  0.40540  Biso   1.000  H
  H258     1.0000 0.36240  0.66680  0.90540  Biso   1.000  H
  H259     1.0000 0.59460  0.63760  0.16680  Biso   1.000  H
  H260     1.0000 0.40540  0.13760  0.33320  Biso   1.000  H
  H261     1.0000 0.90540  0.36240  0.66680  Biso   1.000  H
  H262     1.0000 0.16680  0.59460  0.63760  Biso   1.000  H
  H263     1.0000 0.33320  0.40540  0.13760  Biso   1.000  H
  H264     1.0000 0.66680  0.90540  0.36240  Biso   1.000  H
  C377     1.0000 0.12920  0.25190  0.79530  Biso   1.000  C
  C378     1.0000 0.79530  0.12920  0.25190  Biso   1.000  C
  C379     1.0000 0.25190  0.79530  0.12920  Biso   1.000  C
  C380     1.0000 0.37080  0.74810  0.29530  Biso   1.000  C
  C381     1.0000 0.87080  0.75190  0.70470  Biso   1.000  C
  C382     1.0000 0.62920  0.24810  0.20470  Biso   1.000  C
  C383     1.0000 0.29530  0.37080  0.74810  Biso   1.000  C
  C384     1.0000 0.70470  0.87080  0.75190  Biso   1.000  C
  C385     1.0000 0.20470  0.62920  0.24810  Biso   1.000  C
  C386     1.0000 0.74810  0.29530  0.37080  Biso   1.000  C
  C387     1.0000 0.75190  0.70470  0.87080  Biso   1.000  C
  C388     1.0000 0.24810  0.20470  0.62920  Biso   1.000  C
  C389     1.0000 0.87080  0.74810  0.20470  Biso   1.000  C
  C390     1.0000 0.20470  0.87080  0.74810  Biso   1.000  C
  C391     1.0000 0.74810  0.20470  0.87080  Biso   1.000  C
  C392     1.0000 0.62920  0.25190  0.70470  Biso   1.000  C
  C393     1.0000 0.12920  0.24810  0.29530  Biso   1.000  C
  C394     1.0000 0.37080  0.75190  0.79530  Biso   1.000  C
  C395     1.0000 0.70470  0.62920  0.25190  Biso   1.000  C
  C396     1.0000 0.29530  0.12920  0.24810  Biso   1.000  C
  C397     1.0000 0.79530  0.37080  0.75190  Biso   1.000  C
  C398     1.0000 0.25190  0.70470  0.62920  Biso   1.000  C
  C399     1.0000 0.24810  0.29530  0.12920  Biso   1.000  C
  C400     1.0000 0.75190  0.79530  0.37080  Biso   1.000  C
  H265     1.0000 0.16720  0.23920  0.78280  Biso   1.000  H
  H266     1.0000 0.78280  0.16720  0.23920  Biso   1.000  H
  H267     1.0000 0.23920  0.78280  0.16720  Biso   1.000  H
  H268     1.0000 0.33280  0.76080  0.28280  Biso   1.000  H
  H269     1.0000 0.83280  0.73920  0.71720  Biso   1.000  H
  H270     1.0000 0.66720  0.26080  0.21720  Biso   1.000  H
  H271     1.0000 0.28280  0.33280  0.76080  Biso   1.000  H
  H272     1.0000 0.71720  0.83280  0.73920  Biso   1.000  H
  H273     1.0000 0.21720  0.66720  0.26080  Biso   1.000  H
  H274     1.0000 0.76080  0.28280  0.33280  Biso   1.000  H
  H275     1.0000 0.73920  0.71720  0.83280  Biso   1.000  H
  H276     1.0000 0.26080  0.21720  0.66720  Biso   1.000  H
  H277     1.0000 0.83280  0.76080  0.21720  Biso   1.000  H
  H278     1.0000 0.21720  0.83280  0.76080  Biso   1.000  H
  H279     1.0000 0.76080  0.21720  0.83280  Biso   1.000  H
  H280     1.0000 0.66720  0.23920  0.71720  Biso   1.000  H
  H281     1.0000 0.16720  0.26080  0.28280  Biso   1.000  H
  H282     1.0000 0.33280  0.73920  0.78280  Biso   1.000  H
  H283     1.0000 0.71720  0.66720  0.23920  Biso   1.000  H
  H284     1.0000 0.28280  0.16720  0.26080  Biso   1.000  H
  H285     1.0000 0.78280  0.33280  0.73920  Biso   1.000  H
  H286     1.0000 0.23920  0.71720  0.66720  Biso   1.000  H
  H287     1.0000 0.26080  0.28280  0.16720  Biso   1.000  H
  H288     1.0000 0.73920  0.78280  0.33280  Biso   1.000  H
  H289     1.0000 0.12990  0.29340  0.80230  Biso   1.000  H
  H290     1.0000 0.80230  0.12990  0.29340  Biso   1.000  H
  H291     1.0000 0.29340  0.80230  0.12990  Biso   1.000  H
  H292     1.0000 0.37010  0.70660  0.30230  Biso   1.000  H
  H293     1.0000 0.87010  0.79340  0.69770  Biso   1.000  H
  H294     1.0000 0.62990  0.20660  0.19770  Biso   1.000  H
  H295     1.0000 0.30230  0.37010  0.70660  Biso   1.000  H
  H296     1.0000 0.69770  0.87010  0.79340  Biso   1.000  H
  H297     1.0000 0.19770  0.62990  0.20660  Biso   1.000  H
  H298     1.0000 0.70660  0.30230  0.37010  Biso   1.000  H
  H299     1.0000 0.79340  0.69770  0.87010  Biso   1.000  H
  H300     1.0000 0.20660  0.19770  0.62990  Biso   1.000  H
  H301     1.0000 0.87010  0.70660  0.19770  Biso   1.000  H
  H302     1.0000 0.19770  0.87010  0.70660  Biso   1.000  H
  H303     1.0000 0.70660  0.19770  0.87010  Biso   1.000  H
  H304     1.0000 0.62990  0.29340  0.69770  Biso   1.000  H
  H305     1.0000 0.12990  0.20660  0.30230  Biso   1.000  H
  H306     1.0000 0.37010  0.79340  0.80230  Biso   1.000  H
  H307     1.0000 0.69770  0.62990  0.29340  Biso   1.000  H
  H308     1.0000 0.30230  0.12990  0.20660  Biso   1.000  H
  H309     1.0000 0.80230  0.37010  0.79340  Biso   1.000  H
  H310     1.0000 0.29340  0.69770  0.62990  Biso   1.000  H
  H311     1.0000 0.20660  0.30230  0.12990  Biso   1.000  H
  H312     1.0000 0.79340  0.80230  0.37010  Biso   1.000  H
  H313     1.0000 0.10090  0.24330  0.76540  Biso   1.000  H
  H314     1.0000 0.76540  0.10090  0.24330  Biso   1.000  H
  H315     1.0000 0.24330  0.76540  0.10090  Biso   1.000  H
  H316     1.0000 0.39910  0.75670  0.26540  Biso   1.000  H
  H317     1.0000 0.89910  0.74330  0.73460  Biso   1.000  H
  H318     1.0000 0.60090  0.25670  0.23460  Biso   1.000  H
  H319     1.0000 0.26540  0.39910  0.75670  Biso   1.000  H
  H320     1.0000 0.73460  0.89910  0.74330  Biso   1.000  H
  H321     1.0000 0.23460  0.60090  0.25670  Biso   1.000  H
  H322     1.0000 0.75670  0.26540  0.39910  Biso   1.000  H
  H323     1.0000 0.74330  0.73460  0.89910  Biso   1.000  H
  H324     1.0000 0.25670  0.23460  0.60090  Biso   1.000  H
  H325     1.0000 0.89910  0.75670  0.23460  Biso   1.000  H
  H326     1.0000 0.23460  0.89910  0.75670  Biso   1.000  H
  H327     1.0000 0.75670  0.23460  0.89910  Biso   1.000  H
  H328     1.0000 0.60090  0.24330  0.73460  Biso   1.000  H
  H329     1.0000 0.10090  0.25670  0.26540  Biso   1.000  H
  H330     1.0000 0.39910  0.74330  0.76540  Biso   1.000  H
  H331     1.0000 0.73460  0.60090  0.24330  Biso   1.000  H
  H332     1.0000 0.26540  0.10090  0.25670  Biso   1.000  H
  H333     1.0000 0.76540  0.39910  0.74330  Biso   1.000  H
  H334     1.0000 0.24330  0.73460  0.60090  Biso   1.000  H
  H335     1.0000 0.25670  0.26540  0.10090  Biso   1.000  H
  H336     1.0000 0.74330  0.76540  0.39910  Biso   1.000  H
  C401     1.0000 0.05810  0.23320  0.87400  Biso   1.000  C
  C402     1.0000 0.87400  0.05810  0.23320  Biso   1.000  C
  C403     1.0000 0.23320  0.87400  0.05810  Biso   1.000  C
  C404     1.0000 0.44190  0.76680  0.37400  Biso   1.000  C
  C405     1.0000 0.94190  0.73320  0.62600  Biso   1.000  C
  C406     1.0000 0.55810  0.26680  0.12600  Biso   1.000  C
  C407     1.0000 0.37400  0.44190  0.76680  Biso   1.000  C
  C408     1.0000 0.62600  0.94190  0.73320  Biso   1.000  C
  C409     1.0000 0.12600  0.55810  0.26680  Biso   1.000  C
  C410     1.0000 0.76680  0.37400  0.44190  Biso   1.000  C
  C411     1.0000 0.73320  0.62600  0.94190  Biso   1.000  C
  C412     1.0000 0.26680  0.12600  0.55810  Biso   1.000  C
  C413     1.0000 0.94190  0.76680  0.12600  Biso   1.000  C
  C414     1.0000 0.12600  0.94190  0.76680  Biso   1.000  C
  C415     1.0000 0.76680  0.12600  0.94190  Biso   1.000  C
  C416     1.0000 0.55810  0.23320  0.62600  Biso   1.000  C
  C417     1.0000 0.05810  0.26680  0.37400  Biso   1.000  C
  C418     1.0000 0.44190  0.73320  0.87400  Biso   1.000  C
  C419     1.0000 0.62600  0.55810  0.23320  Biso   1.000  C
  C420     1.0000 0.37400  0.05810  0.26680  Biso   1.000  C
  C421     1.0000 0.87400  0.44190  0.73320  Biso   1.000  C
  C422     1.0000 0.23320  0.62600  0.55810  Biso   1.000  C
  C423     1.0000 0.26680  0.37400  0.05810  Biso   1.000  C
  C424     1.0000 0.73320  0.87400  0.44190  Biso   1.000  C
  H337     1.0000 0.05350  0.20920  0.90820  Biso   1.000  H
  H338     1.0000 0.90820  0.05350  0.20920  Biso   1.000  H
  H339     1.0000 0.20920  0.90820  0.05350  Biso   1.000  H
  H340     1.0000 0.44650  0.79080  0.40820  Biso   1.000  H
  H341     1.0000 0.94650  0.70920  0.59180  Biso   1.000  H
  H342     1.0000 0.55350  0.29080  0.09180  Biso   1.000  H
  H343     1.0000 0.40820  0.44650  0.79080  Biso   1.000  H
  H344     1.0000 0.59180  0.94650  0.70920  Biso   1.000  H
  H345     1.0000 0.09180  0.55350  0.29080  Biso   1.000  H
  H346     1.0000 0.79080  0.40820  0.44650  Biso   1.000  H
  H347     1.0000 0.70920  0.59180  0.94650  Biso   1.000  H
  H348     1.0000 0.29080  0.09180  0.55350  Biso   1.000  H
  H349     1.0000 0.94650  0.79080  0.09180  Biso   1.000  H
  H350     1.0000 0.09180  0.94650  0.79080  Biso   1.000  H
  H351     1.0000 0.79080  0.09180  0.94650  Biso   1.000  H
  H352     1.0000 0.55350  0.20920  0.59180  Biso   1.000  H
  H353     1.0000 0.05350  0.29080  0.40820  Biso   1.000  H
  H354     1.0000 0.44650  0.70920  0.90820  Biso   1.000  H
  H355     1.0000 0.59180  0.55350  0.20920  Biso   1.000  H
  H356     1.0000 0.40820  0.05350  0.29080  Biso   1.000  H
  H357     1.0000 0.90820  0.44650  0.70920  Biso   1.000  H
  H358     1.0000 0.20920  0.59180  0.55350  Biso   1.000  H
  H359     1.0000 0.29080  0.40820  0.05350  Biso   1.000  H
  H360     1.0000 0.70920  0.90820  0.44650  Biso   1.000  H
  H361     1.0000 0.02760  0.22420  0.84640  Biso   1.000  H
  H362     1.0000 0.84640  0.02760  0.22420  Biso   1.000  H
  H363     1.0000 0.22420  0.84640  0.02760  Biso   1.000  H
  H364     1.0000 0.47240  0.77580  0.34640  Biso   1.000  H
  H365     1.0000 0.97240  0.72420  0.65360  Biso   1.000  H
  H366     1.0000 0.52760  0.27580  0.15360  Biso   1.000  H
  H367     1.0000 0.34640  0.47240  0.77580  Biso   1.000  H
  H368     1.0000 0.65360  0.97240  0.72420  Biso   1.000  H
  H369     1.0000 0.15360  0.52760  0.27580  Biso   1.000  H
  H370     1.0000 0.77580  0.34640  0.47240  Biso   1.000  H
  H371     1.0000 0.72420  0.65360  0.97240  Biso   1.000  H
  H372     1.0000 0.27580  0.15360  0.52760  Biso   1.000  H
  H373     1.0000 0.97240  0.77580  0.15360  Biso   1.000  H
  H374     1.0000 0.15360  0.97240  0.77580  Biso   1.000  H
  H375     1.0000 0.77580  0.15360  0.97240  Biso   1.000  H
  H376     1.0000 0.52760  0.22420  0.65360  Biso   1.000  H
  H377     1.0000 0.02760  0.27580  0.34640  Biso   1.000  H
  H378     1.0000 0.47240  0.72420  0.84640  Biso   1.000  H
  H379     1.0000 0.65360  0.52760  0.22420  Biso   1.000  H
  H380     1.0000 0.34640  0.02760  0.27580  Biso   1.000  H
  H381     1.0000 0.84640  0.47240  0.72420  Biso   1.000  H
  H382     1.0000 0.22420  0.65360  0.52760  Biso   1.000  H
  H383     1.0000 0.27580  0.34640  0.02760  Biso   1.000  H
  H384     1.0000 0.72420  0.84640  0.47240  Biso   1.000  H
  H385     1.0000 0.05560  0.27380  0.88490  Biso   1.000  H
  H386     1.0000 0.88490  0.05560  0.27380  Biso   1.000  H
  H387     1.0000 0.27380  0.88490  0.05560  Biso   1.000  H
  H388     1.0000 0.44440  0.72620  0.38490  Biso   1.000  H
  H389     1.0000 0.94440  0.77380  0.61510  Biso   1.000  H
  H390     1.0000 0.55560  0.22620  0.11510  Biso   1.000  H
  H391     1.0000 0.38490  0.44440  0.72620  Biso   1.000  H
  H392     1.0000 0.61510  0.94440  0.77380  Biso   1.000  H
  H393     1.0000 0.11510  0.55560  0.22620  Biso   1.000  H
  H394     1.0000 0.72620  0.38490  0.44440  Biso   1.000  H
  H395     1.0000 0.77380  0.61510  0.94440  Biso   1.000  H
  H396     1.0000 0.22620  0.11510  0.55560  Biso   1.000  H
  H397     1.0000 0.94440  0.72620  0.11510  Biso   1.000  H
  H398     1.0000 0.11510  0.94440  0.72620  Biso   1.000  H
  H399     1.0000 0.72620  0.11510  0.94440  Biso   1.000  H
  H400     1.0000 0.55560  0.27380  0.61510  Biso   1.000  H
  H401     1.0000 0.05560  0.22620  0.38490  Biso   1.000  H
  H402     1.0000 0.44440  0.77380  0.88490  Biso   1.000  H
  H403     1.0000 0.61510  0.55560  0.27380  Biso   1.000  H
  H404     1.0000 0.38490  0.05560  0.22620  Biso   1.000  H
  H405     1.0000 0.88490  0.44440  0.77380  Biso   1.000  H
  H406     1.0000 0.27380  0.61510  0.55560  Biso   1.000  H
  H407     1.0000 0.22620  0.38490  0.05560  Biso   1.000  H
  H408     1.0000 0.77380  0.88490  0.44440  Biso   1.000  H
  O97      1.0000 0.27750  0.22250  0.77750  Biso   1.000  O
  O98      1.0000 0.77750  0.27750  0.22250  Biso   1.000  O
  O99      1.0000 0.22250  0.77750  0.27750  Biso   1.000  O
  O100     1.0000 0.72250  0.72250  0.72250  Biso   1.000  O
  O101     1.0000 0.72250  0.77750  0.22250  Biso   1.000  O
  O102     1.0000 0.22250  0.72250  0.77750  Biso   1.000  O
  O103     1.0000 0.77750  0.22250  0.72250  Biso   1.000  O
  O104     1.0000 0.27750  0.27750  0.27750  Biso   1.000  O
  N121     1.0000 0.46090  0.03910  0.96090  Biso   1.000  N
  N122     1.0000 0.96090  0.46090  0.03910  Biso   1.000  N
  N123     1.0000 0.03910  0.96090  0.46090  Biso   1.000  N
  N124     1.0000 0.53910  0.53910  0.53910  Biso   1.000  N
  N125     1.0000 0.53910  0.96090  0.03910  Biso   1.000  N
  N126     1.0000 0.03910  0.53910  0.96090  Biso   1.000  N
  N127     1.0000 0.96090  0.03910  0.53910  Biso   1.000  N
  N128     1.0000 0.46090  0.46090  0.46090  Biso   1.000  N
  C425     1.0000 0.40980  0.01500  0.93380  Biso   1.000  C
  C426     1.0000 0.93380  0.40980  0.01500  Biso   1.000  C
  C427     1.0000 0.01500  0.93380  0.40980  Biso   1.000  C
  C428     1.0000 0.09020  0.98500  0.43380  Biso   1.000  C
  C429     1.0000 0.59020  0.51500  0.56620  Biso   1.000  C
  C430     1.0000 0.90980  0.48500  0.06620  Biso   1.000  C
  C431     1.0000 0.43380  0.09020  0.98500  Biso   1.000  C
  C432     1.0000 0.56620  0.59020  0.51500  Biso   1.000  C
  C433     1.0000 0.06620  0.90980  0.48500  Biso   1.000  C
  C434     1.0000 0.98500  0.43380  0.09020  Biso   1.000  C
  C435     1.0000 0.51500  0.56620  0.59020  Biso   1.000  C
  C436     1.0000 0.48500  0.06620  0.90980  Biso   1.000  C
  C437     1.0000 0.59020  0.98500  0.06620  Biso   1.000  C
  C438     1.0000 0.06620  0.59020  0.98500  Biso   1.000  C
  C439     1.0000 0.98500  0.06620  0.59020  Biso   1.000  C
  C440     1.0000 0.90980  0.01500  0.56620  Biso   1.000  C
  C441     1.0000 0.40980  0.48500  0.43380  Biso   1.000  C
  C442     1.0000 0.09020  0.51500  0.93380  Biso   1.000  C
  C443     1.0000 0.56620  0.90980  0.01500  Biso   1.000  C
  C444     1.0000 0.43380  0.40980  0.48500  Biso   1.000  C
  C445     1.0000 0.93380  0.09020  0.51500  Biso   1.000  C
  C446     1.0000 0.01500  0.56620  0.90980  Biso   1.000  C
  C447     1.0000 0.48500  0.43380  0.40980  Biso   1.000  C
  C448     1.0000 0.51500  0.93380  0.09020  Biso   1.000  C
  H409     1.0000 0.42200  0.98210  0.90920  Biso   1.000  H
  H410     1.0000 0.90920  0.42200  0.98210  Biso   1.000  H
  H411     1.0000 0.98210  0.90920  0.42200  Biso   1.000  H
  H412     1.0000 0.07800  0.01790  0.40920  Biso   1.000  H
  H413     1.0000 0.57800  0.48210  0.59080  Biso   1.000  H
  H414     1.0000 0.92200  0.51790  0.09080  Biso   1.000  H
  H415     1.0000 0.40920  0.07800  0.01790  Biso   1.000  H
  H416     1.0000 0.59080  0.57800  0.48210  Biso   1.000  H
  H417     1.0000 0.09080  0.92200  0.51790  Biso   1.000  H
  H418     1.0000 0.01790  0.40920  0.07800  Biso   1.000  H
  H419     1.0000 0.48210  0.59080  0.57800  Biso   1.000  H
  H420     1.0000 0.51790  0.09080  0.92200  Biso   1.000  H
  H421     1.0000 0.57800  0.01790  0.09080  Biso   1.000  H
  H422     1.0000 0.09080  0.57800  0.01790  Biso   1.000  H
  H423     1.0000 0.01790  0.09080  0.57800  Biso   1.000  H
  H424     1.0000 0.92200  0.98210  0.59080  Biso   1.000  H
  H425     1.0000 0.42200  0.51790  0.40920  Biso   1.000  H
  H426     1.0000 0.07800  0.48210  0.90920  Biso   1.000  H
  H427     1.0000 0.59080  0.92200  0.98210  Biso   1.000  H
  H428     1.0000 0.40920  0.42200  0.51790  Biso   1.000  H
  H429     1.0000 0.90920  0.07800  0.48210  Biso   1.000  H
  H430     1.0000 0.98210  0.59080  0.92200  Biso   1.000  H
  H431     1.0000 0.51790  0.40920  0.42200  Biso   1.000  H
  H432     1.0000 0.48210  0.90920  0.07800  Biso   1.000  H
  H433     1.0000 0.39280  0.04400  0.90830  Biso   1.000  H
  H434     1.0000 0.90830  0.39280  0.04400  Biso   1.000  H
  H435     1.0000 0.04400  0.90830  0.39280  Biso   1.000  H
  H436     1.0000 0.10720  0.95600  0.40830  Biso   1.000  H
  H437     1.0000 0.60720  0.54400  0.59170  Biso   1.000  H
  H438     1.0000 0.89280  0.45600  0.09170  Biso   1.000  H
  H439     1.0000 0.40830  0.10720  0.95600  Biso   1.000  H
  H440     1.0000 0.59170  0.60720  0.54400  Biso   1.000  H
  H441     1.0000 0.09170  0.89280  0.45600  Biso   1.000  H
  H442     1.0000 0.95600  0.40830  0.10720  Biso   1.000  H
  H443     1.0000 0.54400  0.59170  0.60720  Biso   1.000  H
  H444     1.0000 0.45600  0.09170  0.89280  Biso   1.000  H
  H445     1.0000 0.60720  0.95600  0.09170  Biso   1.000  H
  H446     1.0000 0.09170  0.60720  0.95600  Biso   1.000  H
  H447     1.0000 0.95600  0.09170  0.60720  Biso   1.000  H
  H448     1.0000 0.89280  0.04400  0.59170  Biso   1.000  H
  H449     1.0000 0.39280  0.45600  0.40830  Biso   1.000  H
  H450     1.0000 0.10720  0.54400  0.90830  Biso   1.000  H
  H451     1.0000 0.59170  0.89280  0.04400  Biso   1.000  H
  H452     1.0000 0.40830  0.39280  0.45600  Biso   1.000  H
  H453     1.0000 0.90830  0.10720  0.54400  Biso   1.000  H
  H454     1.0000 0.04400  0.59170  0.89280  Biso   1.000  H
  H455     1.0000 0.45600  0.40830  0.39280  Biso   1.000  H
  H456     1.0000 0.54400  0.90830  0.10720  Biso   1.000  H
  C449     1.0000 0.36310  0.99310  0.97410  Biso   1.000  C
  C450     1.0000 0.97410  0.36310  0.99310  Biso   1.000  C
  C451     1.0000 0.99310  0.97410  0.36310  Biso   1.000  C
  C452     1.0000 0.13690  0.00690  0.47410  Biso   1.000  C
  C453     1.0000 0.63690  0.49310  0.52590  Biso   1.000  C
  C454     1.0000 0.86310  0.50690  0.02590  Biso   1.000  C
  C455     1.0000 0.47410  0.13690  0.00690  Biso   1.000  C
  C456     1.0000 0.52590  0.63690  0.49310  Biso   1.000  C
  C457     1.0000 0.02590  0.86310  0.50690  Biso   1.000  C
  C458     1.0000 0.00690  0.47410  0.13690  Biso   1.000  C
  C459     1.0000 0.49310  0.52590  0.63690  Biso   1.000  C
  C460     1.0000 0.50690  0.02590  0.86310  Biso   1.000  C
  C461     1.0000 0.63690  0.00690  0.02590  Biso   1.000  C
  C462     1.0000 0.02590  0.63690  0.00690  Biso   1.000  C
  C463     1.0000 0.00690  0.02590  0.63690  Biso   1.000  C
  C464     1.0000 0.86310  0.99310  0.52590  Biso   1.000  C
  C465     1.0000 0.36310  0.50690  0.47410  Biso   1.000  C
  C466     1.0000 0.13690  0.49310  0.97410  Biso   1.000  C
  C467     1.0000 0.52590  0.86310  0.99310  Biso   1.000  C
  C468     1.0000 0.47410  0.36310  0.50690  Biso   1.000  C
  C469     1.0000 0.97410  0.13690  0.49310  Biso   1.000  C
  C470     1.0000 0.99310  0.52590  0.86310  Biso   1.000  C
  C471     1.0000 0.50690  0.47410  0.36310  Biso   1.000  C
  C472     1.0000 0.49310  0.97410  0.13690  Biso   1.000  C
  H457     1.0000 0.33210  0.97560  0.95170  Biso   1.000  H
  H458     1.0000 0.95170  0.33210  0.97560  Biso   1.000  H
  H459     1.0000 0.97560  0.95170  0.33210  Biso   1.000  H
  H460     1.0000 0.16790  0.02440  0.45170  Biso   1.000  H
  H461     1.0000 0.66790  0.47560  0.54830  Biso   1.000  H
  H462     1.0000 0.83210  0.52440  0.04830  Biso   1.000  H
  H463     1.0000 0.45170  0.16790  0.02440  Biso   1.000  H
  H464     1.0000 0.54830  0.66790  0.47560  Biso   1.000  H
  H465     1.0000 0.04830  0.83210  0.52440  Biso   1.000  H
  H466     1.0000 0.02440  0.45170  0.16790  Biso   1.000  H
  H467     1.0000 0.47560  0.54830  0.66790  Biso   1.000  H
  H468     1.0000 0.52440  0.04830  0.83210  Biso   1.000  H
  H469     1.0000 0.66790  0.02440  0.04830  Biso   1.000  H
  H470     1.0000 0.04830  0.66790  0.02440  Biso   1.000  H
  H471     1.0000 0.02440  0.04830  0.66790  Biso   1.000  H
  H472     1.0000 0.83210  0.97560  0.54830  Biso   1.000  H
  H473     1.0000 0.33210  0.52440  0.45170  Biso   1.000  H
  H474     1.0000 0.16790  0.47560  0.95170  Biso   1.000  H
  H475     1.0000 0.54830  0.83210  0.97560  Biso   1.000  H
  H476     1.0000 0.45170  0.33210  0.52440  Biso   1.000  H
  H477     1.0000 0.95170  0.16790  0.47560  Biso   1.000  H
  H478     1.0000 0.97560  0.54830  0.83210  Biso   1.000  H
  H479     1.0000 0.52440  0.45170  0.33210  Biso   1.000  H
  H480     1.0000 0.47560  0.95170  0.16790  Biso   1.000  H
  H481     1.0000 0.34790  0.02540  0.99640  Biso   1.000  H
  H482     1.0000 0.99640  0.34790  0.02540  Biso   1.000  H
  H483     1.0000 0.02540  0.99640  0.34790  Biso   1.000  H
  H484     1.0000 0.15210  0.97460  0.49640  Biso   1.000  H
  H485     1.0000 0.65210  0.52540  0.50360  Biso   1.000  H
  H486     1.0000 0.84790  0.47460  0.00360  Biso   1.000  H
  H487     1.0000 0.49640  0.15210  0.97460  Biso   1.000  H
  H488     1.0000 0.50360  0.65210  0.52540  Biso   1.000  H
  H489     1.0000 0.00360  0.84790  0.47460  Biso   1.000  H
  H490     1.0000 0.97460  0.49640  0.15210  Biso   1.000  H
  H491     1.0000 0.52540  0.50360  0.65210  Biso   1.000  H
  H492     1.0000 0.47460  0.00360  0.84790  Biso   1.000  H
  H493     1.0000 0.65210  0.97460  0.00360  Biso   1.000  H
  H494     1.0000 0.00360  0.65210  0.97460  Biso   1.000  H
  H495     1.0000 0.97460  0.00360  0.65210  Biso   1.000  H
  H496     1.0000 0.84790  0.02540  0.50360  Biso   1.000  H
  H497     1.0000 0.34790  0.47460  0.49640  Biso   1.000  H
  H498     1.0000 0.15210  0.52540  0.99640  Biso   1.000  H
  H499     1.0000 0.50360  0.84790  0.02540  Biso   1.000  H
  H500     1.0000 0.49640  0.34790  0.47460  Biso   1.000  H
  H501     1.0000 0.99640  0.15210  0.52540  Biso   1.000  H
  H502     1.0000 0.02540  0.50360  0.84790  Biso   1.000  H
  H503     1.0000 0.47460  0.49640  0.34790  Biso   1.000  H
  H504     1.0000 0.52540  0.99640  0.15210  Biso   1.000  H
  H505     1.0000 0.37930  0.96450  0.00030  Biso   1.000  H
  H506     1.0000 0.00030  0.37930  0.96450  Biso   1.000  H
  H507     1.0000 0.96450  0.00030  0.37930  Biso   1.000  H
  H508     1.0000 0.12070  0.03550  0.50030  Biso   1.000  H
  H509     1.0000 0.62070  0.46450  0.49970  Biso   1.000  H
  H510     1.0000 0.87930  0.53550  0.99970  Biso   1.000  H
  H511     1.0000 0.50030  0.12070  0.03550  Biso   1.000  H
  H512     1.0000 0.49970  0.62070  0.46450  Biso   1.000  H
  H513     1.0000 0.99970  0.87930  0.53550  Biso   1.000  H
  H514     1.0000 0.03550  0.50030  0.12070  Biso   1.000  H
  H515     1.0000 0.46450  0.49970  0.62070  Biso   1.000  H
  H516     1.0000 0.53550  0.99970  0.87930  Biso   1.000  H
  H517     1.0000 0.62070  0.03550  0.99970  Biso   1.000  H
  H518     1.0000 0.99970  0.62070  0.03550  Biso   1.000  H
  H519     1.0000 0.03550  0.99970  0.62070  Biso   1.000  H
  H520     1.0000 0.87930  0.96450  0.49970  Biso   1.000  H
  H521     1.0000 0.37930  0.53550  0.50030  Biso   1.000  H
  H522     1.0000 0.12070  0.46450  0.00030  Biso   1.000  H
  H523     1.0000 0.49970  0.87930  0.96450  Biso   1.000  H
  H524     1.0000 0.50030  0.37930  0.53550  Biso   1.000  H
  H525     1.0000 0.00030  0.12070  0.46450  Biso   1.000  H
  H526     1.0000 0.96450  0.49970  0.87930  Biso   1.000  H
  H527     1.0000 0.53550  0.50030  0.37930  Biso   1.000  H
  H528     1.0000 0.46450  0.00030  0.12070  Biso   1.000  H
