data_image0
_cell_length_a       15.1886
_cell_length_b       23.6194
_cell_length_c       25.9627
_cell_angle_alpha    90
_cell_angle_beta     90
_cell_angle_gamma    90

_symmetry_space_group_name_H-M    "P 1"
_symmetry_int_tables_number       1

loop_
  _symmetry_equiv_pos_as_xyz
  'x, y, z'

loop_
  _atom_site_label
  _atom_site_occupancy
  _atom_site_fract_x
  _atom_site_fract_y
  _atom_site_fract_z
  _atom_site_thermal_displace_type
  _atom_site_B_iso_or_equiv
  _atom_site_type_symbol
  Pr1      1.0000 0.52617  0.36556  0.00098  Biso   1.000  Pr
  Pr2      1.0000 0.97383  0.63445  0.50098  Biso   1.000  Pr
  Pr3      1.0000 0.47383  0.86556  0.49902  Biso   1.000  Pr
  Pr4      1.0000 0.02617  0.13444  0.99902  Biso   1.000  Pr
  Pr5      1.0000 0.47383  0.63445  0.99902  Biso   1.000  Pr
  Pr6      1.0000 0.02617  0.36556  0.49902  Biso   1.000  Pr
  Pr7      1.0000 0.52617  0.13444  0.50098  Biso   1.000  Pr
  Pr8      1.0000 0.97383  0.86556  0.00098  Biso   1.000  Pr
  Cu1      1.0000 0.40183  0.36966  0.88647  Biso   1.000  Cu
  Cu2      1.0000 0.09817  0.63034  0.38647  Biso   1.000  Cu
  Cu3      1.0000 0.59817  0.86966  0.61353  Biso   1.000  Cu
  Cu4      1.0000 0.90183  0.13034  0.11353  Biso   1.000  Cu
  Cu5      1.0000 0.59817  0.63034  0.11353  Biso   1.000  Cu
  Cu6      1.0000 0.90183  0.36966  0.61353  Biso   1.000  Cu
  Cu7      1.0000 0.40183  0.13034  0.38647  Biso   1.000  Cu
  Cu8      1.0000 0.09817  0.86966  0.88647  Biso   1.000  Cu
  Cu9      1.0000 0.64820  0.34746  0.11861  Biso   1.000  Cu
  Cu10     1.0000 0.85180  0.65254  0.61861  Biso   1.000  Cu
  Cu11     1.0000 0.35180  0.84746  0.38139  Biso   1.000  Cu
  Cu12     1.0000 0.14820  0.15254  0.88139  Biso   1.000  Cu
  Cu13     1.0000 0.35180  0.65254  0.88139  Biso   1.000  Cu
  Cu14     1.0000 0.14820  0.34746  0.38139  Biso   1.000  Cu
  Cu15     1.0000 0.64820  0.15254  0.61861  Biso   1.000  Cu
  Cu16     1.0000 0.85180  0.84746  0.11861  Biso   1.000  Cu
  N1       1.0000 0.44990  0.39020  0.81747  Biso   1.000  N
  N2       1.0000 0.05010  0.60980  0.31747  Biso   1.000  N
  N3       1.0000 0.55010  0.89020  0.68253  Biso   1.000  N
  N4       1.0000 0.94990  0.10980  0.18253  Biso   1.000  N
  N5       1.0000 0.55010  0.60980  0.18253  Biso   1.000  N
  N6       1.0000 0.94990  0.39020  0.68253  Biso   1.000  N
  N7       1.0000 0.44990  0.10980  0.31747  Biso   1.000  N
  N8       1.0000 0.05010  0.89020  0.81747  Biso   1.000  N
  N9       1.0000 0.27880  0.38600  0.87200  Biso   1.000  N
  N10      1.0000 0.22120  0.61400  0.37200  Biso   1.000  N
  N11      1.0000 0.72120  0.88600  0.62800  Biso   1.000  N
  N12      1.0000 0.77880  0.11400  0.12800  Biso   1.000  N
  N13      1.0000 0.72120  0.61400  0.12800  Biso   1.000  N
  N14      1.0000 0.77880  0.38600  0.62800  Biso   1.000  N
  N15      1.0000 0.27880  0.11400  0.37200  Biso   1.000  N
  N16      1.0000 0.22120  0.88600  0.87200  Biso   1.000  N
  N17      1.0000 0.60250  0.31370  0.18307  Biso   1.000  N
  N18      1.0000 0.89750  0.68630  0.68307  Biso   1.000  N
  N19      1.0000 0.39750  0.81370  0.31693  Biso   1.000  N
  N20      1.0000 0.10250  0.18630  0.81693  Biso   1.000  N
  N21      1.0000 0.39750  0.68630  0.81693  Biso   1.000  N
  N22      1.0000 0.10250  0.31370  0.31693  Biso   1.000  N
  N23      1.0000 0.60250  0.18630  0.68307  Biso   1.000  N
  N24      1.0000 0.89750  0.81370  0.18307  Biso   1.000  N
  N25      1.0000 0.74440  0.39040  0.15006  Biso   1.000  N
  N26      1.0000 0.75560  0.60960  0.65006  Biso   1.000  N
  N27      1.0000 0.25560  0.89040  0.34994  Biso   1.000  N
  N28      1.0000 0.24440  0.10960  0.84994  Biso   1.000  N
  N29      1.0000 0.25560  0.60960  0.84994  Biso   1.000  N
  N30      1.0000 0.24440  0.39040  0.34994  Biso   1.000  N
  N31      1.0000 0.74440  0.10960  0.65006  Biso   1.000  N
  N32      1.0000 0.75560  0.89040  0.15006  Biso   1.000  N
  N33      1.0000 0.24040  0.23260  0.89180  Biso   1.000  N
  N34      1.0000 0.25960  0.76740  0.39180  Biso   1.000  N
  N35      1.0000 0.75960  0.73260  0.60820  Biso   1.000  N
  N36      1.0000 0.74040  0.26740  0.10820  Biso   1.000  N
  N37      1.0000 0.75960  0.76740  0.10820  Biso   1.000  N
  N38      1.0000 0.74040  0.23260  0.60820  Biso   1.000  N
  N39      1.0000 0.24040  0.26740  0.39180  Biso   1.000  N
  N40      1.0000 0.25960  0.73260  0.89180  Biso   1.000  N
  N41      1.0000 0.37150  0.27310  0.85040  Biso   1.000  N
  N42      1.0000 0.12850  0.72690  0.35040  Biso   1.000  N
  N43      1.0000 0.62850  0.77310  0.64960  Biso   1.000  N
  N44      1.0000 0.87150  0.22690  0.14960  Biso   1.000  N
  N45      1.0000 0.62850  0.72690  0.14960  Biso   1.000  N
  N46      1.0000 0.87150  0.27310  0.64960  Biso   1.000  N
  N47      1.0000 0.37150  0.22690  0.35040  Biso   1.000  N
  N48      1.0000 0.12850  0.77310  0.85040  Biso   1.000  N
  N49      1.0000 0.40500  0.25860  0.75990  Biso   1.000  N
  N50      1.0000 0.09500  0.74140  0.25990  Biso   1.000  N
  N51      1.0000 0.59500  0.75860  0.74010  Biso   1.000  N
  N52      1.0000 0.90500  0.24140  0.24010  Biso   1.000  N
  N53      1.0000 0.59500  0.74140  0.24010  Biso   1.000  N
  N54      1.0000 0.90500  0.25860  0.74010  Biso   1.000  N
  N55      1.0000 0.40500  0.24140  0.25990  Biso   1.000  N
  N56      1.0000 0.09500  0.75860  0.75990  Biso   1.000  N
  N57      1.0000 0.93330  0.52430  0.18880  Biso   1.000  N
  N58      1.0000 0.56670  0.47570  0.68880  Biso   1.000  N
  N59      1.0000 0.06670  0.02430  0.31120  Biso   1.000  N
  N60      1.0000 0.43330  0.97570  0.81120  Biso   1.000  N
  N61      1.0000 0.06670  0.47570  0.81120  Biso   1.000  N
  N62      1.0000 0.43330  0.52430  0.31120  Biso   1.000  N
  N63      1.0000 0.93330  0.97570  0.68880  Biso   1.000  N
  N64      1.0000 0.56670  0.02430  0.18880  Biso   1.000  N
  N65      1.0000 0.20930  0.47050  0.17840  Biso   1.000  N
  N66      1.0000 0.29070  0.52950  0.67840  Biso   1.000  N
  N67      1.0000 0.79070  0.97050  0.32160  Biso   1.000  N
  N68      1.0000 0.70930  0.02950  0.82160  Biso   1.000  N
  N69      1.0000 0.79070  0.52950  0.82160  Biso   1.000  N
  N70      1.0000 0.70930  0.47050  0.32160  Biso   1.000  N
  N71      1.0000 0.20930  0.02950  0.67840  Biso   1.000  N
  N72      1.0000 0.29070  0.97050  0.17840  Biso   1.000  N
  N73      1.0000 0.06200  0.48940  0.14350  Biso   1.000  N
  N74      1.0000 0.43800  0.51060  0.64350  Biso   1.000  N
  N75      1.0000 0.93800  0.98940  0.35650  Biso   1.000  N
  N76      1.0000 0.56200  0.01060  0.85650  Biso   1.000  N
  N77      1.0000 0.93800  0.51060  0.85650  Biso   1.000  N
  N78      1.0000 0.56200  0.48940  0.35650  Biso   1.000  N
  N79      1.0000 0.06200  0.01060  0.64350  Biso   1.000  N
  N80      1.0000 0.43800  0.98940  0.14350  Biso   1.000  N
  O1       1.0000 0.51800  0.34611  0.91004  Biso   1.000  O
  O2       1.0000 0.98200  0.65389  0.41004  Biso   1.000  O
  O3       1.0000 0.48200  0.84611  0.58996  Biso   1.000  O
  O4       1.0000 0.01800  0.15389  0.08996  Biso   1.000  O
  O5       1.0000 0.48200  0.65389  0.08996  Biso   1.000  O
  O6       1.0000 0.01800  0.34611  0.58996  Biso   1.000  O
  O7       1.0000 0.51800  0.15389  0.41004  Biso   1.000  O
  O8       1.0000 0.98200  0.84611  0.91004  Biso   1.000  O
  O9       1.0000 0.37590  0.35754  0.95982  Biso   1.000  O
  O10      1.0000 0.12410  0.64246  0.45982  Biso   1.000  O
  O11      1.0000 0.62410  0.85754  0.54018  Biso   1.000  O
  O12      1.0000 0.87590  0.14246  0.04018  Biso   1.000  O
  O13      1.0000 0.62410  0.64246  0.04018  Biso   1.000  O
  O14      1.0000 0.87590  0.35754  0.54018  Biso   1.000  O
  O15      1.0000 0.37590  0.14246  0.45982  Biso   1.000  O
  O16      1.0000 0.12410  0.85754  0.95982  Biso   1.000  O
  O17      1.0000 0.38240  0.36302  0.06080  Biso   1.000  O
  O18      1.0000 0.11760  0.63698  0.56080  Biso   1.000  O
  O19      1.0000 0.61760  0.86302  0.43920  Biso   1.000  O
  O20      1.0000 0.88240  0.13698  0.93920  Biso   1.000  O
  O21      1.0000 0.61760  0.63698  0.93920  Biso   1.000  O
  O22      1.0000 0.88240  0.36302  0.43920  Biso   1.000  O
  O23      1.0000 0.38240  0.13698  0.56080  Biso   1.000  O
  O24      1.0000 0.11760  0.86302  0.06080  Biso   1.000  O
  O25      1.0000 0.64360  0.29704  0.95827  Biso   1.000  O
  O26      1.0000 0.85640  0.70296  0.45827  Biso   1.000  O
  O27      1.0000 0.35640  0.79704  0.54173  Biso   1.000  O
  O28      1.0000 0.14360  0.20296  0.04173  Biso   1.000  O
  O29      1.0000 0.35640  0.70296  0.04173  Biso   1.000  O
  O30      1.0000 0.14360  0.29704  0.54173  Biso   1.000  O
  O31      1.0000 0.64360  0.20296  0.45827  Biso   1.000  O
  O32      1.0000 0.85640  0.79704  0.95827  Biso   1.000  O
  O33      1.0000 0.55390  0.31112  0.07865  Biso   1.000  O
  O34      1.0000 0.94610  0.68888  0.57865  Biso   1.000  O
  O35      1.0000 0.44610  0.81112  0.42135  Biso   1.000  O
  O36      1.0000 0.05390  0.18888  0.92135  Biso   1.000  O
  O37      1.0000 0.44610  0.68888  0.92135  Biso   1.000  O
  O38      1.0000 0.05390  0.31112  0.42135  Biso   1.000  O
  O39      1.0000 0.55390  0.18888  0.57865  Biso   1.000  O
  O40      1.0000 0.94610  0.81112  0.07865  Biso   1.000  O
  O41      1.0000 0.66480  0.38211  0.05097  Biso   1.000  O
  O42      1.0000 0.83520  0.61789  0.55097  Biso   1.000  O
  O43      1.0000 0.33520  0.88211  0.44903  Biso   1.000  O
  O44      1.0000 0.16480  0.11789  0.94903  Biso   1.000  O
  O45      1.0000 0.33520  0.61789  0.94903  Biso   1.000  O
  O46      1.0000 0.16480  0.38211  0.44903  Biso   1.000  O
  O47      1.0000 0.66480  0.11789  0.55097  Biso   1.000  O
  O48      1.0000 0.83520  0.88211  0.05097  Biso   1.000  O
  O49      1.0000 0.47930  0.25664  0.00411  Biso   1.000  O
  O50      1.0000 0.02070  0.74336  0.50411  Biso   1.000  O
  O51      1.0000 0.52070  0.75664  0.49589  Biso   1.000  O
  O52      1.0000 0.97930  0.24336  0.99589  Biso   1.000  O
  O53      1.0000 0.52070  0.74336  0.99589  Biso   1.000  O
  O54      1.0000 0.97930  0.25664  0.49589  Biso   1.000  O
  O55      1.0000 0.47930  0.24336  0.50411  Biso   1.000  O
  O56      1.0000 0.02070  0.75664  0.00411  Biso   1.000  O
  O57      1.0000 0.66280  0.42219  0.95700  Biso   1.000  O
  O58      1.0000 0.83720  0.57781  0.45700  Biso   1.000  O
  O59      1.0000 0.33720  0.92219  0.54300  Biso   1.000  O
  O60      1.0000 0.16280  0.07781  0.04300  Biso   1.000  O
  O61      1.0000 0.33720  0.57781  0.04300  Biso   1.000  O
  O62      1.0000 0.16280  0.42219  0.54300  Biso   1.000  O
  O63      1.0000 0.66280  0.07781  0.45700  Biso   1.000  O
  O64      1.0000 0.83720  0.92219  0.95700  Biso   1.000  O
  O65      1.0000 0.47700  0.45199  0.95141  Biso   1.000  O
  O66      1.0000 0.02300  0.54801  0.45141  Biso   1.000  O
  O67      1.0000 0.52300  0.95199  0.54859  Biso   1.000  O
  O68      1.0000 0.97700  0.04801  0.04859  Biso   1.000  O
  O69      1.0000 0.52300  0.54801  0.04859  Biso   1.000  O
  O70      1.0000 0.97700  0.45199  0.54859  Biso   1.000  O
  O71      1.0000 0.47700  0.04801  0.45141  Biso   1.000  O
  O72      1.0000 0.02300  0.95199  0.95141  Biso   1.000  O
  O73      1.0000 0.48300  0.54626  0.94893  Biso   1.000  O
  O74      1.0000 0.01700  0.45374  0.44893  Biso   1.000  O
  O75      1.0000 0.51700  0.04626  0.55107  Biso   1.000  O
  O76      1.0000 0.98300  0.95374  0.05107  Biso   1.000  O
  O77      1.0000 0.51700  0.45374  0.05107  Biso   1.000  O
  O78      1.0000 0.98300  0.54626  0.55107  Biso   1.000  O
  O79      1.0000 0.48300  0.95374  0.44893  Biso   1.000  O
  O80      1.0000 0.01700  0.04626  0.94893  Biso   1.000  O
  C1       1.0000 0.39950  0.42370  0.77900  Biso   1.000  C
  C2       1.0000 0.10050  0.57630  0.27900  Biso   1.000  C
  C3       1.0000 0.60050  0.92370  0.72100  Biso   1.000  C
  C4       1.0000 0.89950  0.07630  0.22100  Biso   1.000  C
  C5       1.0000 0.60050  0.57630  0.22100  Biso   1.000  C
  C6       1.0000 0.89950  0.42370  0.72100  Biso   1.000  C
  C7       1.0000 0.39950  0.07630  0.27900  Biso   1.000  C
  C8       1.0000 0.10050  0.92370  0.77900  Biso   1.000  C
  H1       1.0000 0.39690  0.40210  0.74630  Biso   1.000  H
  H2       1.0000 0.10310  0.59790  0.24630  Biso   1.000  H
  H3       1.0000 0.60310  0.90210  0.75370  Biso   1.000  H
  H4       1.0000 0.89690  0.09790  0.25370  Biso   1.000  H
  H5       1.0000 0.60310  0.59790  0.25370  Biso   1.000  H
  H6       1.0000 0.89690  0.40210  0.75370  Biso   1.000  H
  H7       1.0000 0.39690  0.09790  0.24630  Biso   1.000  H
  H8       1.0000 0.10310  0.90210  0.74630  Biso   1.000  H
  H9       1.0000 0.43150  0.45940  0.77200  Biso   1.000  H
  H10      1.0000 0.06850  0.54060  0.27200  Biso   1.000  H
  H11      1.0000 0.56850  0.95940  0.72800  Biso   1.000  H
  H12      1.0000 0.93150  0.04060  0.22800  Biso   1.000  H
  H13      1.0000 0.56850  0.54060  0.22800  Biso   1.000  H
  H14      1.0000 0.93150  0.45940  0.72800  Biso   1.000  H
  H15      1.0000 0.43150  0.04060  0.27200  Biso   1.000  H
  H16      1.0000 0.06850  0.95940  0.77200  Biso   1.000  H
  C9       1.0000 0.30470  0.43820  0.79600  Biso   1.000  C
  C10      1.0000 0.19530  0.56180  0.29600  Biso   1.000  C
  C11      1.0000 0.69530  0.93820  0.70400  Biso   1.000  C
  C12      1.0000 0.80470  0.06180  0.20400  Biso   1.000  C
  C13      1.0000 0.69530  0.56180  0.20400  Biso   1.000  C
  C14      1.0000 0.80470  0.43820  0.70400  Biso   1.000  C
  C15      1.0000 0.30470  0.06180  0.29600  Biso   1.000  C
  C16      1.0000 0.19530  0.93820  0.79600  Biso   1.000  C
  H17      1.0000 0.30800  0.46920  0.82160  Biso   1.000  H
  H18      1.0000 0.19200  0.53080  0.32160  Biso   1.000  H
  H19      1.0000 0.69200  0.96920  0.67840  Biso   1.000  H
  H20      1.0000 0.80800  0.03080  0.17840  Biso   1.000  H
  H21      1.0000 0.69200  0.53080  0.17840  Biso   1.000  H
  H22      1.0000 0.80800  0.46920  0.67840  Biso   1.000  H
  H23      1.0000 0.30800  0.03080  0.32160  Biso   1.000  H
  H24      1.0000 0.19200  0.96920  0.82160  Biso   1.000  H
  H25      1.0000 0.27260  0.45310  0.76570  Biso   1.000  H
  H26      1.0000 0.22740  0.54690  0.26570  Biso   1.000  H
  H27      1.0000 0.72740  0.95310  0.73430  Biso   1.000  H
  H28      1.0000 0.77260  0.04690  0.23430  Biso   1.000  H
  H29      1.0000 0.72740  0.54690  0.23430  Biso   1.000  H
  H30      1.0000 0.77260  0.45310  0.73430  Biso   1.000  H
  H31      1.0000 0.27260  0.04690  0.26570  Biso   1.000  H
  H32      1.0000 0.22740  0.95310  0.76570  Biso   1.000  H
  C17      1.0000 0.25380  0.39380  0.81760  Biso   1.000  C
  C18      1.0000 0.24620  0.60620  0.31760  Biso   1.000  C
  C19      1.0000 0.74620  0.89380  0.68240  Biso   1.000  C
  C20      1.0000 0.75380  0.10620  0.18240  Biso   1.000  C
  C21      1.0000 0.74620  0.60620  0.18240  Biso   1.000  C
  C22      1.0000 0.75380  0.39380  0.68240  Biso   1.000  C
  C23      1.0000 0.25380  0.10620  0.31760  Biso   1.000  C
  C24      1.0000 0.24620  0.89380  0.81760  Biso   1.000  C
  H33      1.0000 0.26430  0.35830  0.79830  Biso   1.000  H
  H34      1.0000 0.23570  0.64170  0.29830  Biso   1.000  H
  H35      1.0000 0.73570  0.85830  0.70170  Biso   1.000  H
  H36      1.0000 0.76430  0.14170  0.20170  Biso   1.000  H
  H37      1.0000 0.73570  0.64170  0.20170  Biso   1.000  H
  H38      1.0000 0.76430  0.35830  0.70170  Biso   1.000  H
  H39      1.0000 0.26430  0.14170  0.29830  Biso   1.000  H
  H40      1.0000 0.23570  0.85830  0.79830  Biso   1.000  H
  H41      1.0000 0.19040  0.40310  0.81520  Biso   1.000  H
  H42      1.0000 0.30960  0.59690  0.31520  Biso   1.000  H
  H43      1.0000 0.80960  0.90310  0.68480  Biso   1.000  H
  H44      1.0000 0.69040  0.09690  0.18480  Biso   1.000  H
  H45      1.0000 0.80960  0.59690  0.18480  Biso   1.000  H
  H46      1.0000 0.69040  0.40310  0.68480  Biso   1.000  H
  H47      1.0000 0.19040  0.09690  0.31520  Biso   1.000  H
  H48      1.0000 0.30960  0.90310  0.81520  Biso   1.000  H
  C25      1.0000 0.21570  0.38830  0.90530  Biso   1.000  C
  C26      1.0000 0.28430  0.61170  0.40530  Biso   1.000  C
  C27      1.0000 0.78430  0.88830  0.59470  Biso   1.000  C
  C28      1.0000 0.71570  0.11170  0.09470  Biso   1.000  C
  C29      1.0000 0.78430  0.61170  0.09470  Biso   1.000  C
  C30      1.0000 0.71570  0.38830  0.59470  Biso   1.000  C
  C31      1.0000 0.21570  0.11170  0.40530  Biso   1.000  C
  C32      1.0000 0.28430  0.88830  0.90530  Biso   1.000  C
  H49      1.0000 0.15810  0.39390  0.89200  Biso   1.000  H
  H50      1.0000 0.34190  0.60610  0.39200  Biso   1.000  H
  H51      1.0000 0.84190  0.89390  0.60800  Biso   1.000  H
  H52      1.0000 0.65810  0.10610  0.10800  Biso   1.000  H
  H53      1.0000 0.84190  0.60610  0.10800  Biso   1.000  H
  H54      1.0000 0.65810  0.39390  0.60800  Biso   1.000  H
  H55      1.0000 0.15810  0.10610  0.39200  Biso   1.000  H
  H56      1.0000 0.34190  0.89390  0.89200  Biso   1.000  H
  C33      1.0000 0.22310  0.38350  0.95920  Biso   1.000  C
  C34      1.0000 0.27690  0.61650  0.45920  Biso   1.000  C
  C35      1.0000 0.77690  0.88350  0.54080  Biso   1.000  C
  C36      1.0000 0.72310  0.11650  0.04080  Biso   1.000  C
  C37      1.0000 0.77690  0.61650  0.04080  Biso   1.000  C
  C38      1.0000 0.72310  0.38350  0.54080  Biso   1.000  C
  C39      1.0000 0.22310  0.11650  0.45920  Biso   1.000  C
  C40      1.0000 0.27690  0.88350  0.95920  Biso   1.000  C
  C41      1.0000 0.14610  0.39470  0.98850  Biso   1.000  C
  C42      1.0000 0.35390  0.60530  0.48850  Biso   1.000  C
  C43      1.0000 0.85390  0.89470  0.51150  Biso   1.000  C
  C44      1.0000 0.64610  0.10530  0.01150  Biso   1.000  C
  C45      1.0000 0.85390  0.60530  0.01150  Biso   1.000  C
  C46      1.0000 0.64610  0.39470  0.51150  Biso   1.000  C
  C47      1.0000 0.14610  0.10530  0.48850  Biso   1.000  C
  C48      1.0000 0.35390  0.89470  0.98850  Biso   1.000  C
  H57      1.0000 0.09220  0.40170  0.97100  Biso   1.000  H
  H58      1.0000 0.40780  0.59830  0.47100  Biso   1.000  H
  H59      1.0000 0.90780  0.90170  0.52900  Biso   1.000  H
  H60      1.0000 0.59220  0.09830  0.02900  Biso   1.000  H
  H61      1.0000 0.90780  0.59830  0.02900  Biso   1.000  H
  H62      1.0000 0.59220  0.40170  0.52900  Biso   1.000  H
  H63      1.0000 0.09220  0.09830  0.47100  Biso   1.000  H
  H64      1.0000 0.40780  0.90170  0.97100  Biso   1.000  H
  C49      1.0000 0.14740  0.39560  0.04080  Biso   1.000  C
  C50      1.0000 0.35260  0.60440  0.54080  Biso   1.000  C
  C51      1.0000 0.85260  0.89560  0.45920  Biso   1.000  C
  C52      1.0000 0.64740  0.10440  0.95920  Biso   1.000  C
  C53      1.0000 0.85260  0.60440  0.95920  Biso   1.000  C
  C54      1.0000 0.64740  0.39560  0.45920  Biso   1.000  C
  C55      1.0000 0.14740  0.10440  0.54080  Biso   1.000  C
  C56      1.0000 0.35260  0.89560  0.04080  Biso   1.000  C
  H65      1.0000 0.09520  0.40320  0.05970  Biso   1.000  H
  H66      1.0000 0.40480  0.59680  0.55970  Biso   1.000  H
  H67      1.0000 0.90480  0.90320  0.44030  Biso   1.000  H
  H68      1.0000 0.59520  0.09680  0.94030  Biso   1.000  H
  H69      1.0000 0.90480  0.59680  0.94030  Biso   1.000  H
  H70      1.0000 0.59520  0.40320  0.44030  Biso   1.000  H
  H71      1.0000 0.09520  0.09680  0.55970  Biso   1.000  H
  H72      1.0000 0.40480  0.90320  0.05970  Biso   1.000  H
  C57      1.0000 0.22590  0.38530  0.06580  Biso   1.000  C
  C58      1.0000 0.27410  0.61470  0.56580  Biso   1.000  C
  C59      1.0000 0.77410  0.88530  0.43420  Biso   1.000  C
  C60      1.0000 0.72590  0.11470  0.93420  Biso   1.000  C
  C61      1.0000 0.77410  0.61470  0.93420  Biso   1.000  C
  C62      1.0000 0.72590  0.38530  0.43420  Biso   1.000  C
  C63      1.0000 0.22590  0.11470  0.56580  Biso   1.000  C
  C64      1.0000 0.27410  0.88530  0.06580  Biso   1.000  C
  H73      1.0000 0.22770  0.38630  0.10240  Biso   1.000  H
  H74      1.0000 0.27230  0.61370  0.60240  Biso   1.000  H
  H75      1.0000 0.77230  0.88630  0.39760  Biso   1.000  H
  H76      1.0000 0.72770  0.11370  0.89760  Biso   1.000  H
  H77      1.0000 0.77230  0.61370  0.89760  Biso   1.000  H
  H78      1.0000 0.72770  0.38630  0.39760  Biso   1.000  H
  H79      1.0000 0.22770  0.11370  0.60240  Biso   1.000  H
  H80      1.0000 0.27230  0.88630  0.10240  Biso   1.000  H
  C65      1.0000 0.30160  0.37380  0.03870  Biso   1.000  C
  C66      1.0000 0.19840  0.62620  0.53870  Biso   1.000  C
  C67      1.0000 0.69840  0.87380  0.46130  Biso   1.000  C
  C68      1.0000 0.80160  0.12620  0.96130  Biso   1.000  C
  C69      1.0000 0.69840  0.62620  0.96130  Biso   1.000  C
  C70      1.0000 0.80160  0.37380  0.46130  Biso   1.000  C
  C71      1.0000 0.30160  0.12620  0.53870  Biso   1.000  C
  C72      1.0000 0.19840  0.87380  0.03870  Biso   1.000  C
  C73      1.0000 0.30110  0.37150  0.98460  Biso   1.000  C
  C74      1.0000 0.19890  0.62850  0.48460  Biso   1.000  C
  C75      1.0000 0.69890  0.87150  0.51540  Biso   1.000  C
  C76      1.0000 0.80110  0.12850  0.01540  Biso   1.000  C
  C77      1.0000 0.69890  0.62850  0.01540  Biso   1.000  C
  C78      1.0000 0.80110  0.37150  0.51540  Biso   1.000  C
  C79      1.0000 0.30110  0.12850  0.48460  Biso   1.000  C
  C80      1.0000 0.19890  0.87150  0.98460  Biso   1.000  C
  C81      1.0000 0.58420  0.32740  0.88110  Biso   1.000  C
  C82      1.0000 0.91580  0.67260  0.38110  Biso   1.000  C
  C83      1.0000 0.41580  0.82740  0.61890  Biso   1.000  C
  C84      1.0000 0.08420  0.17260  0.11890  Biso   1.000  C
  C85      1.0000 0.41580  0.67260  0.11890  Biso   1.000  C
  C86      1.0000 0.08420  0.32740  0.61890  Biso   1.000  C
  C87      1.0000 0.58420  0.17260  0.38110  Biso   1.000  C
  C88      1.0000 0.91580  0.82740  0.88110  Biso   1.000  C
  C89      1.0000 0.65430  0.30010  0.90590  Biso   1.000  C
  C90      1.0000 0.84570  0.69990  0.40590  Biso   1.000  C
  C91      1.0000 0.34570  0.80010  0.59410  Biso   1.000  C
  C92      1.0000 0.15430  0.19990  0.09410  Biso   1.000  C
  C93      1.0000 0.34570  0.69990  0.09410  Biso   1.000  C
  C94      1.0000 0.15430  0.30010  0.59410  Biso   1.000  C
  C95      1.0000 0.65430  0.19990  0.40590  Biso   1.000  C
  C96      1.0000 0.84570  0.80010  0.90590  Biso   1.000  C
  C97      1.0000 0.72550  0.28010  0.87850  Biso   1.000  C
  C98      1.0000 0.77450  0.71990  0.37850  Biso   1.000  C
  C99      1.0000 0.27450  0.78010  0.62150  Biso   1.000  C
  C100     1.0000 0.22550  0.21990  0.12150  Biso   1.000  C
  C101     1.0000 0.27450  0.71990  0.12150  Biso   1.000  C
  C102     1.0000 0.22550  0.28010  0.62150  Biso   1.000  C
  C103     1.0000 0.72550  0.21990  0.37850  Biso   1.000  C
  C104     1.0000 0.77450  0.78010  0.87850  Biso   1.000  C
  H81      1.0000 0.77180  0.26070  0.89570  Biso   1.000  H
  H82      1.0000 0.72820  0.73930  0.39570  Biso   1.000  H
  H83      1.0000 0.22820  0.76070  0.60430  Biso   1.000  H
  H84      1.0000 0.27180  0.23930  0.10430  Biso   1.000  H
  H85      1.0000 0.22820  0.73930  0.10430  Biso   1.000  H
  H86      1.0000 0.27180  0.26070  0.60430  Biso   1.000  H
  H87      1.0000 0.77180  0.23930  0.39570  Biso   1.000  H
  H88      1.0000 0.72820  0.76070  0.89570  Biso   1.000  H
  C105     1.0000 0.72910  0.28870  0.82500  Biso   1.000  C
  C106     1.0000 0.77090  0.71130  0.32500  Biso   1.000  C
  C107     1.0000 0.27090  0.78870  0.67500  Biso   1.000  C
  C108     1.0000 0.22910  0.21130  0.17500  Biso   1.000  C
  C109     1.0000 0.27090  0.71130  0.17500  Biso   1.000  C
  C110     1.0000 0.22910  0.28870  0.67500  Biso   1.000  C
  C111     1.0000 0.72910  0.21130  0.32500  Biso   1.000  C
  C112     1.0000 0.77090  0.78870  0.82500  Biso   1.000  C
  H89      1.0000 0.77770  0.27490  0.80560  Biso   1.000  H
  H90      1.0000 0.72230  0.72510  0.30560  Biso   1.000  H
  H91      1.0000 0.22230  0.77490  0.69440  Biso   1.000  H
  H92      1.0000 0.27770  0.22510  0.19440  Biso   1.000  H
  H93      1.0000 0.22230  0.72510  0.19440  Biso   1.000  H
  H94      1.0000 0.27770  0.27490  0.69440  Biso   1.000  H
  H95      1.0000 0.77770  0.22510  0.30560  Biso   1.000  H
  H96      1.0000 0.72230  0.77490  0.80560  Biso   1.000  H
  C113     1.0000 0.66200  0.31720  0.80080  Biso   1.000  C
  C114     1.0000 0.83800  0.68280  0.30080  Biso   1.000  C
  C115     1.0000 0.33800  0.81720  0.69920  Biso   1.000  C
  C116     1.0000 0.16200  0.18280  0.19920  Biso   1.000  C
  C117     1.0000 0.33800  0.68280  0.19920  Biso   1.000  C
  C118     1.0000 0.16200  0.31720  0.69920  Biso   1.000  C
  C119     1.0000 0.66200  0.18280  0.30080  Biso   1.000  C
  C120     1.0000 0.83800  0.81720  0.80080  Biso   1.000  C
  H97      1.0000 0.66560  0.32360  0.76470  Biso   1.000  H
  H98      1.0000 0.83440  0.67640  0.26470  Biso   1.000  H
  H99      1.0000 0.33440  0.82360  0.73530  Biso   1.000  H
  H100     1.0000 0.16560  0.17640  0.23530  Biso   1.000  H
  H101     1.0000 0.33440  0.67640  0.23530  Biso   1.000  H
  H102     1.0000 0.16560  0.32360  0.73530  Biso   1.000  H
  H103     1.0000 0.66560  0.17640  0.26470  Biso   1.000  H
  H104     1.0000 0.83440  0.82360  0.76470  Biso   1.000  H
  C121     1.0000 0.58810  0.33730  0.82790  Biso   1.000  C
  C122     1.0000 0.91190  0.66270  0.32790  Biso   1.000  C
  C123     1.0000 0.41190  0.83730  0.67210  Biso   1.000  C
  C124     1.0000 0.08810  0.16270  0.17210  Biso   1.000  C
  C125     1.0000 0.41190  0.66270  0.17210  Biso   1.000  C
  C126     1.0000 0.08810  0.33730  0.67210  Biso   1.000  C
  C127     1.0000 0.58810  0.16270  0.32790  Biso   1.000  C
  C128     1.0000 0.91190  0.83730  0.82790  Biso   1.000  C
  C129     1.0000 0.52300  0.37090  0.80050  Biso   1.000  C
  C130     1.0000 0.97700  0.62910  0.30050  Biso   1.000  C
  C131     1.0000 0.47700  0.87090  0.69950  Biso   1.000  C
  C132     1.0000 0.02300  0.12910  0.19950  Biso   1.000  C
  C133     1.0000 0.47700  0.62910  0.19950  Biso   1.000  C
  C134     1.0000 0.02300  0.37090  0.69950  Biso   1.000  C
  C135     1.0000 0.52300  0.12910  0.30050  Biso   1.000  C
  C136     1.0000 0.97700  0.87090  0.80050  Biso   1.000  C
  H105     1.0000 0.53640  0.37950  0.76570  Biso   1.000  H
  H106     1.0000 0.96360  0.62050  0.26570  Biso   1.000  H
  H107     1.0000 0.46360  0.87950  0.73430  Biso   1.000  H
  H108     1.0000 0.03640  0.12050  0.23430  Biso   1.000  H
  H109     1.0000 0.46360  0.62050  0.23430  Biso   1.000  H
  H110     1.0000 0.03640  0.37950  0.73430  Biso   1.000  H
  H111     1.0000 0.53640  0.12050  0.26570  Biso   1.000  H
  H112     1.0000 0.96360  0.87950  0.76570  Biso   1.000  H
  C137     1.0000 0.70380  0.26170  0.98610  Biso   1.000  C
  C138     1.0000 0.79620  0.73830  0.48610  Biso   1.000  C
  C139     1.0000 0.29620  0.76170  0.51390  Biso   1.000  C
  C140     1.0000 0.20380  0.23830  0.01390  Biso   1.000  C
  C141     1.0000 0.29620  0.73830  0.01390  Biso   1.000  C
  C142     1.0000 0.20380  0.26170  0.51390  Biso   1.000  C
  C143     1.0000 0.70380  0.23830  0.48610  Biso   1.000  C
  C144     1.0000 0.79620  0.76170  0.98610  Biso   1.000  C
  H113     1.0000 0.68760  0.26140  0.02260  Biso   1.000  H
  H114     1.0000 0.81240  0.73860  0.52260  Biso   1.000  H
  H115     1.0000 0.31240  0.76140  0.47740  Biso   1.000  H
  H116     1.0000 0.18760  0.23860  0.97740  Biso   1.000  H
  H117     1.0000 0.31240  0.73860  0.97740  Biso   1.000  H
  H118     1.0000 0.18760  0.26140  0.47740  Biso   1.000  H
  H119     1.0000 0.68760  0.23860  0.52260  Biso   1.000  H
  H120     1.0000 0.81240  0.76140  0.02260  Biso   1.000  H
  H121     1.0000 0.76370  0.27660  0.98230  Biso   1.000  H
  H122     1.0000 0.73630  0.72340  0.48230  Biso   1.000  H
  H123     1.0000 0.23630  0.77660  0.51770  Biso   1.000  H
  H124     1.0000 0.26370  0.22340  0.01770  Biso   1.000  H
  H125     1.0000 0.23630  0.72340  0.01770  Biso   1.000  H
  H126     1.0000 0.26370  0.27660  0.51770  Biso   1.000  H
  H127     1.0000 0.76370  0.22340  0.48230  Biso   1.000  H
  H128     1.0000 0.73630  0.77660  0.98230  Biso   1.000  H
  H129     1.0000 0.70120  0.22310  0.97240  Biso   1.000  H
  H130     1.0000 0.79880  0.77690  0.47240  Biso   1.000  H
  H131     1.0000 0.29880  0.72310  0.52760  Biso   1.000  H
  H132     1.0000 0.20120  0.27690  0.02760  Biso   1.000  H
  H133     1.0000 0.29880  0.77690  0.02760  Biso   1.000  H
  H134     1.0000 0.20120  0.22310  0.52760  Biso   1.000  H
  H135     1.0000 0.70120  0.27690  0.47240  Biso   1.000  H
  H136     1.0000 0.79880  0.72310  0.97240  Biso   1.000  H
  C145     1.0000 0.38880  0.36820  0.11565  Biso   1.000  C
  C146     1.0000 0.11120  0.63180  0.61565  Biso   1.000  C
  C147     1.0000 0.61120  0.86820  0.38435  Biso   1.000  C
  C148     1.0000 0.88880  0.13180  0.88435  Biso   1.000  C
  C149     1.0000 0.61120  0.63180  0.88435  Biso   1.000  C
  C150     1.0000 0.88880  0.36820  0.38435  Biso   1.000  C
  C151     1.0000 0.38880  0.13180  0.61565  Biso   1.000  C
  C152     1.0000 0.11120  0.86820  0.11565  Biso   1.000  C
  H137     1.0000 0.45010  0.36270  0.12630  Biso   1.000  H
  H138     1.0000 0.04990  0.63730  0.62630  Biso   1.000  H
  H139     1.0000 0.54990  0.86270  0.37370  Biso   1.000  H
  H140     1.0000 0.95010  0.13730  0.87370  Biso   1.000  H
  H141     1.0000 0.54990  0.63730  0.87370  Biso   1.000  H
  H142     1.0000 0.95010  0.36270  0.37370  Biso   1.000  H
  H143     1.0000 0.45010  0.13730  0.62630  Biso   1.000  H
  H144     1.0000 0.04990  0.86270  0.12630  Biso   1.000  H
  H145     1.0000 0.35160  0.33950  0.13200  Biso   1.000  H
  H146     1.0000 0.14840  0.66050  0.63200  Biso   1.000  H
  H147     1.0000 0.64840  0.83950  0.36800  Biso   1.000  H
  H148     1.0000 0.85160  0.16050  0.86800  Biso   1.000  H
  H149     1.0000 0.64840  0.66050  0.86800  Biso   1.000  H
  H150     1.0000 0.85160  0.33950  0.36800  Biso   1.000  H
  H151     1.0000 0.35160  0.16050  0.63200  Biso   1.000  H
  H152     1.0000 0.14840  0.83950  0.13200  Biso   1.000  H
  H153     1.0000 0.36910  0.40600  0.12610  Biso   1.000  H
  H154     1.0000 0.13090  0.59400  0.62610  Biso   1.000  H
  H155     1.0000 0.63090  0.90600  0.37390  Biso   1.000  H
  H156     1.0000 0.86910  0.09400  0.87390  Biso   1.000  H
  H157     1.0000 0.63090  0.59400  0.87390  Biso   1.000  H
  H158     1.0000 0.86910  0.40600  0.37390  Biso   1.000  H
  H159     1.0000 0.36910  0.09400  0.62610  Biso   1.000  H
  H160     1.0000 0.13090  0.90600  0.12610  Biso   1.000  H
  C153     1.0000 0.74150  0.42790  0.98360  Biso   1.000  C
  C154     1.0000 0.75850  0.57210  0.48360  Biso   1.000  C
  C155     1.0000 0.25850  0.92790  0.51640  Biso   1.000  C
  C156     1.0000 0.24150  0.07210  0.01640  Biso   1.000  C
  C157     1.0000 0.25850  0.57210  0.01640  Biso   1.000  C
  C158     1.0000 0.24150  0.42790  0.51640  Biso   1.000  C
  C159     1.0000 0.74150  0.07210  0.48360  Biso   1.000  C
  C160     1.0000 0.75850  0.92790  0.98360  Biso   1.000  C
  C161     1.0000 0.81640  0.45150  0.96420  Biso   1.000  C
  C162     1.0000 0.68360  0.54850  0.46420  Biso   1.000  C
  C163     1.0000 0.18360  0.95150  0.53580  Biso   1.000  C
  C164     1.0000 0.31640  0.04850  0.03580  Biso   1.000  C
  C165     1.0000 0.18360  0.54850  0.03580  Biso   1.000  C
  C166     1.0000 0.31640  0.45150  0.53580  Biso   1.000  C
  C167     1.0000 0.81640  0.04850  0.46420  Biso   1.000  C
  C168     1.0000 0.68360  0.95150  0.96420  Biso   1.000  C
  H161     1.0000 0.81810  0.46340  0.92920  Biso   1.000  H
  H162     1.0000 0.68190  0.53660  0.42920  Biso   1.000  H
  H163     1.0000 0.18190  0.96340  0.57080  Biso   1.000  H
  H164     1.0000 0.31810  0.03660  0.07080  Biso   1.000  H
  H165     1.0000 0.18190  0.53660  0.07080  Biso   1.000  H
  H166     1.0000 0.31810  0.46340  0.57080  Biso   1.000  H
  H167     1.0000 0.81810  0.03660  0.42920  Biso   1.000  H
  H168     1.0000 0.68190  0.96340  0.92920  Biso   1.000  H
  C169     1.0000 0.89060  0.45820  0.99530  Biso   1.000  C
  C170     1.0000 0.60940  0.54180  0.49530  Biso   1.000  C
  C171     1.0000 0.10940  0.95820  0.50470  Biso   1.000  C
  C172     1.0000 0.39060  0.04180  0.00470  Biso   1.000  C
  C173     1.0000 0.10940  0.54180  0.00470  Biso   1.000  C
  C174     1.0000 0.39060  0.45820  0.50470  Biso   1.000  C
  C175     1.0000 0.89060  0.04180  0.49530  Biso   1.000  C
  C176     1.0000 0.60940  0.95820  0.99530  Biso   1.000  C
  H169     1.0000 0.94350  0.47310  0.98120  Biso   1.000  H
  H170     1.0000 0.55650  0.52690  0.48120  Biso   1.000  H
  H171     1.0000 0.05650  0.97310  0.51880  Biso   1.000  H
  H172     1.0000 0.44350  0.02690  0.01880  Biso   1.000  H
  H173     1.0000 0.05650  0.52690  0.01880  Biso   1.000  H
  H174     1.0000 0.44350  0.47310  0.51880  Biso   1.000  H
  H175     1.0000 0.94350  0.02690  0.48120  Biso   1.000  H
  H176     1.0000 0.55650  0.97310  0.98120  Biso   1.000  H
  C177     1.0000 0.88660  0.44310  0.04590  Biso   1.000  C
  C178     1.0000 0.61340  0.55690  0.54590  Biso   1.000  C
  C179     1.0000 0.11340  0.94310  0.45410  Biso   1.000  C
  C180     1.0000 0.38660  0.05690  0.95410  Biso   1.000  C
  C181     1.0000 0.11340  0.55690  0.95410  Biso   1.000  C
  C182     1.0000 0.38660  0.44310  0.45410  Biso   1.000  C
  C183     1.0000 0.88660  0.05690  0.54590  Biso   1.000  C
  C184     1.0000 0.61340  0.94310  0.04590  Biso   1.000  C
  H177     1.0000 0.93640  0.44940  0.06730  Biso   1.000  H
  H178     1.0000 0.56360  0.55060  0.56730  Biso   1.000  H
  H179     1.0000 0.06360  0.94940  0.43270  Biso   1.000  H
  H180     1.0000 0.43640  0.05060  0.93270  Biso   1.000  H
  H181     1.0000 0.06360  0.55060  0.93270  Biso   1.000  H
  H182     1.0000 0.43640  0.44940  0.43270  Biso   1.000  H
  H183     1.0000 0.93640  0.05060  0.56730  Biso   1.000  H
  H184     1.0000 0.56360  0.94940  0.06730  Biso   1.000  H
  C185     1.0000 0.81000  0.41850  0.06740  Biso   1.000  C
  C186     1.0000 0.69000  0.58150  0.56740  Biso   1.000  C
  C187     1.0000 0.19000  0.91850  0.43260  Biso   1.000  C
  C188     1.0000 0.31000  0.08150  0.93260  Biso   1.000  C
  C189     1.0000 0.19000  0.58150  0.93260  Biso   1.000  C
  C190     1.0000 0.31000  0.41850  0.43260  Biso   1.000  C
  C191     1.0000 0.81000  0.08150  0.56740  Biso   1.000  C
  C192     1.0000 0.69000  0.91850  0.06740  Biso   1.000  C
  C193     1.0000 0.73700  0.40800  0.03540  Biso   1.000  C
  C194     1.0000 0.76300  0.59200  0.53540  Biso   1.000  C
  C195     1.0000 0.26300  0.90800  0.46460  Biso   1.000  C
  C196     1.0000 0.23700  0.09200  0.96460  Biso   1.000  C
  C197     1.0000 0.26300  0.59200  0.96460  Biso   1.000  C
  C198     1.0000 0.23700  0.40800  0.46460  Biso   1.000  C
  C199     1.0000 0.73700  0.09200  0.53540  Biso   1.000  C
  C200     1.0000 0.76300  0.90800  0.03540  Biso   1.000  C
  C201     1.0000 0.80690  0.41180  0.12250  Biso   1.000  C
  C202     1.0000 0.69310  0.58820  0.62250  Biso   1.000  C
  C203     1.0000 0.19310  0.91180  0.37750  Biso   1.000  C
  C204     1.0000 0.30690  0.08820  0.87750  Biso   1.000  C
  C205     1.0000 0.19310  0.58820  0.87750  Biso   1.000  C
  C206     1.0000 0.30690  0.41180  0.37750  Biso   1.000  C
  C207     1.0000 0.80690  0.08820  0.62250  Biso   1.000  C
  C208     1.0000 0.69310  0.91180  0.12250  Biso   1.000  C
  H185     1.0000 0.85720  0.42470  0.14090  Biso   1.000  H
  H186     1.0000 0.64280  0.57530  0.64090  Biso   1.000  H
  H187     1.0000 0.14280  0.92470  0.35910  Biso   1.000  H
  H188     1.0000 0.35720  0.07530  0.85910  Biso   1.000  H
  H189     1.0000 0.14280  0.57530  0.85910  Biso   1.000  H
  H190     1.0000 0.35720  0.42470  0.35910  Biso   1.000  H
  H191     1.0000 0.85720  0.07530  0.64090  Biso   1.000  H
  H192     1.0000 0.64280  0.92470  0.14090  Biso   1.000  H
  C209     1.0000 0.75210  0.39950  0.20650  Biso   1.000  C
  C210     1.0000 0.74790  0.60050  0.70650  Biso   1.000  C
  C211     1.0000 0.24790  0.89950  0.29350  Biso   1.000  C
  C212     1.0000 0.25210  0.10050  0.79350  Biso   1.000  C
  C213     1.0000 0.24790  0.60050  0.79350  Biso   1.000  C
  C214     1.0000 0.25210  0.39950  0.29350  Biso   1.000  C
  C215     1.0000 0.75210  0.10050  0.70650  Biso   1.000  C
  C216     1.0000 0.74790  0.89950  0.20650  Biso   1.000  C
  H193     1.0000 0.71690  0.43320  0.21620  Biso   1.000  H
  H194     1.0000 0.78310  0.56680  0.71620  Biso   1.000  H
  H195     1.0000 0.28310  0.93320  0.28380  Biso   1.000  H
  H196     1.0000 0.21690  0.06680  0.78380  Biso   1.000  H
  H197     1.0000 0.28310  0.56680  0.78380  Biso   1.000  H
  H198     1.0000 0.21690  0.43320  0.28380  Biso   1.000  H
  H199     1.0000 0.71690  0.06680  0.71620  Biso   1.000  H
  H200     1.0000 0.78310  0.93320  0.21620  Biso   1.000  H
  H201     1.0000 0.81430  0.40750  0.21520  Biso   1.000  H
  H202     1.0000 0.68570  0.59250  0.71520  Biso   1.000  H
  H203     1.0000 0.18570  0.90750  0.28480  Biso   1.000  H
  H204     1.0000 0.31430  0.09250  0.78480  Biso   1.000  H
  H205     1.0000 0.18570  0.59250  0.78480  Biso   1.000  H
  H206     1.0000 0.31430  0.40750  0.28480  Biso   1.000  H
  H207     1.0000 0.81430  0.09250  0.71520  Biso   1.000  H
  H208     1.0000 0.68570  0.90750  0.21520  Biso   1.000  H
  C217     1.0000 0.72100  0.34930  0.23740  Biso   1.000  C
  C218     1.0000 0.77900  0.65070  0.73740  Biso   1.000  C
  C219     1.0000 0.27900  0.84930  0.26260  Biso   1.000  C
  C220     1.0000 0.22100  0.15070  0.76260  Biso   1.000  C
  C221     1.0000 0.27900  0.65070  0.76260  Biso   1.000  C
  C222     1.0000 0.22100  0.34930  0.26260  Biso   1.000  C
  C223     1.0000 0.72100  0.15070  0.73740  Biso   1.000  C
  C224     1.0000 0.77900  0.84930  0.23740  Biso   1.000  C
  H209     1.0000 0.75330  0.31530  0.22560  Biso   1.000  H
  H210     1.0000 0.74670  0.68470  0.72560  Biso   1.000  H
  H211     1.0000 0.24670  0.81530  0.27440  Biso   1.000  H
  H212     1.0000 0.25330  0.18470  0.77440  Biso   1.000  H
  H213     1.0000 0.24670  0.68470  0.77440  Biso   1.000  H
  H214     1.0000 0.25330  0.31530  0.27440  Biso   1.000  H
  H215     1.0000 0.75330  0.18470  0.72560  Biso   1.000  H
  H216     1.0000 0.74670  0.81530  0.22560  Biso   1.000  H
  H217     1.0000 0.73610  0.35560  0.27400  Biso   1.000  H
  H218     1.0000 0.76390  0.64440  0.77400  Biso   1.000  H
  H219     1.0000 0.26390  0.85560  0.22600  Biso   1.000  H
  H220     1.0000 0.23610  0.14440  0.72600  Biso   1.000  H
  H221     1.0000 0.26390  0.64440  0.72600  Biso   1.000  H
  H222     1.0000 0.23610  0.35560  0.22600  Biso   1.000  H
  H223     1.0000 0.73610  0.14440  0.77400  Biso   1.000  H
  H224     1.0000 0.76390  0.85560  0.27400  Biso   1.000  H
  C225     1.0000 0.62430  0.33810  0.23340  Biso   1.000  C
  C226     1.0000 0.87570  0.66190  0.73340  Biso   1.000  C
  C227     1.0000 0.37570  0.83810  0.26660  Biso   1.000  C
  C228     1.0000 0.12430  0.16190  0.76660  Biso   1.000  C
  C229     1.0000 0.37570  0.66190  0.76660  Biso   1.000  C
  C230     1.0000 0.12430  0.33810  0.26660  Biso   1.000  C
  C231     1.0000 0.62430  0.16190  0.73340  Biso   1.000  C
  C232     1.0000 0.87570  0.83810  0.23340  Biso   1.000  C
  H225     1.0000 0.60620  0.31160  0.26100  Biso   1.000  H
  H226     1.0000 0.89380  0.68840  0.76100  Biso   1.000  H
  H227     1.0000 0.39380  0.81160  0.23900  Biso   1.000  H
  H228     1.0000 0.10620  0.18840  0.73900  Biso   1.000  H
  H229     1.0000 0.39380  0.68840  0.73900  Biso   1.000  H
  H230     1.0000 0.10620  0.31160  0.23900  Biso   1.000  H
  H231     1.0000 0.60620  0.18840  0.76100  Biso   1.000  H
  H232     1.0000 0.89380  0.81160  0.26100  Biso   1.000  H
  H233     1.0000 0.59150  0.37390  0.23810  Biso   1.000  H
  H234     1.0000 0.90850  0.62610  0.73810  Biso   1.000  H
  H235     1.0000 0.40850  0.87390  0.26190  Biso   1.000  H
  H236     1.0000 0.09150  0.12610  0.76190  Biso   1.000  H
  H237     1.0000 0.40850  0.62610  0.76190  Biso   1.000  H
  H238     1.0000 0.09150  0.37390  0.26190  Biso   1.000  H
  H239     1.0000 0.59150  0.12610  0.73810  Biso   1.000  H
  H240     1.0000 0.90850  0.87390  0.23810  Biso   1.000  H
  C233     1.0000 0.55850  0.26730  0.18330  Biso   1.000  C
  C234     1.0000 0.94150  0.73270  0.68330  Biso   1.000  C
  C235     1.0000 0.44150  0.76730  0.31670  Biso   1.000  C
  C236     1.0000 0.05850  0.23270  0.81670  Biso   1.000  C
  C237     1.0000 0.44150  0.73270  0.81670  Biso   1.000  C
  C238     1.0000 0.05850  0.26730  0.31670  Biso   1.000  C
  C239     1.0000 0.55850  0.23270  0.68330  Biso   1.000  C
  C240     1.0000 0.94150  0.76730  0.18330  Biso   1.000  C
  H241     1.0000 0.54760  0.25110  0.21620  Biso   1.000  H
  H242     1.0000 0.95240  0.74890  0.71620  Biso   1.000  H
  H243     1.0000 0.45240  0.75110  0.28380  Biso   1.000  H
  H244     1.0000 0.04760  0.24890  0.78380  Biso   1.000  H
  H245     1.0000 0.45240  0.74890  0.78380  Biso   1.000  H
  H246     1.0000 0.04760  0.25110  0.28380  Biso   1.000  H
  H247     1.0000 0.54760  0.24890  0.71620  Biso   1.000  H
  H248     1.0000 0.95240  0.75110  0.21620  Biso   1.000  H
  C241     1.0000 0.52350  0.23680  0.13980  Biso   1.000  C
  C242     1.0000 0.97650  0.76320  0.63980  Biso   1.000  C
  C243     1.0000 0.47650  0.73680  0.36020  Biso   1.000  C
  C244     1.0000 0.02350  0.26320  0.86020  Biso   1.000  C
  C245     1.0000 0.47650  0.76320  0.86020  Biso   1.000  C
  C246     1.0000 0.02350  0.23680  0.36020  Biso   1.000  C
  C247     1.0000 0.52350  0.26320  0.63980  Biso   1.000  C
  C248     1.0000 0.97650  0.73680  0.13980  Biso   1.000  C
  C249     1.0000 0.48640  0.18320  0.14760  Biso   1.000  C
  C250     1.0000 0.01360  0.81680  0.64760  Biso   1.000  C
  C251     1.0000 0.51360  0.68320  0.35240  Biso   1.000  C
  C252     1.0000 0.98640  0.31680  0.85240  Biso   1.000  C
  C253     1.0000 0.51360  0.81680  0.85240  Biso   1.000  C
  C254     1.0000 0.98640  0.18320  0.35240  Biso   1.000  C
  C255     1.0000 0.48640  0.31680  0.64760  Biso   1.000  C
  C256     1.0000 0.01360  0.68320  0.14760  Biso   1.000  C
  H249     1.0000 0.48720  0.16730  0.18110  Biso   1.000  H
  H250     1.0000 0.01280  0.83270  0.68110  Biso   1.000  H
  H251     1.0000 0.51280  0.66730  0.31890  Biso   1.000  H
  H252     1.0000 0.98720  0.33270  0.81890  Biso   1.000  H
  H253     1.0000 0.51280  0.83270  0.81890  Biso   1.000  H
  H254     1.0000 0.98720  0.16730  0.31890  Biso   1.000  H
  H255     1.0000 0.48720  0.33270  0.68110  Biso   1.000  H
  H256     1.0000 0.01280  0.66730  0.18110  Biso   1.000  H
  C257     1.0000 0.44920  0.15330  0.10850  Biso   1.000  C
  C258     1.0000 0.05080  0.84670  0.60850  Biso   1.000  C
  C259     1.0000 0.55080  0.65330  0.39150  Biso   1.000  C
  C260     1.0000 0.94920  0.34670  0.89150  Biso   1.000  C
  C261     1.0000 0.55080  0.84670  0.89150  Biso   1.000  C
  C262     1.0000 0.94920  0.15330  0.39150  Biso   1.000  C
  C263     1.0000 0.44920  0.34670  0.60850  Biso   1.000  C
  C264     1.0000 0.05080  0.65330  0.10850  Biso   1.000  C
  H257     1.0000 0.42550  0.11670  0.11490  Biso   1.000  H
  H258     1.0000 0.07450  0.88330  0.61490  Biso   1.000  H
  H259     1.0000 0.57450  0.61670  0.38510  Biso   1.000  H
  H260     1.0000 0.92550  0.38330  0.88510  Biso   1.000  H
  H261     1.0000 0.57450  0.88330  0.88510  Biso   1.000  H
  H262     1.0000 0.92550  0.11670  0.38510  Biso   1.000  H
  H263     1.0000 0.42550  0.38330  0.61490  Biso   1.000  H
  H264     1.0000 0.07450  0.61670  0.11490  Biso   1.000  H
  C265     1.0000 0.44610  0.17620  0.05960  Biso   1.000  C
  C266     1.0000 0.05390  0.82380  0.55960  Biso   1.000  C
  C267     1.0000 0.55390  0.67620  0.44040  Biso   1.000  C
  C268     1.0000 0.94610  0.32380  0.94040  Biso   1.000  C
  C269     1.0000 0.55390  0.82380  0.94040  Biso   1.000  C
  C270     1.0000 0.94610  0.17620  0.44040  Biso   1.000  C
  C271     1.0000 0.44610  0.32380  0.55960  Biso   1.000  C
  C272     1.0000 0.05390  0.67620  0.05960  Biso   1.000  C
  H265     1.0000 0.42050  0.15530  0.03220  Biso   1.000  H
  H266     1.0000 0.07950  0.84470  0.53220  Biso   1.000  H
  H267     1.0000 0.57950  0.65530  0.46780  Biso   1.000  H
  H268     1.0000 0.92050  0.34470  0.96780  Biso   1.000  H
  H269     1.0000 0.57950  0.84470  0.96780  Biso   1.000  H
  H270     1.0000 0.92050  0.15530  0.46780  Biso   1.000  H
  H271     1.0000 0.42050  0.34470  0.53220  Biso   1.000  H
  H272     1.0000 0.07950  0.65530  0.03220  Biso   1.000  H
  C273     1.0000 0.47980  0.22890  0.05060  Biso   1.000  C
  C274     1.0000 0.02020  0.77110  0.55060  Biso   1.000  C
  C275     1.0000 0.52020  0.72890  0.44940  Biso   1.000  C
  C276     1.0000 0.97980  0.27110  0.94940  Biso   1.000  C
  C277     1.0000 0.52020  0.77110  0.94940  Biso   1.000  C
  C278     1.0000 0.97980  0.22890  0.44940  Biso   1.000  C
  C279     1.0000 0.47980  0.27110  0.55060  Biso   1.000  C
  C280     1.0000 0.02020  0.72890  0.05060  Biso   1.000  C
  C281     1.0000 0.52120  0.26030  0.09030  Biso   1.000  C
  C282     1.0000 0.97880  0.73970  0.59030  Biso   1.000  C
  C283     1.0000 0.47880  0.76030  0.40970  Biso   1.000  C
  C284     1.0000 0.02120  0.23970  0.90970  Biso   1.000  C
  C285     1.0000 0.47880  0.73970  0.90970  Biso   1.000  C
  C286     1.0000 0.02120  0.26030  0.40970  Biso   1.000  C
  C287     1.0000 0.52120  0.23970  0.59030  Biso   1.000  C
  C288     1.0000 0.97880  0.76030  0.09030  Biso   1.000  C
  C289     1.0000 0.45790  0.22330  0.95960  Biso   1.000  C
  C290     1.0000 0.04210  0.77670  0.45960  Biso   1.000  C
  C291     1.0000 0.54210  0.72330  0.54040  Biso   1.000  C
  C292     1.0000 0.95790  0.27670  0.04040  Biso   1.000  C
  C293     1.0000 0.54210  0.77670  0.04040  Biso   1.000  C
  C294     1.0000 0.95790  0.22330  0.54040  Biso   1.000  C
  C295     1.0000 0.45790  0.27670  0.45960  Biso   1.000  C
  C296     1.0000 0.04210  0.72330  0.95960  Biso   1.000  C
  H273     1.0000 0.46880  0.24550  0.92830  Biso   1.000  H
  H274     1.0000 0.03120  0.75450  0.42830  Biso   1.000  H
  H275     1.0000 0.53120  0.74550  0.57170  Biso   1.000  H
  H276     1.0000 0.96880  0.25450  0.07170  Biso   1.000  H
  H277     1.0000 0.53120  0.75450  0.07170  Biso   1.000  H
  H278     1.0000 0.96880  0.24550  0.57170  Biso   1.000  H
  H279     1.0000 0.46880  0.25450  0.42830  Biso   1.000  H
  H280     1.0000 0.03120  0.74550  0.92830  Biso   1.000  H
  H281     1.0000 0.39570  0.21240  0.96090  Biso   1.000  H
  H282     1.0000 0.10430  0.78760  0.46090  Biso   1.000  H
  H283     1.0000 0.60430  0.71240  0.53910  Biso   1.000  H
  H284     1.0000 0.89570  0.28760  0.03910  Biso   1.000  H
  H285     1.0000 0.60430  0.78760  0.03910  Biso   1.000  H
  H286     1.0000 0.89570  0.21240  0.53910  Biso   1.000  H
  H287     1.0000 0.39570  0.28760  0.46090  Biso   1.000  H
  H288     1.0000 0.10430  0.71240  0.96090  Biso   1.000  H
  H289     1.0000 0.49460  0.18910  0.95910  Biso   1.000  H
  H290     1.0000 0.00540  0.81090  0.45910  Biso   1.000  H
  H291     1.0000 0.50540  0.68910  0.54090  Biso   1.000  H
  H292     1.0000 0.99460  0.31090  0.04090  Biso   1.000  H
  H293     1.0000 0.50540  0.81090  0.04090  Biso   1.000  H
  H294     1.0000 0.99460  0.18910  0.54090  Biso   1.000  H
  H295     1.0000 0.49460  0.31090  0.45910  Biso   1.000  H
  H296     1.0000 0.00540  0.68910  0.95910  Biso   1.000  H
  C297     1.0000 0.66120  0.44860  0.90650  Biso   1.000  C
  C298     1.0000 0.83880  0.55140  0.40650  Biso   1.000  C
  C299     1.0000 0.33880  0.94860  0.59350  Biso   1.000  C
  C300     1.0000 0.16120  0.05140  0.09350  Biso   1.000  C
  C301     1.0000 0.33880  0.55140  0.09350  Biso   1.000  C
  C302     1.0000 0.16120  0.44860  0.59350  Biso   1.000  C
  C303     1.0000 0.66120  0.05140  0.40650  Biso   1.000  C
  C304     1.0000 0.83880  0.94860  0.90650  Biso   1.000  C
  H297     1.0000 0.60220  0.44470  0.89150  Biso   1.000  H
  H298     1.0000 0.89780  0.55530  0.39150  Biso   1.000  H
  H299     1.0000 0.39780  0.94470  0.60850  Biso   1.000  H
  H300     1.0000 0.10220  0.05530  0.10850  Biso   1.000  H
  H301     1.0000 0.39780  0.55530  0.10850  Biso   1.000  H
  H302     1.0000 0.10220  0.44470  0.60850  Biso   1.000  H
  H303     1.0000 0.60220  0.05530  0.39150  Biso   1.000  H
  H304     1.0000 0.89780  0.94470  0.89150  Biso   1.000  H
  H305     1.0000 0.70430  0.43000  0.88410  Biso   1.000  H
  H306     1.0000 0.79570  0.57000  0.38410  Biso   1.000  H
  H307     1.0000 0.29570  0.93000  0.61590  Biso   1.000  H
  H308     1.0000 0.20430  0.07000  0.11590  Biso   1.000  H
  H309     1.0000 0.29570  0.57000  0.11590  Biso   1.000  H
  H310     1.0000 0.20430  0.43000  0.61590  Biso   1.000  H
  H311     1.0000 0.70430  0.07000  0.38410  Biso   1.000  H
  H312     1.0000 0.79570  0.93000  0.88410  Biso   1.000  H
  H313     1.0000 0.67580  0.48880  0.90980  Biso   1.000  H
  H314     1.0000 0.82420  0.51120  0.40980  Biso   1.000  H
  H315     1.0000 0.32420  0.98880  0.59020  Biso   1.000  H
  H316     1.0000 0.17580  0.01120  0.09020  Biso   1.000  H
  H317     1.0000 0.32420  0.51120  0.09020  Biso   1.000  H
  H318     1.0000 0.17580  0.48880  0.59020  Biso   1.000  H
  H319     1.0000 0.67580  0.01120  0.40980  Biso   1.000  H
  H320     1.0000 0.82420  0.98880  0.90980  Biso   1.000  H
  C305     1.0000 0.30020  0.25040  0.87100  Biso   1.000  C
  C306     1.0000 0.19980  0.74960  0.37100  Biso   1.000  C
  C307     1.0000 0.69980  0.75040  0.62900  Biso   1.000  C
  C308     1.0000 0.80020  0.24960  0.12900  Biso   1.000  C
  C309     1.0000 0.69980  0.74960  0.12900  Biso   1.000  C
  C310     1.0000 0.80020  0.25040  0.62900  Biso   1.000  C
  C311     1.0000 0.30020  0.24960  0.37100  Biso   1.000  C
  C312     1.0000 0.19980  0.75040  0.87100  Biso   1.000  C
  C313     1.0000 0.38820  0.26200  0.80360  Biso   1.000  C
  C314     1.0000 0.11180  0.73800  0.30360  Biso   1.000  C
  C315     1.0000 0.61180  0.76200  0.69640  Biso   1.000  C
  C316     1.0000 0.88820  0.23800  0.19640  Biso   1.000  C
  C317     1.0000 0.61180  0.73800  0.19640  Biso   1.000  C
  C318     1.0000 0.88820  0.26200  0.69640  Biso   1.000  C
  C319     1.0000 0.38820  0.23800  0.30360  Biso   1.000  C
  C320     1.0000 0.11180  0.76200  0.80360  Biso   1.000  C
  C321     1.0000 0.48790  0.49920  0.97090  Biso   1.000  C
  C322     1.0000 0.01210  0.50080  0.47090  Biso   1.000  C
  C323     1.0000 0.51210  0.99920  0.52910  Biso   1.000  C
  C324     1.0000 0.98790  0.00080  0.02910  Biso   1.000  C
  C325     1.0000 0.51210  0.50080  0.02910  Biso   1.000  C
  C326     1.0000 0.98790  0.49920  0.52910  Biso   1.000  C
  C327     1.0000 0.48790  0.00080  0.47090  Biso   1.000  C
  C328     1.0000 0.01210  0.99920  0.97090  Biso   1.000  C
  C329     1.0000 0.99520  0.50790  0.16930  Biso   1.000  C
  C330     1.0000 0.50480  0.49210  0.66930  Biso   1.000  C
  C331     1.0000 0.00480  0.00790  0.33070  Biso   1.000  C
  C332     1.0000 0.49520  0.99210  0.83070  Biso   1.000  C
  C333     1.0000 0.00480  0.49210  0.83070  Biso   1.000  C
  C334     1.0000 0.49520  0.50790  0.33070  Biso   1.000  C
  C335     1.0000 0.99520  0.99210  0.66930  Biso   1.000  C
  C336     1.0000 0.50480  0.00790  0.16930  Biso   1.000  C
  C337     1.0000 0.13960  0.48010  0.16440  Biso   1.000  C
  C338     1.0000 0.36040  0.51990  0.66440  Biso   1.000  C
  C339     1.0000 0.86040  0.98010  0.33560  Biso   1.000  C
  C340     1.0000 0.63960  0.01990  0.83560  Biso   1.000  C
  C341     1.0000 0.86040  0.51990  0.83560  Biso   1.000  C
  C342     1.0000 0.63960  0.48010  0.33560  Biso   1.000  C
  C343     1.0000 0.13960  0.01990  0.66440  Biso   1.000  C
  C344     1.0000 0.36040  0.98010  0.16440  Biso   1.000  C
  O81      1.0000 0.55600  0.45060  0.15878  Biso   1.000  O
  O82      1.0000 0.94400  0.54940  0.65878  Biso   1.000  O
  O83      1.0000 0.44400  0.95060  0.34122  Biso   1.000  O
  O84      1.0000 0.05600  0.04940  0.84122  Biso   1.000  O
  O85      1.0000 0.44400  0.54940  0.84122  Biso   1.000  O
  O86      1.0000 0.05600  0.45060  0.34122  Biso   1.000  O
  O87      1.0000 0.55600  0.04940  0.65878  Biso   1.000  O
  O88      1.0000 0.94400  0.95060  0.15878  Biso   1.000  O
  O89      1.0000 0.39060  0.49070  0.20600  Biso   1.000  O
  O90      1.0000 0.10940  0.50930  0.70600  Biso   1.000  O
  O91      1.0000 0.60940  0.99070  0.29400  Biso   1.000  O
  O92      1.0000 0.89060  0.00930  0.79400  Biso   1.000  O
  O93      1.0000 0.60940  0.50930  0.79400  Biso   1.000  O
  O94      1.0000 0.89060  0.49070  0.29400  Biso   1.000  O
  O95      1.0000 0.39060  0.00930  0.70600  Biso   1.000  O
  O96      1.0000 0.10940  0.99070  0.20600  Biso   1.000  O
  H321     1.0000 0.55600  0.46820  0.13000  Biso   1.000  H
  H322     1.0000 0.94400  0.53180  0.63000  Biso   1.000  H
  H323     1.0000 0.44400  0.96820  0.37000  Biso   1.000  H
  H324     1.0000 0.05600  0.03180  0.87000  Biso   1.000  H
  H325     1.0000 0.44400  0.53180  0.87000  Biso   1.000  H
  H326     1.0000 0.05600  0.46820  0.37000  Biso   1.000  H
  H327     1.0000 0.55600  0.03180  0.63000  Biso   1.000  H
  H328     1.0000 0.94400  0.96820  0.13000  Biso   1.000  H
  H329     1.0000 0.50540  0.43470  0.16150  Biso   1.000  H
  H330     1.0000 0.99460  0.56530  0.66150  Biso   1.000  H
  H331     1.0000 0.49460  0.93470  0.33850  Biso   1.000  H
  H332     1.0000 0.00540  0.06530  0.83850  Biso   1.000  H
  H333     1.0000 0.49460  0.56530  0.83850  Biso   1.000  H
  H334     1.0000 0.00540  0.43470  0.33850  Biso   1.000  H
  H335     1.0000 0.50540  0.06530  0.66150  Biso   1.000  H
  H336     1.0000 0.99460  0.93470  0.16150  Biso   1.000  H
  H337     1.0000 0.37610  0.52650  0.20510  Biso   1.000  H
  H338     1.0000 0.12390  0.47350  0.70510  Biso   1.000  H
  H339     1.0000 0.62390  0.02650  0.29490  Biso   1.000  H
  H340     1.0000 0.87610  0.97350  0.79490  Biso   1.000  H
  H341     1.0000 0.62390  0.47350  0.79490  Biso   1.000  H
  H342     1.0000 0.87610  0.52650  0.29490  Biso   1.000  H
  H343     1.0000 0.37610  0.97350  0.70510  Biso   1.000  H
  H344     1.0000 0.12390  0.02650  0.20510  Biso   1.000  H
  H345     1.0000 0.34450  0.47420  0.21890  Biso   1.000  H
  H346     1.0000 0.15550  0.52580  0.71890  Biso   1.000  H
  H347     1.0000 0.65550  0.97420  0.28110  Biso   1.000  H
  H348     1.0000 0.84450  0.02580  0.78110  Biso   1.000  H
  H349     1.0000 0.65550  0.52580  0.78110  Biso   1.000  H
  H350     1.0000 0.84450  0.47420  0.28110  Biso   1.000  H
  H351     1.0000 0.34450  0.02580  0.71890  Biso   1.000  H
  H352     1.0000 0.15550  0.97420  0.21890  Biso   1.000  H
