data_image0
_cell_length_a       29.5522
_cell_length_b       29.5522
_cell_length_c       91.693
_cell_angle_alpha    90
_cell_angle_beta     90
_cell_angle_gamma    120

_symmetry_space_group_name_H-M    "P 1"
_symmetry_int_tables_number       1

loop_
  _symmetry_equiv_pos_as_xyz
  'x, y, z'

loop_
  _atom_site_label
  _atom_site_occupancy
  _atom_site_fract_x
  _atom_site_fract_y
  _atom_site_fract_z
  _atom_site_thermal_displace_type
  _atom_site_B_iso_or_equiv
  _atom_site_type_symbol
  Cu1      1.0000 0.71535  0.13361  0.54991  Biso   1.000  Cu
  Cu2      1.0000 0.86639  0.58174  0.54991  Biso   1.000  Cu
  Cu3      1.0000 0.41826  0.28465  0.54991  Biso   1.000  Cu
  Cu4      1.0000 0.28465  0.86639  0.04991  Biso   1.000  Cu
  Cu5      1.0000 0.13361  0.41826  0.04991  Biso   1.000  Cu
  Cu6      1.0000 0.58174  0.71535  0.04991  Biso   1.000  Cu
  Cu7      1.0000 0.89340  0.23727  0.46140  Biso   1.000  Cu
  Cu8      1.0000 0.76273  0.65613  0.46140  Biso   1.000  Cu
  Cu9      1.0000 0.34387  0.10660  0.46140  Biso   1.000  Cu
  Cu10     1.0000 0.10660  0.76273  0.96140  Biso   1.000  Cu
  Cu11     1.0000 0.23727  0.34387  0.96140  Biso   1.000  Cu
  Cu12     1.0000 0.65613  0.89340  0.96140  Biso   1.000  Cu
  Cu13     1.0000 0.63427  0.88873  0.47136  Biso   1.000  Cu
  Cu14     1.0000 0.11127  0.74554  0.47136  Biso   1.000  Cu
  Cu15     1.0000 0.25446  0.36573  0.47136  Biso   1.000  Cu
  Cu16     1.0000 0.36573  0.11127  0.97136  Biso   1.000  Cu
  Cu17     1.0000 0.88873  0.25446  0.97136  Biso   1.000  Cu
  Cu18     1.0000 0.74554  0.63427  0.97136  Biso   1.000  Cu
  Cu19     1.0000 0.83838  0.03799  0.63029  Biso   1.000  Cu
  Cu20     1.0000 0.96201  0.80039  0.63029  Biso   1.000  Cu
  Cu21     1.0000 0.19961  0.16162  0.63029  Biso   1.000  Cu
  Cu22     1.0000 0.16162  0.96201  0.13029  Biso   1.000  Cu
  Cu23     1.0000 0.03799  0.19961  0.13029  Biso   1.000  Cu
  Cu24     1.0000 0.80039  0.83838  0.13029  Biso   1.000  Cu
  N1       1.0000 0.68900  0.06570  0.56048  Biso   1.000  N
  N2       1.0000 0.93430  0.62330  0.56048  Biso   1.000  N
  N3       1.0000 0.37670  0.31100  0.56048  Biso   1.000  N
  N4       1.0000 0.31100  0.93430  0.06048  Biso   1.000  N
  N5       1.0000 0.06570  0.37670  0.06048  Biso   1.000  N
  N6       1.0000 0.62330  0.68900  0.06048  Biso   1.000  N
  C1       1.0000 0.70780  0.03600  0.55489  Biso   1.000  C
  C2       1.0000 0.96400  0.67180  0.55489  Biso   1.000  C
  C3       1.0000 0.32820  0.29220  0.55489  Biso   1.000  C
  C4       1.0000 0.29220  0.96400  0.05489  Biso   1.000  C
  C5       1.0000 0.03600  0.32820  0.05489  Biso   1.000  C
  C6       1.0000 0.67180  0.70780  0.05489  Biso   1.000  C
  C7       1.0000 0.68940  0.98500  0.55941  Biso   1.000  C
  C8       1.0000 0.01500  0.70440  0.55941  Biso   1.000  C
  C9       1.0000 0.29560  0.31060  0.55941  Biso   1.000  C
  C10      1.0000 0.31060  0.01500  0.05941  Biso   1.000  C
  C11      1.0000 0.98500  0.29560  0.05941  Biso   1.000  C
  C12      1.0000 0.70440  0.68940  0.05941  Biso   1.000  C
  H1       1.0000 0.70220  0.96420  0.55520  Biso   1.000  H
  H2       1.0000 0.03580  0.73800  0.55520  Biso   1.000  H
  H3       1.0000 0.26200  0.29780  0.55520  Biso   1.000  H
  H4       1.0000 0.29780  0.03580  0.05520  Biso   1.000  H
  H5       1.0000 0.96420  0.26200  0.05520  Biso   1.000  H
  H6       1.0000 0.73800  0.70220  0.05520  Biso   1.000  H
  C13      1.0000 0.65130  0.96510  0.57036  Biso   1.000  C
  C14      1.0000 0.03490  0.68620  0.57036  Biso   1.000  C
  C15      1.0000 0.31380  0.34870  0.57036  Biso   1.000  C
  C16      1.0000 0.34870  0.03490  0.07036  Biso   1.000  C
  C17      1.0000 0.96510  0.31380  0.07036  Biso   1.000  C
  C18      1.0000 0.68620  0.65130  0.07036  Biso   1.000  C
  H7       1.0000 0.63920  0.93110  0.57420  Biso   1.000  H
  H8       1.0000 0.06890  0.70810  0.57420  Biso   1.000  H
  H9       1.0000 0.29190  0.36080  0.57420  Biso   1.000  H
  H10      1.0000 0.36080  0.06890  0.07420  Biso   1.000  H
  H11      1.0000 0.93110  0.29190  0.07420  Biso   1.000  H
  H12      1.0000 0.70810  0.63920  0.07420  Biso   1.000  H
  C19      1.0000 0.63190  0.99500  0.57544  Biso   1.000  C
  C20      1.0000 0.00500  0.63690  0.57544  Biso   1.000  C
  C21      1.0000 0.36310  0.36810  0.57544  Biso   1.000  C
  C22      1.0000 0.36810  0.00500  0.07544  Biso   1.000  C
  C23      1.0000 0.99500  0.36310  0.07544  Biso   1.000  C
  C24      1.0000 0.63690  0.63190  0.07544  Biso   1.000  C
  H13      1.0000 0.60450  0.98100  0.58240  Biso   1.000  H
  H14      1.0000 0.01900  0.62350  0.58240  Biso   1.000  H
  H15      1.0000 0.37650  0.39550  0.58240  Biso   1.000  H
  H16      1.0000 0.39550  0.01900  0.08240  Biso   1.000  H
  H17      1.0000 0.98100  0.37650  0.08240  Biso   1.000  H
  H18      1.0000 0.62350  0.60450  0.08240  Biso   1.000  H
  C25      1.0000 0.65180  0.04580  0.57054  Biso   1.000  C
  C26      1.0000 0.95420  0.60600  0.57054  Biso   1.000  C
  C27      1.0000 0.39400  0.34820  0.57054  Biso   1.000  C
  C28      1.0000 0.34820  0.95420  0.07054  Biso   1.000  C
  C29      1.0000 0.04580  0.39400  0.07054  Biso   1.000  C
  C30      1.0000 0.60600  0.65180  0.07054  Biso   1.000  C
  H19      1.0000 0.63860  0.06670  0.57440  Biso   1.000  H
  H20      1.0000 0.93330  0.57190  0.57440  Biso   1.000  H
  H21      1.0000 0.42810  0.36140  0.57440  Biso   1.000  H
  H22      1.0000 0.36140  0.93330  0.07440  Biso   1.000  H
  H23      1.0000 0.06670  0.42810  0.07440  Biso   1.000  H
  H24      1.0000 0.57190  0.63860  0.07440  Biso   1.000  H
  N7       1.0000 0.75390  0.10510  0.53762  Biso   1.000  N
  N8       1.0000 0.89490  0.64880  0.53762  Biso   1.000  N
  N9       1.0000 0.35120  0.24610  0.53762  Biso   1.000  N
  N10      1.0000 0.24610  0.89490  0.03762  Biso   1.000  N
  N11      1.0000 0.10510  0.35120  0.03762  Biso   1.000  N
  N12      1.0000 0.64880  0.75390  0.03762  Biso   1.000  N
  N13      1.0000 0.79170  0.11890  0.52779  Biso   1.000  N
  N14      1.0000 0.88110  0.67280  0.52779  Biso   1.000  N
  N15      1.0000 0.32720  0.20830  0.52779  Biso   1.000  N
  N16      1.0000 0.20830  0.88110  0.02779  Biso   1.000  N
  N17      1.0000 0.11890  0.32720  0.02779  Biso   1.000  N
  N18      1.0000 0.67280  0.79170  0.02779  Biso   1.000  N
  C31      1.0000 0.80870  0.08410  0.52705  Biso   1.000  C
  C32      1.0000 0.91590  0.72460  0.52705  Biso   1.000  C
  C33      1.0000 0.27540  0.19130  0.52705  Biso   1.000  C
  C34      1.0000 0.19130  0.91590  0.02705  Biso   1.000  C
  C35      1.0000 0.08410  0.27540  0.02705  Biso   1.000  C
  C36      1.0000 0.72460  0.80870  0.02705  Biso   1.000  C
  H25      1.0000 0.83510  0.08590  0.52080  Biso   1.000  H
  H26      1.0000 0.91410  0.74920  0.52080  Biso   1.000  H
  H27      1.0000 0.25080  0.16490  0.52080  Biso   1.000  H
  H28      1.0000 0.16490  0.91410  0.02080  Biso   1.000  H
  H29      1.0000 0.08590  0.25080  0.02080  Biso   1.000  H
  H30      1.0000 0.74920  0.83510  0.02080  Biso   1.000  H
  C37      1.0000 0.78090  0.04600  0.53704  Biso   1.000  C
  C38      1.0000 0.95400  0.73490  0.53704  Biso   1.000  C
  C39      1.0000 0.26510  0.21910  0.53704  Biso   1.000  C
  C40      1.0000 0.21910  0.95400  0.03704  Biso   1.000  C
  C41      1.0000 0.04600  0.26510  0.03704  Biso   1.000  C
  C42      1.0000 0.73490  0.78090  0.03704  Biso   1.000  C
  H31      1.0000 0.78410  0.01630  0.53920  Biso   1.000  H
  H32      1.0000 0.98370  0.76780  0.53920  Biso   1.000  H
  H33      1.0000 0.23220  0.21590  0.53920  Biso   1.000  H
  H34      1.0000 0.21590  0.98370  0.03920  Biso   1.000  H
  H35      1.0000 0.01630  0.23220  0.03920  Biso   1.000  H
  H36      1.0000 0.76780  0.78410  0.03920  Biso   1.000  H
  C43      1.0000 0.74640  0.06010  0.54343  Biso   1.000  C
  C44      1.0000 0.93990  0.68630  0.54343  Biso   1.000  C
  C45      1.0000 0.31370  0.25360  0.54343  Biso   1.000  C
  C46      1.0000 0.25360  0.93990  0.04343  Biso   1.000  C
  C47      1.0000 0.06010  0.31370  0.04343  Biso   1.000  C
  C48      1.0000 0.68630  0.74640  0.04343  Biso   1.000  C
  C49      1.0000 0.80830  0.16580  0.51791  Biso   1.000  C
  C50      1.0000 0.83420  0.64250  0.51791  Biso   1.000  C
  C51      1.0000 0.35750  0.19170  0.51791  Biso   1.000  C
  C52      1.0000 0.19170  0.83420  0.01791  Biso   1.000  C
  C53      1.0000 0.16580  0.35750  0.01791  Biso   1.000  C
  C54      1.0000 0.64250  0.80830  0.01791  Biso   1.000  C
  H37      1.0000 0.81640  0.15750  0.50810  Biso   1.000  H
  H38      1.0000 0.84250  0.65890  0.50810  Biso   1.000  H
  H39      1.0000 0.34110  0.18360  0.50810  Biso   1.000  H
  H40      1.0000 0.18360  0.84250  0.00810  Biso   1.000  H
  H41      1.0000 0.15750  0.34110  0.00810  Biso   1.000  H
  H42      1.0000 0.65890  0.81640  0.00810  Biso   1.000  H
  H43      1.0000 0.77850  0.17200  0.51680  Biso   1.000  H
  H44      1.0000 0.82800  0.60650  0.51680  Biso   1.000  H
  H45      1.0000 0.39350  0.22150  0.51680  Biso   1.000  H
  H46      1.0000 0.22150  0.82800  0.01680  Biso   1.000  H
  H47      1.0000 0.17200  0.39350  0.01680  Biso   1.000  H
  H48      1.0000 0.60650  0.77850  0.01680  Biso   1.000  H
  C55      1.0000 0.80760  0.22870  0.49401  Biso   1.000  C
  C56      1.0000 0.77130  0.57890  0.49401  Biso   1.000  C
  C57      1.0000 0.42110  0.19240  0.49401  Biso   1.000  C
  C58      1.0000 0.19240  0.77130  0.99401  Biso   1.000  C
  C59      1.0000 0.22870  0.42110  0.99401  Biso   1.000  C
  C60      1.0000 0.57890  0.80760  0.99401  Biso   1.000  C
  H49      1.0000 0.81940  0.20290  0.49270  Biso   1.000  H
  H50      1.0000 0.79710  0.61650  0.49270  Biso   1.000  H
  H51      1.0000 0.38350  0.18060  0.49270  Biso   1.000  H
  H52      1.0000 0.18060  0.79710  0.99270  Biso   1.000  H
  H53      1.0000 0.20290  0.38350  0.99270  Biso   1.000  H
  H54      1.0000 0.61650  0.81940  0.99270  Biso   1.000  H
  H55      1.0000 0.77290  0.21070  0.49880  Biso   1.000  H
  H56      1.0000 0.78930  0.56220  0.49880  Biso   1.000  H
  H57      1.0000 0.43780  0.22710  0.49880  Biso   1.000  H
  H58      1.0000 0.22710  0.78930  0.99880  Biso   1.000  H
  H59      1.0000 0.21070  0.43780  0.99880  Biso   1.000  H
  H60      1.0000 0.56220  0.77290  0.99880  Biso   1.000  H
  C61      1.0000 0.85350  0.21390  0.52315  Biso   1.000  C
  C62      1.0000 0.78610  0.63960  0.52315  Biso   1.000  C
  C63      1.0000 0.36040  0.14650  0.52315  Biso   1.000  C
  C64      1.0000 0.14650  0.78610  0.02315  Biso   1.000  C
  C65      1.0000 0.21390  0.36040  0.02315  Biso   1.000  C
  C66      1.0000 0.63960  0.85350  0.02315  Biso   1.000  C
  C67      1.0000 0.87910  0.20950  0.53467  Biso   1.000  C
  C68      1.0000 0.79050  0.66960  0.53467  Biso   1.000  C
  C69      1.0000 0.33040  0.12090  0.53467  Biso   1.000  C
  C70      1.0000 0.12090  0.79050  0.03467  Biso   1.000  C
  C71      1.0000 0.20950  0.33040  0.03467  Biso   1.000  C
  C72      1.0000 0.66960  0.87910  0.03467  Biso   1.000  C
  H61      1.0000 0.86930  0.17560  0.53830  Biso   1.000  H
  H62      1.0000 0.82440  0.69370  0.53830  Biso   1.000  H
  H63      1.0000 0.30630  0.13070  0.53830  Biso   1.000  H
  H64      1.0000 0.13070  0.82440  0.03830  Biso   1.000  H
  H65      1.0000 0.17560  0.30630  0.03830  Biso   1.000  H
  H66      1.0000 0.69370  0.86930  0.03830  Biso   1.000  H
  C73      1.0000 0.92050  0.25400  0.54169  Biso   1.000  C
  C74      1.0000 0.74600  0.66650  0.54169  Biso   1.000  C
  C75      1.0000 0.33350  0.07950  0.54169  Biso   1.000  C
  C76      1.0000 0.07950  0.74600  0.04169  Biso   1.000  C
  C77      1.0000 0.25400  0.33350  0.04169  Biso   1.000  C
  C78      1.0000 0.66650  0.92050  0.04169  Biso   1.000  C
  H67      1.0000 0.93780  0.25000  0.54990  Biso   1.000  H
  H68      1.0000 0.75000  0.68780  0.54990  Biso   1.000  H
  H69      1.0000 0.31220  0.06220  0.54990  Biso   1.000  H
  H70      1.0000 0.06220  0.75000  0.04990  Biso   1.000  H
  H71      1.0000 0.25000  0.31220  0.04990  Biso   1.000  H
  H72      1.0000 0.68780  0.93780  0.04990  Biso   1.000  H
  C79      1.0000 0.93460  0.30170  0.53646  Biso   1.000  C
  C80      1.0000 0.69830  0.63290  0.53646  Biso   1.000  C
  C81      1.0000 0.36710  0.06540  0.53646  Biso   1.000  C
  C82      1.0000 0.06540  0.69830  0.03646  Biso   1.000  C
  C83      1.0000 0.30170  0.36710  0.03646  Biso   1.000  C
  C84      1.0000 0.63290  0.93460  0.03646  Biso   1.000  C
  H73      1.0000 0.96180  0.33160  0.54120  Biso   1.000  H
  H74      1.0000 0.66840  0.63020  0.54120  Biso   1.000  H
  H75      1.0000 0.36980  0.03820  0.54120  Biso   1.000  H
  H76      1.0000 0.03820  0.66840  0.04120  Biso   1.000  H
  H77      1.0000 0.33160  0.36980  0.04120  Biso   1.000  H
  H78      1.0000 0.63020  0.96180  0.04120  Biso   1.000  H
  C85      1.0000 0.92720  0.35910  0.51928  Biso   1.000  C
  C86      1.0000 0.64090  0.56810  0.51928  Biso   1.000  C
  C87      1.0000 0.43190  0.07280  0.51928  Biso   1.000  C
  C88      1.0000 0.07280  0.64090  0.01928  Biso   1.000  C
  C89      1.0000 0.35910  0.43190  0.01928  Biso   1.000  C
  C90      1.0000 0.56810  0.92720  0.01928  Biso   1.000  C
  H79      1.0000 0.95540  0.38770  0.52410  Biso   1.000  H
  H80      1.0000 0.61230  0.56770  0.52410  Biso   1.000  H
  H81      1.0000 0.43230  0.04460  0.52410  Biso   1.000  H
  H82      1.0000 0.04460  0.61230  0.02410  Biso   1.000  H
  H83      1.0000 0.38770  0.43230  0.02410  Biso   1.000  H
  H84      1.0000 0.56770  0.95540  0.02410  Biso   1.000  H
  C91      1.0000 0.90460  0.36830  0.50785  Biso   1.000  C
  C92      1.0000 0.63170  0.53630  0.50785  Biso   1.000  C
  C93      1.0000 0.46370  0.09540  0.50785  Biso   1.000  C
  C94      1.0000 0.09540  0.63170  0.00785  Biso   1.000  C
  C95      1.0000 0.36830  0.46370  0.00785  Biso   1.000  C
  C96      1.0000 0.53630  0.90460  0.00785  Biso   1.000  C
  H85      1.0000 0.91380  0.40290  0.50520  Biso   1.000  H
  H86      1.0000 0.59710  0.51090  0.50520  Biso   1.000  H
  H87      1.0000 0.48910  0.08620  0.50520  Biso   1.000  H
  H88      1.0000 0.08620  0.59710  0.00520  Biso   1.000  H
  H89      1.0000 0.40290  0.48910  0.00520  Biso   1.000  H
  H90      1.0000 0.51090  0.91380  0.00520  Biso   1.000  H
  C97      1.0000 0.86620  0.32430  0.49981  Biso   1.000  C
  C98      1.0000 0.67570  0.54190  0.49981  Biso   1.000  C
  C99      1.0000 0.45810  0.13380  0.49981  Biso   1.000  C
  C100     1.0000 0.13380  0.67570  0.99981  Biso   1.000  C
  C101     1.0000 0.32430  0.45810  0.99981  Biso   1.000  C
  C102     1.0000 0.54190  0.86620  0.99981  Biso   1.000  C
  H91      1.0000 0.85320  0.33020  0.49100  Biso   1.000  H
  H92      1.0000 0.66980  0.52300  0.49100  Biso   1.000  H
  H93      1.0000 0.47700  0.14680  0.49100  Biso   1.000  H
  H94      1.0000 0.14680  0.66980  0.99100  Biso   1.000  H
  H95      1.0000 0.33020  0.47700  0.99100  Biso   1.000  H
  H96      1.0000 0.52300  0.85320  0.99100  Biso   1.000  H
  C103     1.0000 0.84820  0.27520  0.50431  Biso   1.000  C
  C104     1.0000 0.72480  0.57300  0.50431  Biso   1.000  C
  C105     1.0000 0.42700  0.15180  0.50431  Biso   1.000  C
  C106     1.0000 0.15180  0.72480  0.00431  Biso   1.000  C
  C107     1.0000 0.27520  0.42700  0.00431  Biso   1.000  C
  C108     1.0000 0.57300  0.84820  0.00431  Biso   1.000  C
  C109     1.0000 0.86870  0.26420  0.51712  Biso   1.000  C
  C110     1.0000 0.73580  0.60450  0.51712  Biso   1.000  C
  C111     1.0000 0.39550  0.13130  0.51712  Biso   1.000  C
  C112     1.0000 0.13130  0.73580  0.01712  Biso   1.000  C
  C113     1.0000 0.26420  0.39550  0.01712  Biso   1.000  C
  C114     1.0000 0.60450  0.86870  0.01712  Biso   1.000  C
  C115     1.0000 0.91030  0.30850  0.52427  Biso   1.000  C
  C116     1.0000 0.69150  0.60180  0.52427  Biso   1.000  C
  C117     1.0000 0.39820  0.08970  0.52427  Biso   1.000  C
  C118     1.0000 0.08970  0.69150  0.02427  Biso   1.000  C
  C119     1.0000 0.30850  0.39820  0.02427  Biso   1.000  C
  C120     1.0000 0.60180  0.91030  0.02427  Biso   1.000  C
  N19      1.0000 0.83950  0.26470  0.47000  Biso   1.000  N
  N20      1.0000 0.73530  0.57480  0.47000  Biso   1.000  N
  N21      1.0000 0.42520  0.16050  0.47000  Biso   1.000  N
  N22      1.0000 0.16050  0.73530  0.97000  Biso   1.000  N
  N23      1.0000 0.26470  0.42520  0.97000  Biso   1.000  N
  N24      1.0000 0.57480  0.83950  0.97000  Biso   1.000  N
  N25      1.0000 0.80310  0.24820  0.47969  Biso   1.000  N
  N26      1.0000 0.75180  0.55490  0.47969  Biso   1.000  N
  N27      1.0000 0.44510  0.19690  0.47969  Biso   1.000  N
  N28      1.0000 0.19690  0.75180  0.97969  Biso   1.000  N
  N29      1.0000 0.24820  0.44510  0.97969  Biso   1.000  N
  N30      1.0000 0.55490  0.80310  0.97969  Biso   1.000  N
  C121     1.0000 0.76510  0.26160  0.47620  Biso   1.000  C
  C122     1.0000 0.73840  0.50350  0.47620  Biso   1.000  C
  C123     1.0000 0.49650  0.23490  0.47620  Biso   1.000  C
  C124     1.0000 0.23490  0.73840  0.97620  Biso   1.000  C
  C125     1.0000 0.26160  0.49650  0.97620  Biso   1.000  C
  C126     1.0000 0.50350  0.76510  0.97620  Biso   1.000  C
  H97      1.0000 0.73410  0.25340  0.48140  Biso   1.000  H
  H98      1.0000 0.74660  0.48070  0.48140  Biso   1.000  H
  H99      1.0000 0.51930  0.26590  0.48140  Biso   1.000  H
  H100     1.0000 0.26590  0.74660  0.98140  Biso   1.000  H
  H101     1.0000 0.25340  0.51930  0.98140  Biso   1.000  H
  H102     1.0000 0.48070  0.73410  0.98140  Biso   1.000  H
  C127     1.0000 0.78510  0.29170  0.46260  Biso   1.000  C
  C128     1.0000 0.70830  0.49340  0.46260  Biso   1.000  C
  C129     1.0000 0.50660  0.21490  0.46260  Biso   1.000  C
  C130     1.0000 0.21490  0.70830  0.96260  Biso   1.000  C
  C131     1.0000 0.29170  0.50660  0.96260  Biso   1.000  C
  C132     1.0000 0.49340  0.78510  0.96260  Biso   1.000  C
  H103     1.0000 0.77060  0.30790  0.45680  Biso   1.000  H
  H104     1.0000 0.69210  0.46270  0.45680  Biso   1.000  H
  H105     1.0000 0.53730  0.22940  0.45680  Biso   1.000  H
  H106     1.0000 0.22940  0.69210  0.95680  Biso   1.000  H
  H107     1.0000 0.30790  0.53730  0.95680  Biso   1.000  H
  H108     1.0000 0.46270  0.77060  0.95680  Biso   1.000  H
  C133     1.0000 0.82590  0.29010  0.46070  Biso   1.000  C
  C134     1.0000 0.70990  0.53580  0.46070  Biso   1.000  C
  C135     1.0000 0.46420  0.17410  0.46070  Biso   1.000  C
  C136     1.0000 0.17410  0.70990  0.96070  Biso   1.000  C
  C137     1.0000 0.29010  0.46420  0.96070  Biso   1.000  C
  C138     1.0000 0.53580  0.82590  0.96070  Biso   1.000  C
  N31      1.0000 0.90330  0.30280  0.44680  Biso   1.000  N
  N32      1.0000 0.69720  0.60050  0.44680  Biso   1.000  N
  N33      1.0000 0.39950  0.09670  0.44680  Biso   1.000  N
  N34      1.0000 0.09670  0.69720  0.94680  Biso   1.000  N
  N35      1.0000 0.30280  0.39950  0.94680  Biso   1.000  N
  N36      1.0000 0.60050  0.90330  0.94680  Biso   1.000  N
  C139     1.0000 0.86520  0.31120  0.44770  Biso   1.000  C
  C140     1.0000 0.68880  0.55400  0.44770  Biso   1.000  C
  C141     1.0000 0.44600  0.13480  0.44770  Biso   1.000  C
  C142     1.0000 0.13480  0.68880  0.94770  Biso   1.000  C
  C143     1.0000 0.31120  0.44600  0.94770  Biso   1.000  C
  C144     1.0000 0.55400  0.86520  0.94770  Biso   1.000  C
  C145     1.0000 0.86510  0.34930  0.43920  Biso   1.000  C
  C146     1.0000 0.65070  0.51580  0.43920  Biso   1.000  C
  C147     1.0000 0.48420  0.13490  0.43920  Biso   1.000  C
  C148     1.0000 0.13490  0.65070  0.93920  Biso   1.000  C
  C149     1.0000 0.34930  0.48420  0.93920  Biso   1.000  C
  C150     1.0000 0.51580  0.86510  0.93920  Biso   1.000  C
  H109     1.0000 0.83940  0.35950  0.44020  Biso   1.000  H
  H110     1.0000 0.64050  0.47990  0.44020  Biso   1.000  H
  H111     1.0000 0.52010  0.16060  0.44020  Biso   1.000  H
  H112     1.0000 0.16060  0.64050  0.94020  Biso   1.000  H
  H113     1.0000 0.35950  0.52010  0.94020  Biso   1.000  H
  H114     1.0000 0.47990  0.83940  0.94020  Biso   1.000  H
  C151     1.0000 0.90580  0.37210  0.42900  Biso   1.000  C
  C152     1.0000 0.62790  0.53370  0.42900  Biso   1.000  C
  C153     1.0000 0.46630  0.09420  0.42900  Biso   1.000  C
  C154     1.0000 0.09420  0.62790  0.92900  Biso   1.000  C
  C155     1.0000 0.37210  0.46630  0.92900  Biso   1.000  C
  C156     1.0000 0.53370  0.90580  0.92900  Biso   1.000  C
  H115     1.0000 0.90710  0.39860  0.42280  Biso   1.000  H
  H116     1.0000 0.60140  0.50850  0.42280  Biso   1.000  H
  H117     1.0000 0.49150  0.09290  0.42280  Biso   1.000  H
  H118     1.0000 0.09290  0.60140  0.92280  Biso   1.000  H
  H119     1.0000 0.39860  0.49150  0.92280  Biso   1.000  H
  H120     1.0000 0.50850  0.90710  0.92280  Biso   1.000  H
  C157     1.0000 0.93970  0.36030  0.42740  Biso   1.000  C
  C158     1.0000 0.63970  0.57940  0.42740  Biso   1.000  C
  C159     1.0000 0.42060  0.06030  0.42740  Biso   1.000  C
  C160     1.0000 0.06030  0.63970  0.92740  Biso   1.000  C
  C161     1.0000 0.36030  0.42060  0.92740  Biso   1.000  C
  C162     1.0000 0.57940  0.93970  0.92740  Biso   1.000  C
  H121     1.0000 0.96460  0.37600  0.41980  Biso   1.000  H
  H122     1.0000 0.62400  0.58860  0.41980  Biso   1.000  H
  H123     1.0000 0.41140  0.03540  0.41980  Biso   1.000  H
  H124     1.0000 0.03540  0.62400  0.91980  Biso   1.000  H
  H125     1.0000 0.37600  0.41140  0.91980  Biso   1.000  H
  H126     1.0000 0.58860  0.96460  0.91980  Biso   1.000  H
  C163     1.0000 0.94250  0.32610  0.43620  Biso   1.000  C
  C164     1.0000 0.67390  0.61640  0.43620  Biso   1.000  C
  C165     1.0000 0.38360  0.05750  0.43620  Biso   1.000  C
  C166     1.0000 0.05750  0.67390  0.93620  Biso   1.000  C
  C167     1.0000 0.32610  0.38360  0.93620  Biso   1.000  C
  C168     1.0000 0.61640  0.94250  0.93620  Biso   1.000  C
  H127     1.0000 0.96950  0.31770  0.43530  Biso   1.000  H
  H128     1.0000 0.68230  0.65180  0.43530  Biso   1.000  H
  H129     1.0000 0.34820  0.03050  0.43530  Biso   1.000  H
  H130     1.0000 0.03050  0.68230  0.93530  Biso   1.000  H
  H131     1.0000 0.31770  0.34820  0.93530  Biso   1.000  H
  H132     1.0000 0.65180  0.96950  0.93530  Biso   1.000  H
  N37      1.0000 0.94550  0.28040  0.47652  Biso   1.000  N
  N38      1.0000 0.71960  0.66510  0.47652  Biso   1.000  N
  N39      1.0000 0.33490  0.05450  0.47652  Biso   1.000  N
  N40      1.0000 0.05450  0.71960  0.97652  Biso   1.000  N
  N41      1.0000 0.28040  0.33490  0.97652  Biso   1.000  N
  N42      1.0000 0.66510  0.94550  0.97652  Biso   1.000  N
  C169     1.0000 0.94880  0.25390  0.48805  Biso   1.000  C
  C170     1.0000 0.74610  0.69490  0.48805  Biso   1.000  C
  C171     1.0000 0.30510  0.05120  0.48805  Biso   1.000  C
  C172     1.0000 0.05120  0.74610  0.98805  Biso   1.000  C
  C173     1.0000 0.25390  0.30510  0.98805  Biso   1.000  C
  C174     1.0000 0.69490  0.94880  0.98805  Biso   1.000  C
  C175     1.0000 0.98110  0.27920  0.49987  Biso   1.000  C
  C176     1.0000 0.72080  0.70190  0.49987  Biso   1.000  C
  C177     1.0000 0.29810  0.01890  0.49987  Biso   1.000  C
  C178     1.0000 0.01890  0.72080  0.99987  Biso   1.000  C
  C179     1.0000 0.27920  0.29810  0.99987  Biso   1.000  C
  C180     1.0000 0.70190  0.98110  0.99987  Biso   1.000  C
  H133     1.0000 0.98550  0.26000  0.50750  Biso   1.000  H
  H134     1.0000 0.74000  0.72550  0.50750  Biso   1.000  H
  H135     1.0000 0.27450  0.01450  0.50750  Biso   1.000  H
  H136     1.0000 0.01450  0.74000  0.00750  Biso   1.000  H
  H137     1.0000 0.26000  0.27450  0.00750  Biso   1.000  H
  H138     1.0000 0.72550  0.98550  0.00750  Biso   1.000  H
  C181     1.0000 0.00690  0.33390  0.50014  Biso   1.000  C
  C182     1.0000 0.66610  0.67300  0.50014  Biso   1.000  C
  C183     1.0000 0.32700  0.99310  0.50014  Biso   1.000  C
  C184     1.0000 0.99310  0.66610  0.00014  Biso   1.000  C
  C185     1.0000 0.33390  0.32700  0.00014  Biso   1.000  C
  C186     1.0000 0.67300  0.00690  0.00014  Biso   1.000  C
  H139     1.0000 0.02840  0.35270  0.50820  Biso   1.000  H
  H140     1.0000 0.64730  0.67570  0.50820  Biso   1.000  H
  H141     1.0000 0.32430  0.97160  0.50820  Biso   1.000  H
  H142     1.0000 0.97160  0.64730  0.00820  Biso   1.000  H
  H143     1.0000 0.35270  0.32430  0.00820  Biso   1.000  H
  H144     1.0000 0.67570  0.02840  0.00820  Biso   1.000  H
  C187     1.0000 0.00080  0.35970  0.48883  Biso   1.000  C
  C188     1.0000 0.64030  0.64110  0.48883  Biso   1.000  C
  C189     1.0000 0.35890  0.99920  0.48883  Biso   1.000  C
  C190     1.0000 0.99920  0.64030  0.98883  Biso   1.000  C
  C191     1.0000 0.35970  0.35890  0.98883  Biso   1.000  C
  C192     1.0000 0.64110  0.00080  0.98883  Biso   1.000  C
  H145     1.0000 0.01860  0.39680  0.48890  Biso   1.000  H
  H146     1.0000 0.60320  0.62180  0.48890  Biso   1.000  H
  H147     1.0000 0.37820  0.98140  0.48890  Biso   1.000  H
  H148     1.0000 0.98140  0.60320  0.98890  Biso   1.000  H
  H149     1.0000 0.39680  0.37820  0.98890  Biso   1.000  H
  H150     1.0000 0.62180  0.01860  0.98890  Biso   1.000  H
  C193     1.0000 0.96880  0.33240  0.47716  Biso   1.000  C
  C194     1.0000 0.66760  0.63640  0.47716  Biso   1.000  C
  C195     1.0000 0.36360  0.03120  0.47716  Biso   1.000  C
  C196     1.0000 0.03120  0.66760  0.97716  Biso   1.000  C
  C197     1.0000 0.33240  0.36360  0.97716  Biso   1.000  C
  C198     1.0000 0.63640  0.96880  0.97716  Biso   1.000  C
  H151     1.0000 0.96340  0.35090  0.46950  Biso   1.000  H
  H152     1.0000 0.64910  0.61250  0.46950  Biso   1.000  H
  H153     1.0000 0.38750  0.03660  0.46950  Biso   1.000  H
  H154     1.0000 0.03660  0.64910  0.96950  Biso   1.000  H
  H155     1.0000 0.35090  0.38750  0.96950  Biso   1.000  H
  H156     1.0000 0.61250  0.96340  0.96950  Biso   1.000  H
  N43      1.0000 0.88000  0.17660  0.47700  Biso   1.000  N
  N44      1.0000 0.82340  0.70340  0.47700  Biso   1.000  N
  N45      1.0000 0.29660  0.12000  0.47700  Biso   1.000  N
  N46      1.0000 0.12000  0.82340  0.97700  Biso   1.000  N
  N47      1.0000 0.17660  0.29660  0.97700  Biso   1.000  N
  N48      1.0000 0.70340  0.88000  0.97700  Biso   1.000  N
  N49      1.0000 0.85490  0.12530  0.47932  Biso   1.000  N
  N50      1.0000 0.87470  0.72960  0.47932  Biso   1.000  N
  N51      1.0000 0.27040  0.14510  0.47932  Biso   1.000  N
  N52      1.0000 0.14510  0.87470  0.97932  Biso   1.000  N
  N53      1.0000 0.12530  0.27040  0.97932  Biso   1.000  N
  N54      1.0000 0.72960  0.85490  0.97932  Biso   1.000  N
  C199     1.0000 0.87630  0.11200  0.49046  Biso   1.000  C
  C200     1.0000 0.88800  0.76430  0.49046  Biso   1.000  C
  C201     1.0000 0.23570  0.12370  0.49046  Biso   1.000  C
  C202     1.0000 0.12370  0.88800  0.99046  Biso   1.000  C
  C203     1.0000 0.11200  0.23570  0.99046  Biso   1.000  C
  C204     1.0000 0.76430  0.87630  0.99046  Biso   1.000  C
  H157     1.0000 0.86620  0.07770  0.49360  Biso   1.000  H
  H158     1.0000 0.92230  0.78850  0.49360  Biso   1.000  H
  H159     1.0000 0.21150  0.13380  0.49360  Biso   1.000  H
  H160     1.0000 0.13380  0.92230  0.99360  Biso   1.000  H
  H161     1.0000 0.07770  0.21150  0.99360  Biso   1.000  H
  H162     1.0000 0.78850  0.86620  0.99360  Biso   1.000  H
  C205     1.0000 0.91480  0.15760  0.49625  Biso   1.000  C
  C206     1.0000 0.84240  0.75720  0.49625  Biso   1.000  C
  C207     1.0000 0.24280  0.08520  0.49625  Biso   1.000  C
  C208     1.0000 0.08520  0.84240  0.99625  Biso   1.000  C
  C209     1.0000 0.15760  0.24280  0.99625  Biso   1.000  C
  C210     1.0000 0.75720  0.91480  0.99625  Biso   1.000  C
  H163     1.0000 0.93600  0.16150  0.50450  Biso   1.000  H
  H164     1.0000 0.83850  0.77450  0.50450  Biso   1.000  H
  H165     1.0000 0.22550  0.06400  0.50450  Biso   1.000  H
  H166     1.0000 0.06400  0.83850  0.00450  Biso   1.000  H
  H167     1.0000 0.16150  0.22550  0.00450  Biso   1.000  H
  H168     1.0000 0.77450  0.93600  0.00450  Biso   1.000  H
  C211     1.0000 0.91680  0.19740  0.48746  Biso   1.000  C
  C212     1.0000 0.80260  0.71940  0.48746  Biso   1.000  C
  C213     1.0000 0.28060  0.08320  0.48746  Biso   1.000  C
  C214     1.0000 0.08320  0.80260  0.98746  Biso   1.000  C
  C215     1.0000 0.19740  0.28060  0.98746  Biso   1.000  C
  C216     1.0000 0.71940  0.91680  0.98746  Biso   1.000  C
  C217     1.0000 0.80990  0.08750  0.47076  Biso   1.000  C
  C218     1.0000 0.91250  0.72240  0.47076  Biso   1.000  C
  C219     1.0000 0.27760  0.19010  0.47076  Biso   1.000  C
  C220     1.0000 0.19010  0.91250  0.97076  Biso   1.000  C
  C221     1.0000 0.08750  0.27760  0.97076  Biso   1.000  C
  C222     1.0000 0.72240  0.80990  0.97076  Biso   1.000  C
  H169     1.0000 0.78890  0.10350  0.46770  Biso   1.000  H
  H170     1.0000 0.89650  0.68540  0.46770  Biso   1.000  H
  H171     1.0000 0.31460  0.21110  0.46770  Biso   1.000  H
  H172     1.0000 0.21110  0.89650  0.96770  Biso   1.000  H
  H173     1.0000 0.10350  0.31460  0.96770  Biso   1.000  H
  H174     1.0000 0.68540  0.78890  0.96770  Biso   1.000  H
  H175     1.0000 0.78740  0.05650  0.47680  Biso   1.000  H
  H176     1.0000 0.94350  0.73090  0.47680  Biso   1.000  H
  H177     1.0000 0.26910  0.21260  0.47680  Biso   1.000  H
  H178     1.0000 0.21260  0.94350  0.97680  Biso   1.000  H
  H179     1.0000 0.05650  0.26910  0.97680  Biso   1.000  H
  H180     1.0000 0.73090  0.78740  0.97680  Biso   1.000  H
  C223     1.0000 0.70680  0.02930  0.45780  Biso   1.000  C
  C224     1.0000 0.97070  0.67750  0.45780  Biso   1.000  C
  C225     1.0000 0.32250  0.29320  0.45780  Biso   1.000  C
  C226     1.0000 0.29320  0.97070  0.95780  Biso   1.000  C
  C227     1.0000 0.02930  0.32250  0.95780  Biso   1.000  C
  C228     1.0000 0.67750  0.70680  0.95780  Biso   1.000  C
  H181     1.0000 0.71470  0.01490  0.46650  Biso   1.000  H
  H182     1.0000 0.98510  0.69980  0.46650  Biso   1.000  H
  H183     1.0000 0.30020  0.28530  0.46650  Biso   1.000  H
  H184     1.0000 0.28530  0.98510  0.96650  Biso   1.000  H
  H185     1.0000 0.01490  0.30020  0.96650  Biso   1.000  H
  H186     1.0000 0.69980  0.71470  0.96650  Biso   1.000  H
  H187     1.0000 0.71550  0.06560  0.45990  Biso   1.000  H
  H188     1.0000 0.93440  0.64990  0.45990  Biso   1.000  H
  H189     1.0000 0.35010  0.28450  0.45990  Biso   1.000  H
  H190     1.0000 0.28450  0.93440  0.95990  Biso   1.000  H
  H191     1.0000 0.06560  0.35010  0.95990  Biso   1.000  H
  H192     1.0000 0.64990  0.71550  0.95990  Biso   1.000  H
  C229     1.0000 0.83010  0.07040  0.45667  Biso   1.000  C
  C230     1.0000 0.92960  0.75970  0.45667  Biso   1.000  C
  C231     1.0000 0.24030  0.16990  0.45667  Biso   1.000  C
  C232     1.0000 0.16990  0.92960  0.95667  Biso   1.000  C
  C233     1.0000 0.07040  0.24030  0.95667  Biso   1.000  C
  C234     1.0000 0.75970  0.83010  0.95667  Biso   1.000  C
  C235     1.0000 0.87870  0.07790  0.45642  Biso   1.000  C
  C236     1.0000 0.92210  0.80080  0.45642  Biso   1.000  C
  C237     1.0000 0.19920  0.12130  0.45642  Biso   1.000  C
  C238     1.0000 0.12130  0.92210  0.95642  Biso   1.000  C
  C239     1.0000 0.07790  0.19920  0.95642  Biso   1.000  C
  C240     1.0000 0.80080  0.87870  0.95642  Biso   1.000  C
  H193     1.0000 0.90050  0.09280  0.46470  Biso   1.000  H
  H194     1.0000 0.90720  0.80770  0.46470  Biso   1.000  H
  H195     1.0000 0.19230  0.09950  0.46470  Biso   1.000  H
  H196     1.0000 0.09950  0.90720  0.96470  Biso   1.000  H
  H197     1.0000 0.09280  0.19230  0.96470  Biso   1.000  H
  H198     1.0000 0.80770  0.90050  0.96470  Biso   1.000  H
  C241     1.0000 0.89870  0.06420  0.44405  Biso   1.000  C
  C242     1.0000 0.93580  0.83450  0.44405  Biso   1.000  C
  C243     1.0000 0.16550  0.10130  0.44405  Biso   1.000  C
  C244     1.0000 0.10130  0.93580  0.94405  Biso   1.000  C
  C245     1.0000 0.06420  0.16550  0.94405  Biso   1.000  C
  C246     1.0000 0.83450  0.89870  0.94405  Biso   1.000  C
  H199     1.0000 0.93270  0.06820  0.44420  Biso   1.000  H
  H200     1.0000 0.93180  0.86450  0.44420  Biso   1.000  H
  H201     1.0000 0.13550  0.06730  0.44420  Biso   1.000  H
  H202     1.0000 0.06730  0.93180  0.94420  Biso   1.000  H
  H203     1.0000 0.06820  0.13550  0.94420  Biso   1.000  H
  H204     1.0000 0.86450  0.93270  0.94420  Biso   1.000  H
  C247     1.0000 0.86830  0.04560  0.43213  Biso   1.000  C
  C248     1.0000 0.95440  0.82270  0.43213  Biso   1.000  C
  C249     1.0000 0.17730  0.13170  0.43213  Biso   1.000  C
  C250     1.0000 0.13170  0.95440  0.93213  Biso   1.000  C
  C251     1.0000 0.04560  0.17730  0.93213  Biso   1.000  C
  C252     1.0000 0.82270  0.86830  0.93213  Biso   1.000  C
  H205     1.0000 0.88150  0.03730  0.42370  Biso   1.000  H
  H206     1.0000 0.96270  0.84420  0.42370  Biso   1.000  H
  H207     1.0000 0.15580  0.11850  0.42370  Biso   1.000  H
  H208     1.0000 0.11850  0.96270  0.92370  Biso   1.000  H
  H209     1.0000 0.03730  0.15580  0.92370  Biso   1.000  H
  H210     1.0000 0.84420  0.88150  0.92370  Biso   1.000  H
  C253     1.0000 0.78720  0.01520  0.41950  Biso   1.000  C
  C254     1.0000 0.98480  0.77200  0.41950  Biso   1.000  C
  C255     1.0000 0.22800  0.21280  0.41950  Biso   1.000  C
  C256     1.0000 0.21280  0.98480  0.91950  Biso   1.000  C
  C257     1.0000 0.01520  0.22800  0.91950  Biso   1.000  C
  C258     1.0000 0.77200  0.78720  0.91950  Biso   1.000  C
  H211     1.0000 0.80280  0.00930  0.41120  Biso   1.000  H
  H212     1.0000 0.99070  0.79350  0.41120  Biso   1.000  H
  H213     1.0000 0.20650  0.19720  0.41120  Biso   1.000  H
  H214     1.0000 0.19720  0.99070  0.91120  Biso   1.000  H
  H215     1.0000 0.00930  0.20650  0.91120  Biso   1.000  H
  H216     1.0000 0.79350  0.80280  0.91120  Biso   1.000  H
  C259     1.0000 0.73640  0.00090  0.41897  Biso   1.000  C
  C260     1.0000 0.99910  0.73550  0.41897  Biso   1.000  C
  C261     1.0000 0.26450  0.26360  0.41897  Biso   1.000  C
  C262     1.0000 0.26360  0.99910  0.91897  Biso   1.000  C
  C263     1.0000 0.00090  0.26450  0.91897  Biso   1.000  C
  C264     1.0000 0.73550  0.73640  0.91897  Biso   1.000  C
  H217     1.0000 0.71620  0.98560  0.41040  Biso   1.000  H
  H218     1.0000 0.01440  0.73060  0.41040  Biso   1.000  H
  H219     1.0000 0.26940  0.28380  0.41040  Biso   1.000  H
  H220     1.0000 0.28380  0.01440  0.91040  Biso   1.000  H
  H221     1.0000 0.98560  0.26940  0.91040  Biso   1.000  H
  H222     1.0000 0.73060  0.71620  0.91040  Biso   1.000  H
  C265     1.0000 0.71350  0.00950  0.43164  Biso   1.000  C
  C266     1.0000 0.99050  0.70400  0.43164  Biso   1.000  C
  C267     1.0000 0.29600  0.28650  0.43164  Biso   1.000  C
  C268     1.0000 0.28650  0.99050  0.93164  Biso   1.000  C
  C269     1.0000 0.00950  0.29600  0.93164  Biso   1.000  C
  C270     1.0000 0.70400  0.71350  0.93164  Biso   1.000  C
  H223     1.0000 0.67820  0.00160  0.43130  Biso   1.000  H
  H224     1.0000 0.99840  0.67660  0.43130  Biso   1.000  H
  H225     1.0000 0.32340  0.32180  0.43130  Biso   1.000  H
  H226     1.0000 0.32180  0.99840  0.93130  Biso   1.000  H
  H227     1.0000 0.00160  0.32340  0.93130  Biso   1.000  H
  H228     1.0000 0.67660  0.67820  0.93130  Biso   1.000  H
  C271     1.0000 0.74050  0.02840  0.44407  Biso   1.000  C
  C272     1.0000 0.97160  0.71210  0.44407  Biso   1.000  C
  C273     1.0000 0.28790  0.25950  0.44407  Biso   1.000  C
  C274     1.0000 0.25950  0.97160  0.94407  Biso   1.000  C
  C275     1.0000 0.02840  0.28790  0.94407  Biso   1.000  C
  C276     1.0000 0.71210  0.74050  0.94407  Biso   1.000  C
  C277     1.0000 0.79480  0.04460  0.44481  Biso   1.000  C
  C278     1.0000 0.95540  0.75020  0.44481  Biso   1.000  C
  C279     1.0000 0.24980  0.20520  0.44481  Biso   1.000  C
  C280     1.0000 0.20520  0.95540  0.94481  Biso   1.000  C
  C281     1.0000 0.04460  0.24980  0.94481  Biso   1.000  C
  C282     1.0000 0.75020  0.79480  0.94481  Biso   1.000  C
  C283     1.0000 0.81790  0.03830  0.43179  Biso   1.000  C
  C284     1.0000 0.96170  0.77960  0.43179  Biso   1.000  C
  C285     1.0000 0.22040  0.18210  0.43179  Biso   1.000  C
  C286     1.0000 0.18210  0.96170  0.93179  Biso   1.000  C
  C287     1.0000 0.03830  0.22040  0.93179  Biso   1.000  C
  C288     1.0000 0.77960  0.81790  0.93179  Biso   1.000  C
  N55      1.0000 0.63230  0.94700  0.45525  Biso   1.000  N
  N56      1.0000 0.05300  0.68530  0.45525  Biso   1.000  N
  N57      1.0000 0.31470  0.36770  0.45525  Biso   1.000  N
  N58      1.0000 0.36770  0.05300  0.95525  Biso   1.000  N
  N59      1.0000 0.94700  0.31470  0.95525  Biso   1.000  N
  N60      1.0000 0.68530  0.63230  0.95525  Biso   1.000  N
  N61      1.0000 0.65340  0.99860  0.45413  Biso   1.000  N
  N62      1.0000 0.00140  0.65480  0.45413  Biso   1.000  N
  N63      1.0000 0.34520  0.34660  0.45413  Biso   1.000  N
  N64      1.0000 0.34660  0.00140  0.95413  Biso   1.000  N
  N65      1.0000 0.99860  0.34520  0.95413  Biso   1.000  N
  N66      1.0000 0.65480  0.65340  0.95413  Biso   1.000  N
  C289     1.0000 0.61910  0.01210  0.44870  Biso   1.000  C
  C290     1.0000 0.98790  0.60700  0.44870  Biso   1.000  C
  C291     1.0000 0.39300  0.38090  0.44870  Biso   1.000  C
  C292     1.0000 0.38090  0.98790  0.94870  Biso   1.000  C
  C293     1.0000 0.01210  0.39300  0.94870  Biso   1.000  C
  C294     1.0000 0.60700  0.61910  0.94870  Biso   1.000  C
  H229     1.0000 0.62500  0.04660  0.44750  Biso   1.000  H
  H230     1.0000 0.95340  0.57840  0.44750  Biso   1.000  H
  H231     1.0000 0.42160  0.37500  0.44750  Biso   1.000  H
  H232     1.0000 0.37500  0.95340  0.94750  Biso   1.000  H
  H233     1.0000 0.04660  0.42160  0.94750  Biso   1.000  H
  H234     1.0000 0.57840  0.62500  0.94750  Biso   1.000  H
  C295     1.0000 0.57460  0.96680  0.44530  Biso   1.000  C
  C296     1.0000 0.03320  0.60780  0.44530  Biso   1.000  C
  C297     1.0000 0.39220  0.42540  0.44530  Biso   1.000  C
  C298     1.0000 0.42540  0.03320  0.94530  Biso   1.000  C
  C299     1.0000 0.96680  0.39220  0.94530  Biso   1.000  C
  C300     1.0000 0.60780  0.57460  0.94530  Biso   1.000  C
  H235     1.0000 0.54340  0.96320  0.44120  Biso   1.000  H
  H236     1.0000 0.03680  0.58020  0.44120  Biso   1.000  H
  H237     1.0000 0.41980  0.45660  0.44120  Biso   1.000  H
  H238     1.0000 0.45660  0.03680  0.94120  Biso   1.000  H
  H239     1.0000 0.96320  0.41980  0.94120  Biso   1.000  H
  H240     1.0000 0.58020  0.54340  0.94120  Biso   1.000  H
  C301     1.0000 0.58470  0.92650  0.44910  Biso   1.000  C
  C302     1.0000 0.07350  0.65820  0.44910  Biso   1.000  C
  C303     1.0000 0.34180  0.41530  0.44910  Biso   1.000  C
  C304     1.0000 0.41530  0.07350  0.94910  Biso   1.000  C
  C305     1.0000 0.92650  0.34180  0.94910  Biso   1.000  C
  C306     1.0000 0.65820  0.58470  0.94910  Biso   1.000  C
  N67      1.0000 0.56940  0.84240  0.45600  Biso   1.000  N
  N68      1.0000 0.15760  0.72700  0.45600  Biso   1.000  N
  N69      1.0000 0.27300  0.43060  0.45600  Biso   1.000  N
  N70      1.0000 0.43060  0.15760  0.95600  Biso   1.000  N
  N71      1.0000 0.84240  0.27300  0.95600  Biso   1.000  N
  N72      1.0000 0.72700  0.56940  0.95600  Biso   1.000  N
  C307     1.0000 0.55240  0.87020  0.44850  Biso   1.000  C
  C308     1.0000 0.12980  0.68220  0.44850  Biso   1.000  C
  C309     1.0000 0.31780  0.44760  0.44850  Biso   1.000  C
  C310     1.0000 0.44760  0.12980  0.94850  Biso   1.000  C
  C311     1.0000 0.87020  0.31780  0.94850  Biso   1.000  C
  C312     1.0000 0.68220  0.55240  0.94850  Biso   1.000  C
  C313     1.0000 0.50750  0.84590  0.44000  Biso   1.000  C
  C314     1.0000 0.15410  0.66160  0.44000  Biso   1.000  C
  C315     1.0000 0.33840  0.49250  0.44000  Biso   1.000  C
  C316     1.0000 0.49250  0.15410  0.94000  Biso   1.000  C
  C317     1.0000 0.84590  0.33840  0.94000  Biso   1.000  C
  C318     1.0000 0.66160  0.50750  0.94000  Biso   1.000  C
  H241     1.0000 0.49460  0.86570  0.43520  Biso   1.000  H
  H242     1.0000 0.13430  0.62890  0.43520  Biso   1.000  H
  H243     1.0000 0.37110  0.50540  0.43520  Biso   1.000  H
  H244     1.0000 0.50540  0.13430  0.93520  Biso   1.000  H
  H245     1.0000 0.86570  0.37110  0.93520  Biso   1.000  H
  H246     1.0000 0.62890  0.49460  0.93520  Biso   1.000  H
  C319     1.0000 0.48180  0.79140  0.43860  Biso   1.000  C
  C320     1.0000 0.20860  0.69040  0.43860  Biso   1.000  C
  C321     1.0000 0.30960  0.51820  0.43860  Biso   1.000  C
  C322     1.0000 0.51820  0.20860  0.93860  Biso   1.000  C
  C323     1.0000 0.79140  0.30960  0.93860  Biso   1.000  C
  C324     1.0000 0.69040  0.48180  0.93860  Biso   1.000  C
  H247     1.0000 0.45290  0.77370  0.43220  Biso   1.000  H
  H248     1.0000 0.22630  0.67920  0.43220  Biso   1.000  H
  H249     1.0000 0.32080  0.54710  0.43220  Biso   1.000  H
  H250     1.0000 0.54710  0.22630  0.93220  Biso   1.000  H
  H251     1.0000 0.77370  0.32080  0.93220  Biso   1.000  H
  H252     1.0000 0.67920  0.45290  0.93220  Biso   1.000  H
  C325     1.0000 0.49890  0.76430  0.44650  Biso   1.000  C
  C326     1.0000 0.23570  0.73460  0.44650  Biso   1.000  C
  C327     1.0000 0.26540  0.50110  0.44650  Biso   1.000  C
  C328     1.0000 0.50110  0.23570  0.94650  Biso   1.000  C
  C329     1.0000 0.76430  0.26540  0.94650  Biso   1.000  C
  C330     1.0000 0.73460  0.49890  0.94650  Biso   1.000  C
  H253     1.0000 0.48130  0.72730  0.44590  Biso   1.000  H
  H254     1.0000 0.27270  0.75400  0.44590  Biso   1.000  H
  H255     1.0000 0.24600  0.51870  0.44590  Biso   1.000  H
  H256     1.0000 0.51870  0.27270  0.94590  Biso   1.000  H
  H257     1.0000 0.72730  0.24600  0.94590  Biso   1.000  H
  H258     1.0000 0.75400  0.48130  0.94590  Biso   1.000  H
  C331     1.0000 0.54200  0.79040  0.45560  Biso   1.000  C
  C332     1.0000 0.20960  0.75160  0.45560  Biso   1.000  C
  C333     1.0000 0.24840  0.45800  0.45560  Biso   1.000  C
  C334     1.0000 0.45800  0.20960  0.95560  Biso   1.000  C
  C335     1.0000 0.79040  0.24840  0.95560  Biso   1.000  C
  C336     1.0000 0.75160  0.54200  0.95560  Biso   1.000  C
  H259     1.0000 0.55210  0.77080  0.46160  Biso   1.000  H
  H260     1.0000 0.22920  0.78130  0.46160  Biso   1.000  H
  H261     1.0000 0.21870  0.44790  0.46160  Biso   1.000  H
  H262     1.0000 0.44790  0.22920  0.96160  Biso   1.000  H
  H263     1.0000 0.77080  0.21870  0.96160  Biso   1.000  H
  H264     1.0000 0.78130  0.55210  0.96160  Biso   1.000  H
  N73      1.0000 0.69190  0.89490  0.45838  Biso   1.000  N
  N74      1.0000 0.10510  0.79700  0.45838  Biso   1.000  N
  N75      1.0000 0.20300  0.30810  0.45838  Biso   1.000  N
  N76      1.0000 0.30810  0.10510  0.95838  Biso   1.000  N
  N77      1.0000 0.89490  0.20300  0.95838  Biso   1.000  N
  N78      1.0000 0.79700  0.69190  0.95838  Biso   1.000  N
  C337     1.0000 0.74010  0.92000  0.46440  Biso   1.000  C
  C338     1.0000 0.08000  0.82010  0.46440  Biso   1.000  C
  C339     1.0000 0.17990  0.25990  0.46440  Biso   1.000  C
  C340     1.0000 0.25990  0.08000  0.96440  Biso   1.000  C
  C341     1.0000 0.92000  0.17990  0.96440  Biso   1.000  C
  C342     1.0000 0.82010  0.74010  0.96440  Biso   1.000  C
  C343     1.0000 0.78430  0.92940  0.45661  Biso   1.000  C
  C344     1.0000 0.07060  0.85490  0.45661  Biso   1.000  C
  C345     1.0000 0.14510  0.21570  0.45661  Biso   1.000  C
  C346     1.0000 0.21570  0.07060  0.95661  Biso   1.000  C
  C347     1.0000 0.92940  0.14510  0.95661  Biso   1.000  C
  C348     1.0000 0.85490  0.78430  0.95661  Biso   1.000  C
  H265     1.0000 0.81790  0.94680  0.46100  Biso   1.000  H
  H266     1.0000 0.05320  0.87110  0.46100  Biso   1.000  H
  H267     1.0000 0.12890  0.18210  0.46100  Biso   1.000  H
  H268     1.0000 0.18210  0.05320  0.96100  Biso   1.000  H
  H269     1.0000 0.94680  0.12890  0.96100  Biso   1.000  H
  H270     1.0000 0.87110  0.81790  0.96100  Biso   1.000  H
  C349     1.0000 0.77810  0.91260  0.44209  Biso   1.000  C
  C350     1.0000 0.08740  0.86550  0.44209  Biso   1.000  C
  C351     1.0000 0.13450  0.22190  0.44209  Biso   1.000  C
  C352     1.0000 0.22190  0.08740  0.94209  Biso   1.000  C
  C353     1.0000 0.91260  0.13450  0.94209  Biso   1.000  C
  C354     1.0000 0.86550  0.77810  0.94209  Biso   1.000  C
  H271     1.0000 0.80750  0.91940  0.43630  Biso   1.000  H
  H272     1.0000 0.08060  0.88810  0.43630  Biso   1.000  H
  H273     1.0000 0.11190  0.19250  0.43630  Biso   1.000  H
  H274     1.0000 0.19250  0.08060  0.93630  Biso   1.000  H
  H275     1.0000 0.91940  0.11190  0.93630  Biso   1.000  H
  H276     1.0000 0.88810  0.80750  0.93630  Biso   1.000  H
  C355     1.0000 0.72940  0.88650  0.43643  Biso   1.000  C
  C356     1.0000 0.11350  0.84290  0.43643  Biso   1.000  C
  C357     1.0000 0.15710  0.27060  0.43643  Biso   1.000  C
  C358     1.0000 0.27060  0.11350  0.93643  Biso   1.000  C
  C359     1.0000 0.88650  0.15710  0.93643  Biso   1.000  C
  C360     1.0000 0.84290  0.72940  0.93643  Biso   1.000  C
  H277     1.0000 0.72460  0.87560  0.42650  Biso   1.000  H
  H278     1.0000 0.12440  0.84900  0.42650  Biso   1.000  H
  H279     1.0000 0.15100  0.27540  0.42650  Biso   1.000  H
  H280     1.0000 0.27540  0.12440  0.92650  Biso   1.000  H
  H281     1.0000 0.87560  0.15100  0.92650  Biso   1.000  H
  H282     1.0000 0.84900  0.72460  0.92650  Biso   1.000  H
  C361     1.0000 0.68660  0.87550  0.44498  Biso   1.000  C
  C362     1.0000 0.12450  0.81110  0.44498  Biso   1.000  C
  C363     1.0000 0.18890  0.31340  0.44498  Biso   1.000  C
  C364     1.0000 0.31340  0.12450  0.94498  Biso   1.000  C
  C365     1.0000 0.87550  0.18890  0.94498  Biso   1.000  C
  C366     1.0000 0.81110  0.68660  0.94498  Biso   1.000  C
  H283     1.0000 0.65250  0.85350  0.44120  Biso   1.000  H
  H284     1.0000 0.14650  0.79900  0.44120  Biso   1.000  H
  H285     1.0000 0.20100  0.34750  0.44120  Biso   1.000  H
  H286     1.0000 0.34750  0.14650  0.94120  Biso   1.000  H
  H287     1.0000 0.85350  0.20100  0.94120  Biso   1.000  H
  H288     1.0000 0.79900  0.65250  0.94120  Biso   1.000  H
  N79      1.0000 0.70210  0.94140  0.48447  Biso   1.000  N
  N80      1.0000 0.05860  0.76070  0.48447  Biso   1.000  N
  N81      1.0000 0.23930  0.29790  0.48447  Biso   1.000  N
  N82      1.0000 0.29790  0.05860  0.98447  Biso   1.000  N
  N83      1.0000 0.94140  0.23930  0.98447  Biso   1.000  N
  N84      1.0000 0.76070  0.70210  0.98447  Biso   1.000  N
  N85      1.0000 0.71640  0.96300  0.49763  Biso   1.000  N
  N86      1.0000 0.03700  0.75340  0.49763  Biso   1.000  N
  N87      1.0000 0.24660  0.28360  0.49763  Biso   1.000  N
  N88      1.0000 0.28360  0.03700  0.99763  Biso   1.000  N
  N89      1.0000 0.96300  0.24660  0.99763  Biso   1.000  N
  N90      1.0000 0.75340  0.71640  0.99763  Biso   1.000  N
  C367     1.0000 0.76630  0.97620  0.50076  Biso   1.000  C
  C368     1.0000 0.02380  0.79010  0.50076  Biso   1.000  C
  C369     1.0000 0.20990  0.23370  0.50076  Biso   1.000  C
  C370     1.0000 0.23370  0.02380  0.00076  Biso   1.000  C
  C371     1.0000 0.97620  0.20990  0.00076  Biso   1.000  C
  C372     1.0000 0.79010  0.76630  0.00076  Biso   1.000  C
  H289     1.0000 0.78470  0.99240  0.50950  Biso   1.000  H
  H290     1.0000 0.00760  0.79230  0.50950  Biso   1.000  H
  H291     1.0000 0.20770  0.21530  0.50950  Biso   1.000  H
  H292     1.0000 0.21530  0.00760  0.00950  Biso   1.000  H
  H293     1.0000 0.99240  0.20770  0.00950  Biso   1.000  H
  H294     1.0000 0.79230  0.78470  0.00950  Biso   1.000  H
  C373     1.0000 0.78510  0.96210  0.48909  Biso   1.000  C
  C374     1.0000 0.03790  0.82300  0.48909  Biso   1.000  C
  C375     1.0000 0.17700  0.21490  0.48909  Biso   1.000  C
  C376     1.0000 0.21490  0.03790  0.98909  Biso   1.000  C
  C377     1.0000 0.96210  0.17700  0.98909  Biso   1.000  C
  C378     1.0000 0.82300  0.78510  0.98909  Biso   1.000  C
  H295     1.0000 0.81910  0.96680  0.48790  Biso   1.000  H
  H296     1.0000 0.03320  0.85230  0.48790  Biso   1.000  H
  H297     1.0000 0.14770  0.18090  0.48790  Biso   1.000  H
  H298     1.0000 0.18090  0.03320  0.98790  Biso   1.000  H
  H299     1.0000 0.96680  0.14770  0.98790  Biso   1.000  H
  H300     1.0000 0.85230  0.81910  0.98790  Biso   1.000  H
  C379     1.0000 0.74320  0.93910  0.47914  Biso   1.000  C
  C380     1.0000 0.06090  0.80410  0.47914  Biso   1.000  C
  C381     1.0000 0.19590  0.25680  0.47914  Biso   1.000  C
  C382     1.0000 0.25680  0.06090  0.97914  Biso   1.000  C
  C383     1.0000 0.93910  0.19590  0.97914  Biso   1.000  C
  C384     1.0000 0.80410  0.74320  0.97914  Biso   1.000  C
  C385     1.0000 0.67960  0.96720  0.50700  Biso   1.000  C
  C386     1.0000 0.03280  0.71240  0.50700  Biso   1.000  C
  C387     1.0000 0.28760  0.32040  0.50700  Biso   1.000  C
  C388     1.0000 0.32040  0.03280  0.00700  Biso   1.000  C
  C389     1.0000 0.96720  0.28760  0.00700  Biso   1.000  C
  C390     1.0000 0.71240  0.67960  0.00700  Biso   1.000  C
  H301     1.0000 0.65320  0.96850  0.50060  Biso   1.000  H
  H302     1.0000 0.03150  0.68470  0.50060  Biso   1.000  H
  H303     1.0000 0.31530  0.34680  0.50060  Biso   1.000  H
  H304     1.0000 0.34680  0.03150  0.00060  Biso   1.000  H
  H305     1.0000 0.96850  0.31530  0.00060  Biso   1.000  H
  H306     1.0000 0.68470  0.65320  0.00060  Biso   1.000  H
  H307     1.0000 0.69860  0.00150  0.51200  Biso   1.000  H
  H308     1.0000 0.99850  0.69710  0.51200  Biso   1.000  H
  H309     1.0000 0.30290  0.30140  0.51200  Biso   1.000  H
  H310     1.0000 0.30140  0.99850  0.01200  Biso   1.000  H
  H311     1.0000 0.00150  0.30290  0.01200  Biso   1.000  H
  H312     1.0000 0.69710  0.69860  0.01200  Biso   1.000  H
  C391     1.0000 0.62610  0.02110  0.51980  Biso   1.000  C
  C392     1.0000 0.97890  0.60500  0.51980  Biso   1.000  C
  C393     1.0000 0.39500  0.37390  0.51980  Biso   1.000  C
  C394     1.0000 0.37390  0.97890  0.01980  Biso   1.000  C
  C395     1.0000 0.02110  0.39500  0.01980  Biso   1.000  C
  C396     1.0000 0.60500  0.62610  0.01980  Biso   1.000  C
  H313     1.0000 0.66470  0.03820  0.51960  Biso   1.000  H
  H314     1.0000 0.96180  0.62650  0.51960  Biso   1.000  H
  H315     1.0000 0.37350  0.33530  0.51960  Biso   1.000  H
  H316     1.0000 0.33530  0.96180  0.01960  Biso   1.000  H
  H317     1.0000 0.03820  0.37350  0.01960  Biso   1.000  H
  H318     1.0000 0.62650  0.66470  0.01960  Biso   1.000  H
  H319     1.0000 0.61300  0.01150  0.50970  Biso   1.000  H
  H320     1.0000 0.98850  0.60150  0.50970  Biso   1.000  H
  H321     1.0000 0.39850  0.38700  0.50970  Biso   1.000  H
  H322     1.0000 0.38700  0.98850  0.00970  Biso   1.000  H
  H323     1.0000 0.01150  0.39850  0.00970  Biso   1.000  H
  H324     1.0000 0.60150  0.61300  0.00970  Biso   1.000  H
  C397     1.0000 0.65100  0.92770  0.51824  Biso   1.000  C
  C398     1.0000 0.07230  0.72330  0.51824  Biso   1.000  C
  C399     1.0000 0.27670  0.34900  0.51824  Biso   1.000  C
  C400     1.0000 0.34900  0.07230  0.01824  Biso   1.000  C
  C401     1.0000 0.92770  0.27670  0.01824  Biso   1.000  C
  C402     1.0000 0.72330  0.65100  0.01824  Biso   1.000  C
  C403     1.0000 0.66130  0.88840  0.51835  Biso   1.000  C
  C404     1.0000 0.11160  0.77290  0.51835  Biso   1.000  C
  C405     1.0000 0.22710  0.33870  0.51835  Biso   1.000  C
  C406     1.0000 0.33870  0.11160  0.01835  Biso   1.000  C
  C407     1.0000 0.88840  0.22710  0.01835  Biso   1.000  C
  C408     1.0000 0.77290  0.66130  0.01835  Biso   1.000  C
  H325     1.0000 0.68350  0.88730  0.51100  Biso   1.000  H
  H326     1.0000 0.11270  0.79620  0.51100  Biso   1.000  H
  H327     1.0000 0.20380  0.31650  0.51100  Biso   1.000  H
  H328     1.0000 0.31650  0.11270  0.01100  Biso   1.000  H
  H329     1.0000 0.88730  0.20380  0.01100  Biso   1.000  H
  H330     1.0000 0.79620  0.68350  0.01100  Biso   1.000  H
  C409     1.0000 0.64000  0.84820  0.52910  Biso   1.000  C
  C410     1.0000 0.15180  0.79180  0.52910  Biso   1.000  C
  C411     1.0000 0.20820  0.36000  0.52910  Biso   1.000  C
  C412     1.0000 0.36000  0.15180  0.02910  Biso   1.000  C
  C413     1.0000 0.84820  0.20820  0.02910  Biso   1.000  C
  C414     1.0000 0.79180  0.64000  0.02910  Biso   1.000  C
  H331     1.0000 0.65250  0.82430  0.53020  Biso   1.000  H
  H332     1.0000 0.17570  0.82820  0.53020  Biso   1.000  H
  H333     1.0000 0.17180  0.34750  0.53020  Biso   1.000  H
  H334     1.0000 0.34750  0.17570  0.03020  Biso   1.000  H
  H335     1.0000 0.82430  0.17180  0.03020  Biso   1.000  H
  H336     1.0000 0.82820  0.65250  0.03020  Biso   1.000  H
  C415     1.0000 0.60170  0.84510  0.53775  Biso   1.000  C
  C416     1.0000 0.15490  0.75660  0.53775  Biso   1.000  C
  C417     1.0000 0.24340  0.39830  0.53775  Biso   1.000  C
  C418     1.0000 0.39830  0.15490  0.03775  Biso   1.000  C
  C419     1.0000 0.84510  0.24340  0.03775  Biso   1.000  C
  C420     1.0000 0.75660  0.60170  0.03775  Biso   1.000  C
  H337     1.0000 0.58380  0.81610  0.54410  Biso   1.000  H
  H338     1.0000 0.18390  0.76770  0.54410  Biso   1.000  H
  H339     1.0000 0.23230  0.41620  0.54410  Biso   1.000  H
  H340     1.0000 0.41620  0.18390  0.04410  Biso   1.000  H
  H341     1.0000 0.81610  0.23230  0.04410  Biso   1.000  H
  H342     1.0000 0.76770  0.58380  0.04410  Biso   1.000  H
  C421     1.0000 0.55120  0.88070  0.54775  Biso   1.000  C
  C422     1.0000 0.11930  0.67050  0.54775  Biso   1.000  C
  C423     1.0000 0.32950  0.44880  0.54775  Biso   1.000  C
  C424     1.0000 0.44880  0.11930  0.04775  Biso   1.000  C
  C425     1.0000 0.88070  0.32950  0.04775  Biso   1.000  C
  C426     1.0000 0.67050  0.55120  0.04775  Biso   1.000  C
  H343     1.0000 0.53400  0.85070  0.55380  Biso   1.000  H
  H344     1.0000 0.14930  0.68330  0.55380  Biso   1.000  H
  H345     1.0000 0.31670  0.46600  0.55380  Biso   1.000  H
  H346     1.0000 0.46600  0.14930  0.05380  Biso   1.000  H
  H347     1.0000 0.85070  0.31670  0.05380  Biso   1.000  H
  H348     1.0000 0.68330  0.53400  0.05380  Biso   1.000  H
  C427     1.0000 0.54000  0.91920  0.54927  Biso   1.000  C
  C428     1.0000 0.08080  0.62080  0.54927  Biso   1.000  C
  C429     1.0000 0.37920  0.46000  0.54927  Biso   1.000  C
  C430     1.0000 0.46000  0.08080  0.04927  Biso   1.000  C
  C431     1.0000 0.91920  0.37920  0.04927  Biso   1.000  C
  C432     1.0000 0.62080  0.54000  0.04927  Biso   1.000  C
  H349     1.0000 0.51590  0.91710  0.55650  Biso   1.000  H
  H350     1.0000 0.08290  0.59880  0.55650  Biso   1.000  H
  H351     1.0000 0.40120  0.48410  0.55650  Biso   1.000  H
  H352     1.0000 0.48410  0.08290  0.05650  Biso   1.000  H
  H353     1.0000 0.91710  0.40120  0.05650  Biso   1.000  H
  H354     1.0000 0.59880  0.51590  0.05650  Biso   1.000  H
  C433     1.0000 0.56490  0.96330  0.53981  Biso   1.000  C
  C434     1.0000 0.03670  0.60160  0.53981  Biso   1.000  C
  C435     1.0000 0.39840  0.43510  0.53981  Biso   1.000  C
  C436     1.0000 0.43510  0.03670  0.03981  Biso   1.000  C
  C437     1.0000 0.96330  0.39840  0.03981  Biso   1.000  C
  C438     1.0000 0.60160  0.56490  0.03981  Biso   1.000  C
  H355     1.0000 0.55540  0.98960  0.54040  Biso   1.000  H
  H356     1.0000 0.01040  0.56580  0.54040  Biso   1.000  H
  H357     1.0000 0.43420  0.44460  0.54040  Biso   1.000  H
  H358     1.0000 0.44460  0.01040  0.04040  Biso   1.000  H
  H359     1.0000 0.98960  0.43420  0.04040  Biso   1.000  H
  H360     1.0000 0.56580  0.55540  0.04040  Biso   1.000  H
  C439     1.0000 0.60130  0.96880  0.53011  Biso   1.000  C
  C440     1.0000 0.03120  0.63250  0.53011  Biso   1.000  C
  C441     1.0000 0.36750  0.39870  0.53011  Biso   1.000  C
  C442     1.0000 0.39870  0.03120  0.03011  Biso   1.000  C
  C443     1.0000 0.96880  0.36750  0.03011  Biso   1.000  C
  C444     1.0000 0.63250  0.60130  0.03011  Biso   1.000  C
  C445     1.0000 0.61480  0.92870  0.52845  Biso   1.000  C
  C446     1.0000 0.07130  0.68610  0.52845  Biso   1.000  C
  C447     1.0000 0.31390  0.38520  0.52845  Biso   1.000  C
  C448     1.0000 0.38520  0.07130  0.02845  Biso   1.000  C
  C449     1.0000 0.92870  0.31390  0.02845  Biso   1.000  C
  C450     1.0000 0.68610  0.61480  0.02845  Biso   1.000  C
  C451     1.0000 0.58760  0.88370  0.53753  Biso   1.000  C
  C452     1.0000 0.11630  0.70390  0.53753  Biso   1.000  C
  C453     1.0000 0.29610  0.41240  0.53753  Biso   1.000  C
  C454     1.0000 0.41240  0.11630  0.03753  Biso   1.000  C
  C455     1.0000 0.88370  0.29610  0.03753  Biso   1.000  C
  C456     1.0000 0.70390  0.58760  0.03753  Biso   1.000  C
  N91      1.0000 0.63460  0.08880  0.53712  Biso   1.000  N
  N92      1.0000 0.91120  0.54580  0.53712  Biso   1.000  N
  N93      1.0000 0.45420  0.36540  0.53712  Biso   1.000  N
  N94      1.0000 0.36540  0.91120  0.03712  Biso   1.000  N
  N95      1.0000 0.08880  0.45420  0.03712  Biso   1.000  N
  N96      1.0000 0.54580  0.63460  0.03712  Biso   1.000  N
  N97      1.0000 0.60960  0.05660  0.52603  Biso   1.000  N
  N98      1.0000 0.94340  0.55300  0.52603  Biso   1.000  N
  N99      1.0000 0.44700  0.39040  0.52603  Biso   1.000  N
  N100     1.0000 0.39040  0.94340  0.02603  Biso   1.000  N
  N101     1.0000 0.05660  0.44700  0.02603  Biso   1.000  N
  N102     1.0000 0.55300  0.60960  0.02603  Biso   1.000  N
  C457     1.0000 0.56520  0.05680  0.52252  Biso   1.000  C
  C458     1.0000 0.94320  0.50840  0.52252  Biso   1.000  C
  C459     1.0000 0.49160  0.43480  0.52252  Biso   1.000  C
  C460     1.0000 0.43480  0.94320  0.02252  Biso   1.000  C
  C461     1.0000 0.05680  0.49160  0.02252  Biso   1.000  C
  C462     1.0000 0.50840  0.56520  0.02252  Biso   1.000  C
  H361     1.0000 0.54090  0.03630  0.51520  Biso   1.000  H
  H362     1.0000 0.96370  0.50460  0.51520  Biso   1.000  H
  H363     1.0000 0.49540  0.45910  0.51520  Biso   1.000  H
  H364     1.0000 0.45910  0.96370  0.01520  Biso   1.000  H
  H365     1.0000 0.03630  0.49540  0.01520  Biso   1.000  H
  H366     1.0000 0.50460  0.54090  0.01520  Biso   1.000  H
  C463     1.0000 0.56190  0.09170  0.53149  Biso   1.000  C
  C464     1.0000 0.90830  0.47020  0.53149  Biso   1.000  C
  C465     1.0000 0.52980  0.43810  0.53149  Biso   1.000  C
  C466     1.0000 0.43810  0.90830  0.03149  Biso   1.000  C
  C467     1.0000 0.09170  0.52980  0.03149  Biso   1.000  C
  C468     1.0000 0.47020  0.56190  0.03149  Biso   1.000  C
  H367     1.0000 0.53580  0.10160  0.53140  Biso   1.000  H
  H368     1.0000 0.89840  0.43420  0.53140  Biso   1.000  H
  H369     1.0000 0.56580  0.46420  0.53140  Biso   1.000  H
  H370     1.0000 0.46420  0.89840  0.03140  Biso   1.000  H
  H371     1.0000 0.10160  0.56580  0.03140  Biso   1.000  H
  H372     1.0000 0.43420  0.53580  0.03140  Biso   1.000  H
  C469     1.0000 0.60530  0.11010  0.54083  Biso   1.000  C
  C470     1.0000 0.88990  0.49520  0.54083  Biso   1.000  C
  C471     1.0000 0.50480  0.39470  0.54083  Biso   1.000  C
  C472     1.0000 0.39470  0.88990  0.04083  Biso   1.000  C
  C473     1.0000 0.11010  0.50480  0.04083  Biso   1.000  C
  C474     1.0000 0.49520  0.60530  0.04083  Biso   1.000  C
  N103     1.0000 0.66630  0.15530  0.55990  Biso   1.000  N
  N104     1.0000 0.84470  0.51100  0.55990  Biso   1.000  N
  N105     1.0000 0.48900  0.33370  0.55990  Biso   1.000  N
  N106     1.0000 0.33370  0.84470  0.05990  Biso   1.000  N
  N107     1.0000 0.15530  0.48900  0.05990  Biso   1.000  N
  N108     1.0000 0.51100  0.66630  0.05990  Biso   1.000  N
  C475     1.0000 0.62230  0.14650  0.55296  Biso   1.000  C
  C476     1.0000 0.85350  0.47580  0.55296  Biso   1.000  C
  C477     1.0000 0.52420  0.37770  0.55296  Biso   1.000  C
  C478     1.0000 0.37770  0.85350  0.05296  Biso   1.000  C
  C479     1.0000 0.14650  0.52420  0.05296  Biso   1.000  C
  C480     1.0000 0.47580  0.62230  0.05296  Biso   1.000  C
  C481     1.0000 0.59670  0.17360  0.55660  Biso   1.000  C
  C482     1.0000 0.82640  0.42310  0.55660  Biso   1.000  C
  C483     1.0000 0.57690  0.40330  0.55660  Biso   1.000  C
  C484     1.0000 0.40330  0.82640  0.05660  Biso   1.000  C
  C485     1.0000 0.17360  0.57690  0.05660  Biso   1.000  C
  C486     1.0000 0.42310  0.59670  0.05660  Biso   1.000  C
  H373     1.0000 0.56820  0.17010  0.55090  Biso   1.000  H
  H374     1.0000 0.82990  0.39810  0.55090  Biso   1.000  H
  H375     1.0000 0.60190  0.43180  0.55090  Biso   1.000  H
  H376     1.0000 0.43180  0.82990  0.05090  Biso   1.000  H
  H377     1.0000 0.17010  0.60190  0.05090  Biso   1.000  H
  H378     1.0000 0.39810  0.56820  0.05090  Biso   1.000  H
  C487     1.0000 0.61400  0.20620  0.56886  Biso   1.000  C
  C488     1.0000 0.79380  0.40780  0.56886  Biso   1.000  C
  C489     1.0000 0.59220  0.38600  0.56886  Biso   1.000  C
  C490     1.0000 0.38600  0.79380  0.06886  Biso   1.000  C
  C491     1.0000 0.20620  0.59220  0.06886  Biso   1.000  C
  C492     1.0000 0.40780  0.61400  0.06886  Biso   1.000  C
  H379     1.0000 0.59780  0.22570  0.57170  Biso   1.000  H
  H380     1.0000 0.77430  0.37210  0.57170  Biso   1.000  H
  H381     1.0000 0.62790  0.40220  0.57170  Biso   1.000  H
  H382     1.0000 0.40220  0.77430  0.07170  Biso   1.000  H
  H383     1.0000 0.22570  0.62790  0.07170  Biso   1.000  H
  H384     1.0000 0.37210  0.59780  0.07170  Biso   1.000  H
  C493     1.0000 0.65430  0.20930  0.57663  Biso   1.000  C
  C494     1.0000 0.79070  0.44500  0.57663  Biso   1.000  C
  C495     1.0000 0.55500  0.34570  0.57663  Biso   1.000  C
  C496     1.0000 0.34570  0.79070  0.07663  Biso   1.000  C
  C497     1.0000 0.20930  0.55500  0.07663  Biso   1.000  C
  C498     1.0000 0.44500  0.65430  0.07663  Biso   1.000  C
  H385     1.0000 0.66320  0.22680  0.58580  Biso   1.000  H
  H386     1.0000 0.77320  0.43640  0.58580  Biso   1.000  H
  H387     1.0000 0.56360  0.33680  0.58580  Biso   1.000  H
  H388     1.0000 0.33680  0.77320  0.08580  Biso   1.000  H
  H389     1.0000 0.22680  0.56360  0.08580  Biso   1.000  H
  H390     1.0000 0.43640  0.66320  0.08580  Biso   1.000  H
  C499     1.0000 0.68290  0.18710  0.57137  Biso   1.000  C
  C500     1.0000 0.81290  0.49580  0.57137  Biso   1.000  C
  C501     1.0000 0.50420  0.31710  0.57137  Biso   1.000  C
  C502     1.0000 0.31710  0.81290  0.07137  Biso   1.000  C
  C503     1.0000 0.18710  0.50420  0.07137  Biso   1.000  C
  C504     1.0000 0.49580  0.68290  0.07137  Biso   1.000  C
  H391     1.0000 0.71470  0.19480  0.57600  Biso   1.000  H
  H392     1.0000 0.80520  0.51990  0.57600  Biso   1.000  H
  H393     1.0000 0.48010  0.28530  0.57600  Biso   1.000  H
  H394     1.0000 0.28530  0.80520  0.07600  Biso   1.000  H
  H395     1.0000 0.19480  0.48010  0.07600  Biso   1.000  H
  H396     1.0000 0.51990  0.71470  0.07600  Biso   1.000  H
  N109     1.0000 0.30480  0.41990  0.48490  Biso   1.000  N
  N110     1.0000 0.58010  0.88490  0.48490  Biso   1.000  N
  N111     1.0000 0.11510  0.69520  0.48490  Biso   1.000  N
  N112     1.0000 0.69520  0.58010  0.98490  Biso   1.000  N
  N113     1.0000 0.41990  0.11510  0.98490  Biso   1.000  N
  N114     1.0000 0.88490  0.30480  0.98490  Biso   1.000  N
  C505     1.0000 0.28520  0.44200  0.49387  Biso   1.000  C
  C506     1.0000 0.55800  0.84320  0.49387  Biso   1.000  C
  C507     1.0000 0.15680  0.71480  0.49387  Biso   1.000  C
  C508     1.0000 0.71480  0.55800  0.99387  Biso   1.000  C
  C509     1.0000 0.44200  0.15680  0.99387  Biso   1.000  C
  C510     1.0000 0.84320  0.28520  0.99387  Biso   1.000  C
  C511     1.0000 0.31570  0.47890  0.50429  Biso   1.000  C
  C512     1.0000 0.52110  0.83680  0.50429  Biso   1.000  C
  C513     1.0000 0.16320  0.68430  0.50429  Biso   1.000  C
  C514     1.0000 0.68430  0.52110  0.00429  Biso   1.000  C
  C515     1.0000 0.47890  0.16320  0.00429  Biso   1.000  C
  C516     1.0000 0.83680  0.31570  0.00429  Biso   1.000  C
  H397     1.0000 0.30080  0.49260  0.51090  Biso   1.000  H
  H398     1.0000 0.50740  0.80820  0.51090  Biso   1.000  H
  H399     1.0000 0.19180  0.69920  0.51090  Biso   1.000  H
  H400     1.0000 0.69920  0.50740  0.01090  Biso   1.000  H
  H401     1.0000 0.49260  0.19180  0.01090  Biso   1.000  H
  H402     1.0000 0.80820  0.30080  0.01090  Biso   1.000  H
  C517     1.0000 0.36910  0.49530  0.50470  Biso   1.000  C
  C518     1.0000 0.50470  0.87380  0.50470  Biso   1.000  C
  C519     1.0000 0.12620  0.63090  0.50470  Biso   1.000  C
  C520     1.0000 0.63090  0.50470  0.00470  Biso   1.000  C
  C521     1.0000 0.49530  0.12620  0.00470  Biso   1.000  C
  C522     1.0000 0.87380  0.36910  0.00470  Biso   1.000  C
  H403     1.0000 0.39200  0.52280  0.51100  Biso   1.000  H
  H404     1.0000 0.47720  0.86920  0.51100  Biso   1.000  H
  H405     1.0000 0.13080  0.60800  0.51100  Biso   1.000  H
  H406     1.0000 0.60800  0.47720  0.01100  Biso   1.000  H
  H407     1.0000 0.52280  0.13080  0.01100  Biso   1.000  H
  H408     1.0000 0.86920  0.39200  0.01100  Biso   1.000  H
  C523     1.0000 0.38750  0.47130  0.49597  Biso   1.000  C
  C524     1.0000 0.52870  0.91620  0.49597  Biso   1.000  C
  C525     1.0000 0.08380  0.61250  0.49597  Biso   1.000  C
  C526     1.0000 0.61250  0.52870  0.99597  Biso   1.000  C
  C527     1.0000 0.47130  0.08380  0.99597  Biso   1.000  C
  C528     1.0000 0.91620  0.38750  0.99597  Biso   1.000  C
  H409     1.0000 0.42320  0.48070  0.49650  Biso   1.000  H
  H410     1.0000 0.51930  0.94250  0.49650  Biso   1.000  H
  H411     1.0000 0.05750  0.57680  0.49650  Biso   1.000  H
  H412     1.0000 0.57680  0.51930  0.99650  Biso   1.000  H
  H413     1.0000 0.48070  0.05750  0.99650  Biso   1.000  H
  H414     1.0000 0.94250  0.42320  0.99650  Biso   1.000  H
  C529     1.0000 0.35490  0.43300  0.48620  Biso   1.000  C
  C530     1.0000 0.56700  0.92190  0.48620  Biso   1.000  C
  C531     1.0000 0.07810  0.64510  0.48620  Biso   1.000  C
  C532     1.0000 0.64510  0.56700  0.98620  Biso   1.000  C
  C533     1.0000 0.43300  0.07810  0.98620  Biso   1.000  C
  C534     1.0000 0.92190  0.35490  0.98620  Biso   1.000  C
  H415     1.0000 0.36840  0.41590  0.48040  Biso   1.000  H
  H416     1.0000 0.58410  0.95250  0.48040  Biso   1.000  H
  H417     1.0000 0.04750  0.63160  0.48040  Biso   1.000  H
  H418     1.0000 0.63160  0.58410  0.98040  Biso   1.000  H
  H419     1.0000 0.41590  0.04750  0.98040  Biso   1.000  H
  H420     1.0000 0.95250  0.36840  0.98040  Biso   1.000  H
  N115     1.0000 0.20090  0.38260  0.48387  Biso   1.000  N
  N116     1.0000 0.61740  0.81830  0.48387  Biso   1.000  N
  N117     1.0000 0.18170  0.79910  0.48387  Biso   1.000  N
  N118     1.0000 0.79910  0.61740  0.98387  Biso   1.000  N
  N119     1.0000 0.38260  0.18170  0.98387  Biso   1.000  N
  N120     1.0000 0.81830  0.20090  0.98387  Biso   1.000  N
  N121     1.0000 0.15280  0.37560  0.48431  Biso   1.000  N
  N122     1.0000 0.62440  0.77720  0.48431  Biso   1.000  N
  N123     1.0000 0.22280  0.84720  0.48431  Biso   1.000  N
  N124     1.0000 0.84720  0.62440  0.98431  Biso   1.000  N
  N125     1.0000 0.37560  0.22280  0.98431  Biso   1.000  N
  N126     1.0000 0.77720  0.15280  0.98431  Biso   1.000  N
  C535     1.0000 0.15010  0.41200  0.49260  Biso   1.000  C
  C536     1.0000 0.58800  0.73810  0.49260  Biso   1.000  C
  C537     1.0000 0.26190  0.84990  0.49260  Biso   1.000  C
  C538     1.0000 0.84990  0.58800  0.99260  Biso   1.000  C
  C539     1.0000 0.41200  0.26190  0.99260  Biso   1.000  C
  C540     1.0000 0.73810  0.15010  0.99260  Biso   1.000  C
  H421     1.0000 0.11950  0.41370  0.49480  Biso   1.000  H
  H422     1.0000 0.58630  0.70580  0.49480  Biso   1.000  H
  H423     1.0000 0.29420  0.88050  0.49480  Biso   1.000  H
  H424     1.0000 0.88050  0.58630  0.99480  Biso   1.000  H
  H425     1.0000 0.41370  0.29420  0.99480  Biso   1.000  H
  H426     1.0000 0.70580  0.11950  0.99480  Biso   1.000  H
  C541     1.0000 0.19960  0.44560  0.49740  Biso   1.000  C
  C542     1.0000 0.55440  0.75400  0.49740  Biso   1.000  C
  C543     1.0000 0.24600  0.80040  0.49740  Biso   1.000  C
  C544     1.0000 0.80040  0.55440  0.99740  Biso   1.000  C
  C545     1.0000 0.44560  0.24600  0.99740  Biso   1.000  C
  C546     1.0000 0.75400  0.19960  0.99740  Biso   1.000  C
  H427     1.0000 0.21040  0.47520  0.50350  Biso   1.000  H
  H428     1.0000 0.52480  0.73520  0.50350  Biso   1.000  H
  H429     1.0000 0.26480  0.78960  0.50350  Biso   1.000  H
  H430     1.0000 0.78960  0.52480  0.00350  Biso   1.000  H
  H431     1.0000 0.47520  0.26480  0.00350  Biso   1.000  H
  H432     1.0000 0.73520  0.21040  0.00350  Biso   1.000  H
  C547     1.0000 0.23100  0.42710  0.49131  Biso   1.000  C
  C548     1.0000 0.57290  0.80390  0.49131  Biso   1.000  C
  C549     1.0000 0.19610  0.76900  0.49131  Biso   1.000  C
  C550     1.0000 0.76900  0.57290  0.99131  Biso   1.000  C
  C551     1.0000 0.42710  0.19610  0.99131  Biso   1.000  C
  C552     1.0000 0.80390  0.23100  0.99131  Biso   1.000  C
  C553     1.0000 0.10880  0.33120  0.47770  Biso   1.000  C
  C554     1.0000 0.66880  0.77760  0.47770  Biso   1.000  C
  C555     1.0000 0.22240  0.89120  0.47770  Biso   1.000  C
  C556     1.0000 0.89120  0.66880  0.97770  Biso   1.000  C
  C557     1.0000 0.33120  0.22240  0.97770  Biso   1.000  C
  C558     1.0000 0.77760  0.10880  0.97770  Biso   1.000  C
  H433     1.0000 0.11900  0.32470  0.46800  Biso   1.000  H
  H434     1.0000 0.67530  0.79430  0.46800  Biso   1.000  H
  H435     1.0000 0.20570  0.88100  0.46800  Biso   1.000  H
  H436     1.0000 0.88100  0.67530  0.96800  Biso   1.000  H
  H437     1.0000 0.32470  0.20570  0.96800  Biso   1.000  H
  H438     1.0000 0.79430  0.11900  0.96800  Biso   1.000  H
  H439     1.0000 0.08020  0.33900  0.47630  Biso   1.000  H
  H440     1.0000 0.66100  0.74120  0.47630  Biso   1.000  H
  H441     1.0000 0.25880  0.91980  0.47630  Biso   1.000  H
  H442     1.0000 0.91980  0.66100  0.97630  Biso   1.000  H
  H443     1.0000 0.33900  0.25880  0.97630  Biso   1.000  H
  H444     1.0000 0.74120  0.08020  0.97630  Biso   1.000  H
  C559     1.0000 0.03600  0.25950  0.45559  Biso   1.000  C
  C560     1.0000 0.74050  0.77650  0.45559  Biso   1.000  C
  C561     1.0000 0.22350  0.96400  0.45559  Biso   1.000  C
  C562     1.0000 0.96400  0.74050  0.95559  Biso   1.000  C
  C563     1.0000 0.25950  0.22350  0.95559  Biso   1.000  C
  C564     1.0000 0.77650  0.03600  0.95559  Biso   1.000  C
  H445     1.0000 0.03180  0.28620  0.46100  Biso   1.000  H
  H446     1.0000 0.71380  0.74560  0.46100  Biso   1.000  H
  H447     1.0000 0.25440  0.96820  0.46100  Biso   1.000  H
  H448     1.0000 0.96820  0.71380  0.96100  Biso   1.000  H
  H449     1.0000 0.28620  0.25440  0.96100  Biso   1.000  H
  H450     1.0000 0.74560  0.03180  0.96100  Biso   1.000  H
  H451     1.0000 0.07010  0.27730  0.45050  Biso   1.000  H
  H452     1.0000 0.72270  0.79280  0.45050  Biso   1.000  H
  H453     1.0000 0.20720  0.92990  0.45050  Biso   1.000  H
  H454     1.0000 0.92990  0.72270  0.95050  Biso   1.000  H
  H455     1.0000 0.27730  0.20720  0.95050  Biso   1.000  H
  H456     1.0000 0.79280  0.07010  0.95050  Biso   1.000  H
  C565     1.0000 0.08960  0.28310  0.48694  Biso   1.000  C
  C566     1.0000 0.71690  0.80650  0.48694  Biso   1.000  C
  C567     1.0000 0.19350  0.91040  0.48694  Biso   1.000  C
  C568     1.0000 0.91040  0.71690  0.98694  Biso   1.000  C
  C569     1.0000 0.28310  0.19350  0.98694  Biso   1.000  C
  C570     1.0000 0.80650  0.08960  0.98694  Biso   1.000  C
  C571     1.0000 0.10170  0.29040  0.50115  Biso   1.000  C
  C572     1.0000 0.70960  0.81130  0.50115  Biso   1.000  C
  C573     1.0000 0.18870  0.89830  0.50115  Biso   1.000  C
  C574     1.0000 0.89830  0.70960  0.00115  Biso   1.000  C
  C575     1.0000 0.29040  0.18870  0.00115  Biso   1.000  C
  C576     1.0000 0.81130  0.10170  0.00115  Biso   1.000  C
  H457     1.0000 0.11840  0.32490  0.50500  Biso   1.000  H
  H458     1.0000 0.67510  0.79350  0.50500  Biso   1.000  H
  H459     1.0000 0.20650  0.88160  0.50500  Biso   1.000  H
  H460     1.0000 0.88160  0.67510  0.00500  Biso   1.000  H
  H461     1.0000 0.32490  0.20650  0.00500  Biso   1.000  H
  H462     1.0000 0.79350  0.11840  0.00500  Biso   1.000  H
  C577     1.0000 0.09040  0.24790  0.51073  Biso   1.000  C
  C578     1.0000 0.75210  0.84250  0.51073  Biso   1.000  C
  C579     1.0000 0.15750  0.90960  0.51073  Biso   1.000  C
  C580     1.0000 0.90960  0.75210  0.01073  Biso   1.000  C
  C581     1.0000 0.24790  0.15750  0.01073  Biso   1.000  C
  C582     1.0000 0.84250  0.09040  0.01073  Biso   1.000  C
  H463     1.0000 0.10120  0.25390  0.52060  Biso   1.000  H
  H464     1.0000 0.74610  0.84730  0.52060  Biso   1.000  H
  H465     1.0000 0.15270  0.89880  0.52060  Biso   1.000  H
  H466     1.0000 0.89880  0.74610  0.02060  Biso   1.000  H
  H467     1.0000 0.25390  0.15270  0.02060  Biso   1.000  H
  H468     1.0000 0.84730  0.10120  0.02060  Biso   1.000  H
  C583     1.0000 0.06390  0.19900  0.50533  Biso   1.000  C
  C584     1.0000 0.80100  0.86490  0.50533  Biso   1.000  C
  C585     1.0000 0.13510  0.93610  0.50533  Biso   1.000  C
  C586     1.0000 0.93610  0.80100  0.00533  Biso   1.000  C
  C587     1.0000 0.19900  0.13510  0.00533  Biso   1.000  C
  C588     1.0000 0.86490  0.06390  0.00533  Biso   1.000  C
  H469     1.0000 0.05610  0.17040  0.51160  Biso   1.000  H
  H470     1.0000 0.82960  0.88570  0.51160  Biso   1.000  H
  H471     1.0000 0.11430  0.94390  0.51160  Biso   1.000  H
  H472     1.0000 0.94390  0.82960  0.01160  Biso   1.000  H
  H473     1.0000 0.17040  0.11430  0.01160  Biso   1.000  H
  H474     1.0000 0.88570  0.05610  0.01160  Biso   1.000  H
  C589     1.0000 0.02420  0.13820  0.48563  Biso   1.000  C
  C590     1.0000 0.86180  0.88600  0.48563  Biso   1.000  C
  C591     1.0000 0.11400  0.97580  0.48563  Biso   1.000  C
  C592     1.0000 0.97580  0.86180  0.98563  Biso   1.000  C
  C593     1.0000 0.13820  0.11400  0.98563  Biso   1.000  C
  C594     1.0000 0.88600  0.02420  0.98563  Biso   1.000  C
  H475     1.0000 0.01830  0.11060  0.49210  Biso   1.000  H
  H476     1.0000 0.88940  0.90770  0.49210  Biso   1.000  H
  H477     1.0000 0.09230  0.98170  0.49210  Biso   1.000  H
  H478     1.0000 0.98170  0.88940  0.99210  Biso   1.000  H
  H479     1.0000 0.11060  0.09230  0.99210  Biso   1.000  H
  H480     1.0000 0.90770  0.01830  0.99210  Biso   1.000  H
  C595     1.0000 0.00940  0.12710  0.47159  Biso   1.000  C
  C596     1.0000 0.87290  0.88230  0.47159  Biso   1.000  C
  C597     1.0000 0.11770  0.99060  0.47159  Biso   1.000  C
  C598     1.0000 0.99060  0.87290  0.97159  Biso   1.000  C
  C599     1.0000 0.12710  0.11770  0.97159  Biso   1.000  C
  C600     1.0000 0.88230  0.00940  0.97159  Biso   1.000  C
  H481     1.0000 0.99790  0.09320  0.46780  Biso   1.000  H
  H482     1.0000 0.90680  0.90470  0.46780  Biso   1.000  H
  H483     1.0000 0.09530  0.00210  0.46780  Biso   1.000  H
  H484     1.0000 0.00210  0.90680  0.96780  Biso   1.000  H
  H485     1.0000 0.09320  0.09530  0.96780  Biso   1.000  H
  H486     1.0000 0.90470  0.99790  0.96780  Biso   1.000  H
  C601     1.0000 0.01180  0.16760  0.46256  Biso   1.000  C
  C602     1.0000 0.83240  0.84420  0.46256  Biso   1.000  C
  C603     1.0000 0.15580  0.98820  0.46256  Biso   1.000  C
  C604     1.0000 0.98820  0.83240  0.96256  Biso   1.000  C
  C605     1.0000 0.16760  0.15580  0.96256  Biso   1.000  C
  C606     1.0000 0.84420  0.01180  0.96256  Biso   1.000  C
  H487     1.0000 0.99630  0.15900  0.45320  Biso   1.000  H
  H488     1.0000 0.84100  0.83730  0.45320  Biso   1.000  H
  H489     1.0000 0.16270  0.00370  0.45320  Biso   1.000  H
  H490     1.0000 0.00370  0.84100  0.95320  Biso   1.000  H
  H491     1.0000 0.15900  0.16270  0.95320  Biso   1.000  H
  H492     1.0000 0.83730  0.99630  0.95320  Biso   1.000  H
  C607     1.0000 0.03530  0.21750  0.46702  Biso   1.000  C
  C608     1.0000 0.78250  0.81780  0.46702  Biso   1.000  C
  C609     1.0000 0.18220  0.96470  0.46702  Biso   1.000  C
  C610     1.0000 0.96470  0.78250  0.96702  Biso   1.000  C
  C611     1.0000 0.21750  0.18220  0.96702  Biso   1.000  C
  C612     1.0000 0.81780  0.03530  0.96702  Biso   1.000  C
  C613     1.0000 0.05990  0.23150  0.48108  Biso   1.000  C
  C614     1.0000 0.76850  0.82840  0.48108  Biso   1.000  C
  C615     1.0000 0.17160  0.94010  0.48108  Biso   1.000  C
  C616     1.0000 0.94010  0.76850  0.98108  Biso   1.000  C
  C617     1.0000 0.23150  0.17160  0.98108  Biso   1.000  C
  C618     1.0000 0.82840  0.05990  0.98108  Biso   1.000  C
  C619     1.0000 0.04760  0.18930  0.49086  Biso   1.000  C
  C620     1.0000 0.81070  0.85830  0.49086  Biso   1.000  C
  C621     1.0000 0.14170  0.95240  0.49086  Biso   1.000  C
  C622     1.0000 0.95240  0.81070  0.99086  Biso   1.000  C
  C623     1.0000 0.18930  0.14170  0.99086  Biso   1.000  C
  C624     1.0000 0.85830  0.04760  0.99086  Biso   1.000  C
  N127     1.0000 0.94500  0.22030  0.44750  Biso   1.000  N
  N128     1.0000 0.77970  0.72470  0.44750  Biso   1.000  N
  N129     1.0000 0.27530  0.05500  0.44750  Biso   1.000  N
  N130     1.0000 0.05500  0.77970  0.94750  Biso   1.000  N
  N131     1.0000 0.22030  0.27530  0.94750  Biso   1.000  N
  N132     1.0000 0.72470  0.94500  0.94750  Biso   1.000  N
  N133     1.0000 0.99470  0.23460  0.44497  Biso   1.000  N
  N134     1.0000 0.76540  0.76010  0.44497  Biso   1.000  N
  N135     1.0000 0.23990  0.00530  0.44497  Biso   1.000  N
  N136     1.0000 0.00530  0.76540  0.94497  Biso   1.000  N
  N137     1.0000 0.23460  0.23990  0.94497  Biso   1.000  N
  N138     1.0000 0.76010  0.99470  0.94497  Biso   1.000  N
  C625     1.0000 0.00160  0.21990  0.43155  Biso   1.000  C
  C626     1.0000 0.78010  0.78170  0.43155  Biso   1.000  C
  C627     1.0000 0.21830  0.99840  0.43155  Biso   1.000  C
  C628     1.0000 0.99840  0.78010  0.93155  Biso   1.000  C
  C629     1.0000 0.21990  0.21830  0.93155  Biso   1.000  C
  C630     1.0000 0.78170  0.00160  0.93155  Biso   1.000  C
  H493     1.0000 0.03370  0.22610  0.42740  Biso   1.000  H
  H494     1.0000 0.77390  0.80760  0.42740  Biso   1.000  H
  H495     1.0000 0.19240  0.96630  0.42740  Biso   1.000  H
  H496     1.0000 0.96630  0.77390  0.92740  Biso   1.000  H
  H497     1.0000 0.22610  0.19240  0.92740  Biso   1.000  H
  H498     1.0000 0.80760  0.03370  0.92740  Biso   1.000  H
  C631     1.0000 0.95380  0.19440  0.42509  Biso   1.000  C
  C632     1.0000 0.80560  0.75940  0.42509  Biso   1.000  C
  C633     1.0000 0.24060  0.04620  0.42509  Biso   1.000  C
  C634     1.0000 0.04620  0.80560  0.92509  Biso   1.000  C
  C635     1.0000 0.19440  0.24060  0.92509  Biso   1.000  C
  C636     1.0000 0.75940  0.95380  0.92509  Biso   1.000  C
  H499     1.0000 0.94550  0.17810  0.41580  Biso   1.000  H
  H500     1.0000 0.82190  0.76740  0.41580  Biso   1.000  H
  H501     1.0000 0.23260  0.05450  0.41580  Biso   1.000  H
  H502     1.0000 0.05450  0.82190  0.91580  Biso   1.000  H
  H503     1.0000 0.17810  0.23260  0.91580  Biso   1.000  H
  H504     1.0000 0.76740  0.94550  0.91580  Biso   1.000  H
  C637     1.0000 0.91930  0.19730  0.43512  Biso   1.000  C
  C638     1.0000 0.80270  0.72200  0.43512  Biso   1.000  C
  C639     1.0000 0.27800  0.08070  0.43512  Biso   1.000  C
  C640     1.0000 0.08070  0.80270  0.93512  Biso   1.000  C
  C641     1.0000 0.19730  0.27800  0.93512  Biso   1.000  C
  C642     1.0000 0.72200  0.91930  0.93512  Biso   1.000  C
  N139     1.0000 0.84260  0.18940  0.44601  Biso   1.000  N
  N140     1.0000 0.81060  0.65320  0.44601  Biso   1.000  N
  N141     1.0000 0.34680  0.15740  0.44601  Biso   1.000  N
  N142     1.0000 0.15740  0.81060  0.94601  Biso   1.000  N
  N143     1.0000 0.18940  0.34680  0.94601  Biso   1.000  N
  N144     1.0000 0.65320  0.84260  0.94601  Biso   1.000  N
  C643     1.0000 0.86350  0.17780  0.43450  Biso   1.000  C
  C644     1.0000 0.82220  0.68570  0.43450  Biso   1.000  C
  C645     1.0000 0.31430  0.13650  0.43450  Biso   1.000  C
  C646     1.0000 0.13650  0.82220  0.93450  Biso   1.000  C
  C647     1.0000 0.17780  0.31430  0.93450  Biso   1.000  C
  C648     1.0000 0.68570  0.86350  0.93450  Biso   1.000  C
  C649     1.0000 0.83420  0.15350  0.42213  Biso   1.000  C
  C650     1.0000 0.84650  0.68070  0.42213  Biso   1.000  C
  C651     1.0000 0.31930  0.16580  0.42213  Biso   1.000  C
  C652     1.0000 0.16580  0.84650  0.92213  Biso   1.000  C
  C653     1.0000 0.15350  0.31930  0.92213  Biso   1.000  C
  C654     1.0000 0.68070  0.83420  0.92213  Biso   1.000  C
  H505     1.0000 0.85020  0.14900  0.41370  Biso   1.000  H
  H506     1.0000 0.85100  0.70120  0.41370  Biso   1.000  H
  H507     1.0000 0.29880  0.14980  0.41370  Biso   1.000  H
  H508     1.0000 0.14980  0.85100  0.91370  Biso   1.000  H
  H509     1.0000 0.14900  0.29880  0.91370  Biso   1.000  H
  H510     1.0000 0.70120  0.85020  0.91370  Biso   1.000  H
  C655     1.0000 0.78060  0.13580  0.42249  Biso   1.000  C
  C656     1.0000 0.86420  0.64480  0.42249  Biso   1.000  C
  C657     1.0000 0.35520  0.21940  0.42249  Biso   1.000  C
  C658     1.0000 0.21940  0.86420  0.92249  Biso   1.000  C
  C659     1.0000 0.13580  0.35520  0.92249  Biso   1.000  C
  C660     1.0000 0.64480  0.78060  0.92249  Biso   1.000  C
  H511     1.0000 0.75880  0.11630  0.41460  Biso   1.000  H
  H512     1.0000 0.88370  0.64250  0.41460  Biso   1.000  H
  H513     1.0000 0.35750  0.24120  0.41460  Biso   1.000  H
  H514     1.0000 0.24120  0.88370  0.91460  Biso   1.000  H
  H515     1.0000 0.11630  0.35750  0.91460  Biso   1.000  H
  H516     1.0000 0.64250  0.75880  0.91460  Biso   1.000  H
  C661     1.0000 0.76030  0.14680  0.43424  Biso   1.000  C
  C662     1.0000 0.85320  0.61350  0.43424  Biso   1.000  C
  C663     1.0000 0.38650  0.23970  0.43424  Biso   1.000  C
  C664     1.0000 0.23970  0.85320  0.93424  Biso   1.000  C
  C665     1.0000 0.14680  0.38650  0.93424  Biso   1.000  C
  C666     1.0000 0.61350  0.76030  0.93424  Biso   1.000  C
  H517     1.0000 0.72410  0.13570  0.43450  Biso   1.000  H
  H518     1.0000 0.86430  0.58840  0.43450  Biso   1.000  H
  H519     1.0000 0.41160  0.27590  0.43450  Biso   1.000  H
  H520     1.0000 0.27590  0.86430  0.93450  Biso   1.000  H
  H521     1.0000 0.13570  0.41160  0.93450  Biso   1.000  H
  H522     1.0000 0.58840  0.72410  0.93450  Biso   1.000  H
  C667     1.0000 0.79190  0.17420  0.44592  Biso   1.000  C
  C668     1.0000 0.82580  0.61770  0.44592  Biso   1.000  C
  C669     1.0000 0.38230  0.20810  0.44592  Biso   1.000  C
  C670     1.0000 0.20810  0.82580  0.94592  Biso   1.000  C
  C671     1.0000 0.17420  0.38230  0.94592  Biso   1.000  C
  C672     1.0000 0.61770  0.79190  0.94592  Biso   1.000  C
  H523     1.0000 0.77720  0.18230  0.45400  Biso   1.000  H
  H524     1.0000 0.81770  0.59490  0.45400  Biso   1.000  H
  H525     1.0000 0.40510  0.22280  0.45400  Biso   1.000  H
  H526     1.0000 0.22280  0.81770  0.95400  Biso   1.000  H
  H527     1.0000 0.18230  0.40510  0.95400  Biso   1.000  H
  H528     1.0000 0.59490  0.77720  0.95400  Biso   1.000  H
  N145     1.0000 0.74810  0.20630  0.54036  Biso   1.000  N
  N146     1.0000 0.79370  0.54180  0.54036  Biso   1.000  N
  N147     1.0000 0.45820  0.25190  0.54036  Biso   1.000  N
  N148     1.0000 0.25190  0.79370  0.04036  Biso   1.000  N
  N149     1.0000 0.20630  0.45820  0.04036  Biso   1.000  N
  N150     1.0000 0.54180  0.74810  0.04036  Biso   1.000  N
  C673     1.0000 0.78880  0.24670  0.54714  Biso   1.000  C
  C674     1.0000 0.75330  0.54210  0.54714  Biso   1.000  C
  C675     1.0000 0.45790  0.21120  0.54714  Biso   1.000  C
  C676     1.0000 0.21120  0.75330  0.04714  Biso   1.000  C
  C677     1.0000 0.24670  0.45790  0.04714  Biso   1.000  C
  C678     1.0000 0.54210  0.78880  0.04714  Biso   1.000  C
  C679     1.0000 0.80900  0.29780  0.54240  Biso   1.000  C
  C680     1.0000 0.70220  0.51120  0.54240  Biso   1.000  C
  C681     1.0000 0.48880  0.19100  0.54240  Biso   1.000  C
  C682     1.0000 0.19100  0.70220  0.04240  Biso   1.000  C
  C683     1.0000 0.29780  0.48880  0.04240  Biso   1.000  C
  C684     1.0000 0.51120  0.80900  0.04240  Biso   1.000  C
  H529     1.0000 0.83860  0.32570  0.54700  Biso   1.000  H
  H530     1.0000 0.67430  0.51290  0.54700  Biso   1.000  H
  H531     1.0000 0.48710  0.16140  0.54700  Biso   1.000  H
  H532     1.0000 0.16140  0.67430  0.04700  Biso   1.000  H
  H533     1.0000 0.32570  0.48710  0.04700  Biso   1.000  H
  H534     1.0000 0.51290  0.83860  0.04700  Biso   1.000  H
  C685     1.0000 0.78450  0.30720  0.53069  Biso   1.000  C
  C686     1.0000 0.69280  0.47730  0.53069  Biso   1.000  C
  C687     1.0000 0.52270  0.21550  0.53069  Biso   1.000  C
  C688     1.0000 0.21550  0.69280  0.03069  Biso   1.000  C
  C689     1.0000 0.30720  0.52270  0.03069  Biso   1.000  C
  C690     1.0000 0.47730  0.78450  0.03069  Biso   1.000  C
  H535     1.0000 0.79360  0.34190  0.52810  Biso   1.000  H
  H536     1.0000 0.65810  0.45170  0.52810  Biso   1.000  H
  H537     1.0000 0.54830  0.20640  0.52810  Biso   1.000  H
  H538     1.0000 0.20640  0.65810  0.02810  Biso   1.000  H
  H539     1.0000 0.34190  0.54830  0.02810  Biso   1.000  H
  H540     1.0000 0.45170  0.79360  0.02810  Biso   1.000  H
  C691     1.0000 0.74760  0.26590  0.52314  Biso   1.000  C
  C692     1.0000 0.73410  0.48170  0.52314  Biso   1.000  C
  C693     1.0000 0.51830  0.25240  0.52314  Biso   1.000  C
  C694     1.0000 0.25240  0.73410  0.02314  Biso   1.000  C
  C695     1.0000 0.26590  0.51830  0.02314  Biso   1.000  C
  C696     1.0000 0.48170  0.74760  0.02314  Biso   1.000  C
  H541     1.0000 0.73530  0.27130  0.51410  Biso   1.000  H
  H542     1.0000 0.72870  0.46400  0.51410  Biso   1.000  H
  H543     1.0000 0.53600  0.26470  0.51410  Biso   1.000  H
  H544     1.0000 0.26470  0.72870  0.01410  Biso   1.000  H
  H545     1.0000 0.27130  0.53600  0.01410  Biso   1.000  H
  H546     1.0000 0.46400  0.73530  0.01410  Biso   1.000  H
  C697     1.0000 0.72780  0.21570  0.52853  Biso   1.000  C
  C698     1.0000 0.78430  0.51210  0.52853  Biso   1.000  C
  C699     1.0000 0.48790  0.27220  0.52853  Biso   1.000  C
  C700     1.0000 0.27220  0.78430  0.02853  Biso   1.000  C
  C701     1.0000 0.21570  0.48790  0.02853  Biso   1.000  C
  C702     1.0000 0.51210  0.72780  0.02853  Biso   1.000  C
  H547     1.0000 0.69920  0.18740  0.52370  Biso   1.000  H
  H548     1.0000 0.81260  0.51180  0.52370  Biso   1.000  H
  H549     1.0000 0.48820  0.30080  0.52370  Biso   1.000  H
  H550     1.0000 0.30080  0.81260  0.02370  Biso   1.000  H
  H551     1.0000 0.18740  0.48820  0.02370  Biso   1.000  H
  H552     1.0000 0.51180  0.69920  0.02370  Biso   1.000  H
  N151     1.0000 0.78680  0.18380  0.56414  Biso   1.000  N
  N152     1.0000 0.81620  0.60300  0.56414  Biso   1.000  N
  N153     1.0000 0.39700  0.21320  0.56414  Biso   1.000  N
  N154     1.0000 0.21320  0.81620  0.06414  Biso   1.000  N
  N155     1.0000 0.18380  0.39700  0.06414  Biso   1.000  N
  N156     1.0000 0.60300  0.78680  0.06414  Biso   1.000  N
  N157     1.0000 0.80680  0.18470  0.57725  Biso   1.000  N
  N158     1.0000 0.81530  0.62210  0.57725  Biso   1.000  N
  N159     1.0000 0.37790  0.19320  0.57725  Biso   1.000  N
  N160     1.0000 0.19320  0.81530  0.07725  Biso   1.000  N
  N161     1.0000 0.18470  0.37790  0.07725  Biso   1.000  N
  N162     1.0000 0.62210  0.80680  0.07725  Biso   1.000  N
  C703     1.0000 0.84380  0.23370  0.58112  Biso   1.000  C
  C704     1.0000 0.76630  0.61010  0.58112  Biso   1.000  C
  C705     1.0000 0.38990  0.15620  0.58112  Biso   1.000  C
  C706     1.0000 0.15620  0.76630  0.08112  Biso   1.000  C
  C707     1.0000 0.23370  0.38990  0.08112  Biso   1.000  C
  C708     1.0000 0.61010  0.84380  0.08112  Biso   1.000  C
  H553     1.0000 0.86740  0.24300  0.58910  Biso   1.000  H
  H554     1.0000 0.75700  0.62440  0.58910  Biso   1.000  H
  H555     1.0000 0.37560  0.13260  0.58910  Biso   1.000  H
  H556     1.0000 0.13260  0.75700  0.08910  Biso   1.000  H
  H557     1.0000 0.24300  0.37560  0.08910  Biso   1.000  H
  H558     1.0000 0.62440  0.86740  0.08910  Biso   1.000  H
  C709     1.0000 0.84060  0.26700  0.57141  Biso   1.000  C
  C710     1.0000 0.73300  0.57360  0.57141  Biso   1.000  C
  C711     1.0000 0.42640  0.15940  0.57141  Biso   1.000  C
  C712     1.0000 0.15940  0.73300  0.07141  Biso   1.000  C
  C713     1.0000 0.26700  0.42640  0.07141  Biso   1.000  C
  C714     1.0000 0.57360  0.84060  0.07141  Biso   1.000  C
  H559     1.0000 0.85700  0.30390  0.57200  Biso   1.000  H
  H560     1.0000 0.69610  0.55310  0.57200  Biso   1.000  H
  H561     1.0000 0.44690  0.14300  0.57200  Biso   1.000  H
  H562     1.0000 0.14300  0.69610  0.07200  Biso   1.000  H
  H563     1.0000 0.30390  0.44690  0.07200  Biso   1.000  H
  H564     1.0000 0.55310  0.85700  0.07200  Biso   1.000  H
  C715     1.0000 0.80770  0.23420  0.56025  Biso   1.000  C
  C716     1.0000 0.76580  0.57350  0.56025  Biso   1.000  C
  C717     1.0000 0.42650  0.19230  0.56025  Biso   1.000  C
  C718     1.0000 0.19230  0.76580  0.06025  Biso   1.000  C
  C719     1.0000 0.23420  0.42650  0.06025  Biso   1.000  C
  C720     1.0000 0.57350  0.80770  0.06025  Biso   1.000  C
  C721     1.0000 0.79950  0.13540  0.58393  Biso   1.000  C
  C722     1.0000 0.86460  0.66410  0.58393  Biso   1.000  C
  C723     1.0000 0.33590  0.20050  0.58393  Biso   1.000  C
  C724     1.0000 0.20050  0.86460  0.08393  Biso   1.000  C
  C725     1.0000 0.13540  0.33590  0.08393  Biso   1.000  C
  C726     1.0000 0.66410  0.79950  0.08393  Biso   1.000  C
  H565     1.0000 0.76240  0.10770  0.58300  Biso   1.000  H
  H566     1.0000 0.89230  0.65470  0.58300  Biso   1.000  H
  H567     1.0000 0.34530  0.23760  0.58300  Biso   1.000  H
  H568     1.0000 0.23760  0.89230  0.08300  Biso   1.000  H
  H569     1.0000 0.10770  0.34530  0.08300  Biso   1.000  H
  H570     1.0000 0.65470  0.76240  0.08300  Biso   1.000  H
  H571     1.0000 0.80820  0.14120  0.59440  Biso   1.000  H
  H572     1.0000 0.85880  0.66700  0.59440  Biso   1.000  H
  H573     1.0000 0.33300  0.19180  0.59440  Biso   1.000  H
  H574     1.0000 0.19180  0.85880  0.09440  Biso   1.000  H
  H575     1.0000 0.14120  0.33300  0.09440  Biso   1.000  H
  H576     1.0000 0.66700  0.80820  0.09440  Biso   1.000  H
  C727     1.0000 0.75500  0.03560  0.59770  Biso   1.000  C
  C728     1.0000 0.96440  0.71940  0.59770  Biso   1.000  C
  C729     1.0000 0.28060  0.24500  0.59770  Biso   1.000  C
  C730     1.0000 0.24500  0.96440  0.09770  Biso   1.000  C
  C731     1.0000 0.03560  0.28060  0.09770  Biso   1.000  C
  C732     1.0000 0.71940  0.75500  0.09770  Biso   1.000  C
  H577     1.0000 0.77980  0.06860  0.60270  Biso   1.000  H
  H578     1.0000 0.93140  0.71120  0.60270  Biso   1.000  H
  H579     1.0000 0.28880  0.22020  0.60270  Biso   1.000  H
  H580     1.0000 0.22020  0.93140  0.10270  Biso   1.000  H
  H581     1.0000 0.06860  0.28880  0.10270  Biso   1.000  H
  H582     1.0000 0.71120  0.77980  0.10270  Biso   1.000  H
  H583     1.0000 0.72690  0.04000  0.59330  Biso   1.000  H
  H584     1.0000 0.96000  0.68690  0.59330  Biso   1.000  H
  H585     1.0000 0.31310  0.27310  0.59330  Biso   1.000  H
  H586     1.0000 0.27310  0.96000  0.09330  Biso   1.000  H
  H587     1.0000 0.04000  0.31310  0.09330  Biso   1.000  H
  H588     1.0000 0.68690  0.72690  0.09330  Biso   1.000  H
  C733     1.0000 0.83560  0.11690  0.57621  Biso   1.000  C
  C734     1.0000 0.88310  0.71870  0.57621  Biso   1.000  C
  C735     1.0000 0.28130  0.16440  0.57621  Biso   1.000  C
  C736     1.0000 0.16440  0.88310  0.07621  Biso   1.000  C
  C737     1.0000 0.11690  0.28130  0.07621  Biso   1.000  C
  C738     1.0000 0.71870  0.83560  0.07621  Biso   1.000  C
  C739     1.0000 0.87770  0.15240  0.56881  Biso   1.000  C
  C740     1.0000 0.84760  0.72530  0.56881  Biso   1.000  C
  C741     1.0000 0.27470  0.12230  0.56881  Biso   1.000  C
  C742     1.0000 0.12230  0.84760  0.06881  Biso   1.000  C
  C743     1.0000 0.15240  0.27470  0.06881  Biso   1.000  C
  C744     1.0000 0.72530  0.87770  0.06881  Biso   1.000  C
  H589     1.0000 0.88740  0.18820  0.56930  Biso   1.000  H
  H590     1.0000 0.81180  0.69920  0.56930  Biso   1.000  H
  H591     1.0000 0.30080  0.11260  0.56930  Biso   1.000  H
  H592     1.0000 0.11260  0.81180  0.06930  Biso   1.000  H
  H593     1.0000 0.18820  0.30080  0.06930  Biso   1.000  H
  H594     1.0000 0.69920  0.88740  0.06930  Biso   1.000  H
  C745     1.0000 0.90840  0.13750  0.56020  Biso   1.000  C
  C746     1.0000 0.86250  0.77090  0.56020  Biso   1.000  C
  C747     1.0000 0.22910  0.09160  0.56020  Biso   1.000  C
  C748     1.0000 0.09160  0.86250  0.06020  Biso   1.000  C
  C749     1.0000 0.13750  0.22910  0.06020  Biso   1.000  C
  C750     1.0000 0.77090  0.90840  0.06020  Biso   1.000  C
  H595     1.0000 0.93900  0.16320  0.55530  Biso   1.000  H
  H596     1.0000 0.83680  0.77580  0.55530  Biso   1.000  H
  H597     1.0000 0.22420  0.06100  0.55530  Biso   1.000  H
  H598     1.0000 0.06100  0.83680  0.05530  Biso   1.000  H
  H599     1.0000 0.16320  0.22420  0.05530  Biso   1.000  H
  H600     1.0000 0.77580  0.93900  0.05530  Biso   1.000  H
  C751     1.0000 0.89320  0.08650  0.55900  Biso   1.000  C
  C752     1.0000 0.91350  0.80670  0.55900  Biso   1.000  C
  C753     1.0000 0.19330  0.10680  0.55900  Biso   1.000  C
  C754     1.0000 0.10680  0.91350  0.05900  Biso   1.000  C
  C755     1.0000 0.08650  0.19330  0.05900  Biso   1.000  C
  C756     1.0000 0.80670  0.89320  0.05900  Biso   1.000  C
  H601     1.0000 0.91120  0.07600  0.55250  Biso   1.000  H
  H602     1.0000 0.92400  0.83520  0.55250  Biso   1.000  H
  H603     1.0000 0.16480  0.08880  0.55250  Biso   1.000  H
  H604     1.0000 0.08880  0.92400  0.05250  Biso   1.000  H
  H605     1.0000 0.07600  0.16480  0.05250  Biso   1.000  H
  H606     1.0000 0.83520  0.91120  0.05250  Biso   1.000  H
  C757     1.0000 0.83740  0.99650  0.56549  Biso   1.000  C
  C758     1.0000 0.00350  0.84090  0.56549  Biso   1.000  C
  C759     1.0000 0.15910  0.16260  0.56549  Biso   1.000  C
  C760     1.0000 0.16260  0.00350  0.06549  Biso   1.000  C
  C761     1.0000 0.99650  0.15910  0.06549  Biso   1.000  C
  C762     1.0000 0.84090  0.83740  0.06549  Biso   1.000  C
  H607     1.0000 0.85640  0.98750  0.55890  Biso   1.000  H
  H608     1.0000 0.01250  0.86890  0.55890  Biso   1.000  H
  H609     1.0000 0.13110  0.14360  0.55890  Biso   1.000  H
  H610     1.0000 0.14360  0.01250  0.05890  Biso   1.000  H
  H611     1.0000 0.98750  0.13110  0.05890  Biso   1.000  H
  H612     1.0000 0.86890  0.85640  0.05890  Biso   1.000  H
  C763     1.0000 0.79710  0.95840  0.57295  Biso   1.000  C
  C764     1.0000 0.04160  0.83870  0.57295  Biso   1.000  C
  C765     1.0000 0.16130  0.20290  0.57295  Biso   1.000  C
  C766     1.0000 0.20290  0.04160  0.07295  Biso   1.000  C
  C767     1.0000 0.95840  0.16130  0.07295  Biso   1.000  C
  C768     1.0000 0.83870  0.79710  0.07295  Biso   1.000  C
  H613     1.0000 0.78670  0.92270  0.57140  Biso   1.000  H
  H614     1.0000 0.07730  0.86400  0.57140  Biso   1.000  H
  H615     1.0000 0.13600  0.21330  0.57140  Biso   1.000  H
  H616     1.0000 0.21330  0.07730  0.07140  Biso   1.000  H
  H617     1.0000 0.92270  0.13600  0.07140  Biso   1.000  H
  H618     1.0000 0.86400  0.78670  0.07140  Biso   1.000  H
  C769     1.0000 0.77040  0.97290  0.58326  Biso   1.000  C
  C770     1.0000 0.02710  0.79750  0.58326  Biso   1.000  C
  C771     1.0000 0.20250  0.22960  0.58326  Biso   1.000  C
  C772     1.0000 0.22960  0.02710  0.08326  Biso   1.000  C
  C773     1.0000 0.97290  0.20250  0.08326  Biso   1.000  C
  C774     1.0000 0.79750  0.77040  0.08326  Biso   1.000  C
  H619     1.0000 0.74200  0.94620  0.58860  Biso   1.000  H
  H620     1.0000 0.05380  0.79580  0.58860  Biso   1.000  H
  H621     1.0000 0.20420  0.25800  0.58860  Biso   1.000  H
  H622     1.0000 0.25800  0.05380  0.08860  Biso   1.000  H
  H623     1.0000 0.94620  0.20420  0.08860  Biso   1.000  H
  H624     1.0000 0.79580  0.74200  0.08860  Biso   1.000  H
  C775     1.0000 0.78410  0.02280  0.58566  Biso   1.000  C
  C776     1.0000 0.97720  0.76130  0.58566  Biso   1.000  C
  C777     1.0000 0.23870  0.21590  0.58566  Biso   1.000  C
  C778     1.0000 0.21590  0.97720  0.08566  Biso   1.000  C
  C779     1.0000 0.02280  0.23870  0.08566  Biso   1.000  C
  C780     1.0000 0.76130  0.78410  0.08566  Biso   1.000  C
  C781     1.0000 0.82460  0.06390  0.57719  Biso   1.000  C
  C782     1.0000 0.93610  0.76070  0.57719  Biso   1.000  C
  C783     1.0000 0.23930  0.17540  0.57719  Biso   1.000  C
  C784     1.0000 0.17540  0.93610  0.07719  Biso   1.000  C
  C785     1.0000 0.06390  0.23930  0.07719  Biso   1.000  C
  C786     1.0000 0.76070  0.82460  0.07719  Biso   1.000  C
  C787     1.0000 0.85170  0.04880  0.56718  Biso   1.000  C
  C788     1.0000 0.95120  0.80290  0.56718  Biso   1.000  C
  C789     1.0000 0.19710  0.14830  0.56718  Biso   1.000  C
  C790     1.0000 0.14830  0.95120  0.06718  Biso   1.000  C
  C791     1.0000 0.04880  0.19710  0.06718  Biso   1.000  C
  C792     1.0000 0.80290  0.85170  0.06718  Biso   1.000  C
  N163     1.0000 0.76430  0.98930  0.61838  Biso   1.000  N
  N164     1.0000 0.01070  0.77500  0.61838  Biso   1.000  N
  N165     1.0000 0.22500  0.23570  0.61838  Biso   1.000  N
  N166     1.0000 0.23570  0.01070  0.11838  Biso   1.000  N
  N167     1.0000 0.98930  0.22500  0.11838  Biso   1.000  N
  N168     1.0000 0.77500  0.76430  0.11838  Biso   1.000  N
  N169     1.0000 0.73200  0.99160  0.60863  Biso   1.000  N
  N170     1.0000 0.00840  0.74040  0.60863  Biso   1.000  N
  N171     1.0000 0.25960  0.26800  0.60863  Biso   1.000  N
  N172     1.0000 0.26800  0.00840  0.10863  Biso   1.000  N
  N173     1.0000 0.99160  0.25960  0.10863  Biso   1.000  N
  N174     1.0000 0.74040  0.73200  0.10863  Biso   1.000  N
  C793     1.0000 0.68330  0.94980  0.60951  Biso   1.000  C
  C794     1.0000 0.05020  0.73350  0.60951  Biso   1.000  C
  C795     1.0000 0.26650  0.31670  0.60951  Biso   1.000  C
  C796     1.0000 0.31670  0.05020  0.10951  Biso   1.000  C
  C797     1.0000 0.94980  0.26650  0.10951  Biso   1.000  C
  C798     1.0000 0.73350  0.68330  0.10951  Biso   1.000  C
  H625     1.0000 0.65500  0.94180  0.60310  Biso   1.000  H
  H626     1.0000 0.05820  0.71320  0.60310  Biso   1.000  H
  H627     1.0000 0.28680  0.34500  0.60310  Biso   1.000  H
  H628     1.0000 0.34500  0.05820  0.10310  Biso   1.000  H
  H629     1.0000 0.94180  0.28680  0.10310  Biso   1.000  H
  H630     1.0000 0.71320  0.65500  0.10310  Biso   1.000  H
  C799     1.0000 0.68250  0.92130  0.62132  Biso   1.000  C
  C800     1.0000 0.07870  0.76120  0.62132  Biso   1.000  C
  C801     1.0000 0.23880  0.31750  0.62132  Biso   1.000  C
  C802     1.0000 0.31750  0.07870  0.12132  Biso   1.000  C
  C803     1.0000 0.92130  0.23880  0.12132  Biso   1.000  C
  C804     1.0000 0.76120  0.68250  0.12132  Biso   1.000  C
  H631     1.0000 0.65330  0.89110  0.62530  Biso   1.000  H
  H632     1.0000 0.10890  0.76220  0.62530  Biso   1.000  H
  H633     1.0000 0.23780  0.34670  0.62530  Biso   1.000  H
  H634     1.0000 0.34670  0.10890  0.12530  Biso   1.000  H
  H635     1.0000 0.89110  0.23780  0.12530  Biso   1.000  H
  H636     1.0000 0.76220  0.65330  0.12530  Biso   1.000  H
  C805     1.0000 0.73440  0.94650  0.62642  Biso   1.000  C
  C806     1.0000 0.05350  0.78790  0.62642  Biso   1.000  C
  C807     1.0000 0.21210  0.26560  0.62642  Biso   1.000  C
  C808     1.0000 0.26560  0.05350  0.12642  Biso   1.000  C
  C809     1.0000 0.94650  0.21210  0.12642  Biso   1.000  C
  C810     1.0000 0.78790  0.73440  0.12642  Biso   1.000  C
  N175     1.0000 0.80790  0.97070  0.64184  Biso   1.000  N
  N176     1.0000 0.02930  0.83720  0.64184  Biso   1.000  N
  N177     1.0000 0.16280  0.19210  0.64184  Biso   1.000  N
  N178     1.0000 0.19210  0.02930  0.14184  Biso   1.000  N
  N179     1.0000 0.97070  0.16280  0.14184  Biso   1.000  N
  N180     1.0000 0.83720  0.80790  0.14184  Biso   1.000  N
  C811     1.0000 0.75870  0.93390  0.63826  Biso   1.000  C
  C812     1.0000 0.06610  0.82480  0.63826  Biso   1.000  C
  C813     1.0000 0.17520  0.24130  0.63826  Biso   1.000  C
  C814     1.0000 0.24130  0.06610  0.13826  Biso   1.000  C
  C815     1.0000 0.93390  0.17520  0.13826  Biso   1.000  C
  C816     1.0000 0.82480  0.75870  0.13826  Biso   1.000  C
  C817     1.0000 0.73060  0.88830  0.64632  Biso   1.000  C
  C818     1.0000 0.11170  0.84230  0.64632  Biso   1.000  C
  C819     1.0000 0.15770  0.26940  0.64632  Biso   1.000  C
  C820     1.0000 0.26940  0.11170  0.14632  Biso   1.000  C
  C821     1.0000 0.88830  0.15770  0.14632  Biso   1.000  C
  C822     1.0000 0.84230  0.73060  0.14632  Biso   1.000  C
  H637     1.0000 0.69530  0.86390  0.64400  Biso   1.000  H
  H638     1.0000 0.13610  0.83140  0.64400  Biso   1.000  H
  H639     1.0000 0.16860  0.30470  0.64400  Biso   1.000  H
  H640     1.0000 0.30470  0.13610  0.14400  Biso   1.000  H
  H641     1.0000 0.86390  0.16860  0.14400  Biso   1.000  H
  H642     1.0000 0.83140  0.69530  0.14400  Biso   1.000  H
  C823     1.0000 0.75590  0.87940  0.65796  Biso   1.000  C
  C824     1.0000 0.12060  0.87650  0.65796  Biso   1.000  C
  C825     1.0000 0.12350  0.24410  0.65796  Biso   1.000  C
  C826     1.0000 0.24410  0.12060  0.15796  Biso   1.000  C
  C827     1.0000 0.87940  0.12350  0.15796  Biso   1.000  C
  C828     1.0000 0.87650  0.75590  0.15796  Biso   1.000  C
  H643     1.0000 0.73880  0.84760  0.66330  Biso   1.000  H
  H644     1.0000 0.15240  0.89120  0.66330  Biso   1.000  H
  H645     1.0000 0.10880  0.26120  0.66330  Biso   1.000  H
  H646     1.0000 0.26120  0.15240  0.16330  Biso   1.000  H
  H647     1.0000 0.84760  0.10880  0.16330  Biso   1.000  H
  H648     1.0000 0.89120  0.73880  0.16330  Biso   1.000  H
  C829     1.0000 0.80500  0.91680  0.66146  Biso   1.000  C
  C830     1.0000 0.08320  0.88820  0.66146  Biso   1.000  C
  C831     1.0000 0.11180  0.19500  0.66146  Biso   1.000  C
  C832     1.0000 0.19500  0.08320  0.16146  Biso   1.000  C
  C833     1.0000 0.91680  0.11180  0.16146  Biso   1.000  C
  C834     1.0000 0.88820  0.80500  0.16146  Biso   1.000  C
  H649     1.0000 0.82220  0.91200  0.66960  Biso   1.000  H
  H650     1.0000 0.08800  0.91020  0.66960  Biso   1.000  H
  H651     1.0000 0.08980  0.17780  0.66960  Biso   1.000  H
  H652     1.0000 0.17780  0.08800  0.16960  Biso   1.000  H
  H653     1.0000 0.91200  0.08980  0.16960  Biso   1.000  H
  H654     1.0000 0.91020  0.82220  0.16960  Biso   1.000  H
  C835     1.0000 0.83050  0.96220  0.65328  Biso   1.000  C
  C836     1.0000 0.03780  0.86830  0.65328  Biso   1.000  C
  C837     1.0000 0.13170  0.16950  0.65328  Biso   1.000  C
  C838     1.0000 0.16950  0.03780  0.15328  Biso   1.000  C
  C839     1.0000 0.96220  0.13170  0.15328  Biso   1.000  C
  C840     1.0000 0.86830  0.83050  0.15328  Biso   1.000  C
  H655     1.0000 0.86510  0.98800  0.65590  Biso   1.000  H
  H656     1.0000 0.01200  0.87710  0.65590  Biso   1.000  H
  H657     1.0000 0.12290  0.13490  0.65590  Biso   1.000  H
  H658     1.0000 0.13490  0.01200  0.15590  Biso   1.000  H
  H659     1.0000 0.98800  0.12290  0.15590  Biso   1.000  H
  H660     1.0000 0.87710  0.86510  0.15590  Biso   1.000  H
  N181     1.0000 0.79490  0.06150  0.64520  Biso   1.000  N
  N182     1.0000 0.93850  0.73340  0.64520  Biso   1.000  N
  N183     1.0000 0.26660  0.20510  0.64520  Biso   1.000  N
  N184     1.0000 0.20510  0.93850  0.14520  Biso   1.000  N
  N185     1.0000 0.06150  0.26660  0.14520  Biso   1.000  N
  N186     1.0000 0.73340  0.79490  0.14520  Biso   1.000  N
  C841     1.0000 0.81400  0.07170  0.65892  Biso   1.000  C
  C842     1.0000 0.92830  0.74230  0.65892  Biso   1.000  C
  C843     1.0000 0.25770  0.18600  0.65892  Biso   1.000  C
  C844     1.0000 0.18600  0.92830  0.15892  Biso   1.000  C
  C845     1.0000 0.07170  0.25770  0.15892  Biso   1.000  C
  C846     1.0000 0.74230  0.81400  0.15892  Biso   1.000  C
  C847     1.0000 0.78650  0.07770  0.67032  Biso   1.000  C
  C848     1.0000 0.92230  0.70880  0.67032  Biso   1.000  C
  C849     1.0000 0.29120  0.21350  0.67032  Biso   1.000  C
  C850     1.0000 0.21350  0.92230  0.17032  Biso   1.000  C
  C851     1.0000 0.07770  0.29120  0.17032  Biso   1.000  C
  C852     1.0000 0.70880  0.78650  0.17032  Biso   1.000  C
  H661     1.0000 0.80170  0.08810  0.67970  Biso   1.000  H
  H662     1.0000 0.91190  0.71360  0.67970  Biso   1.000  H
  H663     1.0000 0.28640  0.19830  0.67970  Biso   1.000  H
  H664     1.0000 0.19830  0.91190  0.17970  Biso   1.000  H
  H665     1.0000 0.08810  0.28640  0.17970  Biso   1.000  H
  H666     1.0000 0.71360  0.80170  0.17970  Biso   1.000  H
  C853     1.0000 0.73570  0.06790  0.66757  Biso   1.000  C
  C854     1.0000 0.93210  0.66780  0.66757  Biso   1.000  C
  C855     1.0000 0.33220  0.26430  0.66757  Biso   1.000  C
  C856     1.0000 0.26430  0.93210  0.16757  Biso   1.000  C
  C857     1.0000 0.06790  0.33220  0.16757  Biso   1.000  C
  C858     1.0000 0.66780  0.73570  0.16757  Biso   1.000  C
  H667     1.0000 0.71390  0.06690  0.67530  Biso   1.000  H
  H668     1.0000 0.93310  0.64700  0.67530  Biso   1.000  H
  H669     1.0000 0.35300  0.28610  0.67530  Biso   1.000  H
  H670     1.0000 0.28610  0.93310  0.17530  Biso   1.000  H
  H671     1.0000 0.06690  0.35300  0.17530  Biso   1.000  H
  H672     1.0000 0.64700  0.71390  0.17530  Biso   1.000  H
  C859     1.0000 0.71840  0.05990  0.65362  Biso   1.000  C
  C860     1.0000 0.94010  0.65850  0.65362  Biso   1.000  C
  C861     1.0000 0.34150  0.28160  0.65362  Biso   1.000  C
  C862     1.0000 0.28160  0.94010  0.15362  Biso   1.000  C
  C863     1.0000 0.05990  0.34150  0.15362  Biso   1.000  C
  C864     1.0000 0.65850  0.71840  0.15362  Biso   1.000  C
  H673     1.0000 0.68530  0.05610  0.65140  Biso   1.000  H
  H674     1.0000 0.94390  0.62920  0.65140  Biso   1.000  H
  H675     1.0000 0.37080  0.31470  0.65140  Biso   1.000  H
  H676     1.0000 0.31470  0.94390  0.15140  Biso   1.000  H
  H677     1.0000 0.05610  0.37080  0.15140  Biso   1.000  H
  H678     1.0000 0.62920  0.68530  0.15140  Biso   1.000  H
  C865     1.0000 0.74870  0.05720  0.64248  Biso   1.000  C
  C866     1.0000 0.94280  0.69150  0.64248  Biso   1.000  C
  C867     1.0000 0.30850  0.25130  0.64248  Biso   1.000  C
  C868     1.0000 0.25130  0.94280  0.14248  Biso   1.000  C
  C869     1.0000 0.05720  0.30850  0.14248  Biso   1.000  C
  C870     1.0000 0.69150  0.74870  0.14248  Biso   1.000  C
  H679     1.0000 0.73620  0.05220  0.63270  Biso   1.000  H
  H680     1.0000 0.94780  0.68400  0.63270  Biso   1.000  H
  H681     1.0000 0.31600  0.26380  0.63270  Biso   1.000  H
  H682     1.0000 0.26380  0.94780  0.13270  Biso   1.000  H
  H683     1.0000 0.05220  0.31600  0.13270  Biso   1.000  H
  H684     1.0000 0.68400  0.73620  0.13270  Biso   1.000  H
  N187     1.0000 0.89520  0.08690  0.64855  Biso   1.000  N
  N188     1.0000 0.91310  0.80830  0.64855  Biso   1.000  N
  N189     1.0000 0.19170  0.10480  0.64855  Biso   1.000  N
  N190     1.0000 0.10480  0.91310  0.14855  Biso   1.000  N
  N191     1.0000 0.08690  0.19170  0.14855  Biso   1.000  N
  N192     1.0000 0.80830  0.89520  0.14855  Biso   1.000  N
  N193     1.0000 0.94190  0.09720  0.65330  Biso   1.000  N
  N194     1.0000 0.90280  0.84470  0.65330  Biso   1.000  N
  N195     1.0000 0.15530  0.05810  0.65330  Biso   1.000  N
  N196     1.0000 0.05810  0.90280  0.15330  Biso   1.000  N
  N197     1.0000 0.09720  0.15530  0.15330  Biso   1.000  N
  N198     1.0000 0.84470  0.94190  0.15330  Biso   1.000  N
  C871     1.0000 0.94500  0.09840  0.66807  Biso   1.000  C
  C872     1.0000 0.90160  0.84660  0.66807  Biso   1.000  C
  C873     1.0000 0.15340  0.05500  0.66807  Biso   1.000  C
  C874     1.0000 0.05500  0.90160  0.16807  Biso   1.000  C
  C875     1.0000 0.09840  0.15340  0.16807  Biso   1.000  C
  C876     1.0000 0.84660  0.94500  0.16807  Biso   1.000  C
  H685     1.0000 0.97390  0.10330  0.67380  Biso   1.000  H
  H686     1.0000 0.89670  0.87060  0.67380  Biso   1.000  H
  H687     1.0000 0.12940  0.02610  0.67380  Biso   1.000  H
  H688     1.0000 0.02610  0.89670  0.17380  Biso   1.000  H
  H689     1.0000 0.10330  0.12940  0.17380  Biso   1.000  H
  H690     1.0000 0.87060  0.97390  0.17380  Biso   1.000  H
  C877     1.0000 0.89840  0.09120  0.67310  Biso   1.000  C
  C878     1.0000 0.90880  0.80720  0.67310  Biso   1.000  C
  C879     1.0000 0.19280  0.10160  0.67310  Biso   1.000  C
  C880     1.0000 0.10160  0.90880  0.17310  Biso   1.000  C
  C881     1.0000 0.09120  0.19280  0.17310  Biso   1.000  C
  C882     1.0000 0.80720  0.89840  0.17310  Biso   1.000  C
  H691     1.0000 0.88890  0.09190  0.68300  Biso   1.000  H
  H692     1.0000 0.90810  0.79700  0.68300  Biso   1.000  H
  H693     1.0000 0.20300  0.11110  0.68300  Biso   1.000  H
  H694     1.0000 0.11110  0.90810  0.18300  Biso   1.000  H
  H695     1.0000 0.09190  0.20300  0.18300  Biso   1.000  H
  H696     1.0000 0.79700  0.88890  0.18300  Biso   1.000  H
  C883     1.0000 0.86740  0.08250  0.66059  Biso   1.000  C
  C884     1.0000 0.91750  0.78490  0.66059  Biso   1.000  C
  C885     1.0000 0.21510  0.13260  0.66059  Biso   1.000  C
  C886     1.0000 0.13260  0.91750  0.16059  Biso   1.000  C
  C887     1.0000 0.08250  0.21510  0.16059  Biso   1.000  C
  C888     1.0000 0.78490  0.86740  0.16059  Biso   1.000  C
  C889     1.0000 0.98760  0.11610  0.64290  Biso   1.000  C
  C890     1.0000 0.88390  0.87150  0.64290  Biso   1.000  C
  C891     1.0000 0.12850  0.01240  0.64290  Biso   1.000  C
  C892     1.0000 0.01240  0.88390  0.14290  Biso   1.000  C
  C893     1.0000 0.11610  0.12850  0.14290  Biso   1.000  C
  C894     1.0000 0.87150  0.98760  0.14290  Biso   1.000  C
  H697     1.0000 0.01530  0.11140  0.64750  Biso   1.000  H
  H698     1.0000 0.88860  0.90390  0.64750  Biso   1.000  H
  H699     1.0000 0.09610  0.98470  0.64750  Biso   1.000  H
  H700     1.0000 0.98470  0.88860  0.14750  Biso   1.000  H
  H701     1.0000 0.11140  0.09610  0.14750  Biso   1.000  H
  H702     1.0000 0.90390  0.01530  0.14750  Biso   1.000  H
  H703     1.0000 0.97600  0.09470  0.63390  Biso   1.000  H
  H704     1.0000 0.90530  0.88130  0.63390  Biso   1.000  H
  H705     1.0000 0.11870  0.02400  0.63390  Biso   1.000  H
  H706     1.0000 0.02400  0.90530  0.13390  Biso   1.000  H
  H707     1.0000 0.09470  0.11870  0.13390  Biso   1.000  H
  H708     1.0000 0.88130  0.97600  0.13390  Biso   1.000  H
  C895     1.0000 0.05580  0.11850  0.62011  Biso   1.000  C
  C896     1.0000 0.88150  0.93730  0.62011  Biso   1.000  C
  C897     1.0000 0.06270  0.94420  0.62011  Biso   1.000  C
  C898     1.0000 0.94420  0.88150  0.12011  Biso   1.000  C
  C899     1.0000 0.11850  0.06270  0.12011  Biso   1.000  C
  C900     1.0000 0.93730  0.05580  0.12011  Biso   1.000  C
  H709     1.0000 0.01880  0.09250  0.61820  Biso   1.000  H
  H710     1.0000 0.90750  0.92630  0.61820  Biso   1.000  H
  H711     1.0000 0.07370  0.98120  0.61820  Biso   1.000  H
  H712     1.0000 0.98120  0.90750  0.11820  Biso   1.000  H
  H713     1.0000 0.09250  0.07370  0.11820  Biso   1.000  H
  H714     1.0000 0.92630  0.01880  0.11820  Biso   1.000  H
  H715     1.0000 0.06230  0.11620  0.63060  Biso   1.000  H
  H716     1.0000 0.88380  0.94610  0.63060  Biso   1.000  H
  H717     1.0000 0.05390  0.93770  0.63060  Biso   1.000  H
  H718     1.0000 0.93770  0.88380  0.13060  Biso   1.000  H
  H719     1.0000 0.11620  0.05390  0.13060  Biso   1.000  H
  H720     1.0000 0.94610  0.06230  0.13060  Biso   1.000  H
  C901     1.0000 0.00920  0.17160  0.63903  Biso   1.000  C
  C902     1.0000 0.82840  0.83760  0.63903  Biso   1.000  C
  C903     1.0000 0.16240  0.99080  0.63903  Biso   1.000  C
  C904     1.0000 0.99080  0.82840  0.13903  Biso   1.000  C
  C905     1.0000 0.17160  0.16240  0.13903  Biso   1.000  C
  C906     1.0000 0.83760  0.00920  0.13903  Biso   1.000  C
  C907     1.0000 0.99760  0.20110  0.64770  Biso   1.000  C
  C908     1.0000 0.79890  0.79650  0.64770  Biso   1.000  C
  C909     1.0000 0.20350  0.00240  0.64770  Biso   1.000  C
  C910     1.0000 0.00240  0.79890  0.14770  Biso   1.000  C
  C911     1.0000 0.20110  0.20350  0.14770  Biso   1.000  C
  C912     1.0000 0.79650  0.99760  0.14770  Biso   1.000  C
  H721     1.0000 0.97560  0.18540  0.65590  Biso   1.000  H
  H722     1.0000 0.81460  0.79020  0.65590  Biso   1.000  H
  H723     1.0000 0.20980  0.02440  0.65590  Biso   1.000  H
  H724     1.0000 0.02440  0.81460  0.15590  Biso   1.000  H
  H725     1.0000 0.18540  0.20980  0.15590  Biso   1.000  H
  H726     1.0000 0.79020  0.97560  0.15590  Biso   1.000  H
  C913     1.0000 0.01760  0.25530  0.64488  Biso   1.000  C
  C914     1.0000 0.74470  0.76230  0.64488  Biso   1.000  C
  C915     1.0000 0.23770  0.98240  0.64488  Biso   1.000  C
  C916     1.0000 0.98240  0.74470  0.14488  Biso   1.000  C
  C917     1.0000 0.25530  0.23770  0.14488  Biso   1.000  C
  C918     1.0000 0.76230  0.01760  0.14488  Biso   1.000  C
  H727     1.0000 0.01350  0.27700  0.65180  Biso   1.000  H
  H728     1.0000 0.72300  0.73650  0.65180  Biso   1.000  H
  H729     1.0000 0.26350  0.98650  0.65180  Biso   1.000  H
  H730     1.0000 0.98650  0.72300  0.15180  Biso   1.000  H
  H731     1.0000 0.27700  0.26350  0.15180  Biso   1.000  H
  H732     1.0000 0.73650  0.01350  0.15180  Biso   1.000  H
  C919     1.0000 0.04250  0.27500  0.63216  Biso   1.000  C
  C920     1.0000 0.72500  0.76750  0.63216  Biso   1.000  C
  C921     1.0000 0.23250  0.95750  0.63216  Biso   1.000  C
  C922     1.0000 0.95750  0.72500  0.13216  Biso   1.000  C
  C923     1.0000 0.27500  0.23250  0.13216  Biso   1.000  C
  C924     1.0000 0.76750  0.04250  0.13216  Biso   1.000  C
  H733     1.0000 0.04940  0.30870  0.62910  Biso   1.000  H
  H734     1.0000 0.69130  0.74070  0.62910  Biso   1.000  H
  H735     1.0000 0.25930  0.95060  0.62910  Biso   1.000  H
  H736     1.0000 0.95060  0.69130  0.12910  Biso   1.000  H
  H737     1.0000 0.30870  0.25930  0.12910  Biso   1.000  H
  H738     1.0000 0.74070  0.04940  0.12910  Biso   1.000  H
  C925     1.0000 0.08700  0.27070  0.61077  Biso   1.000  C
  C926     1.0000 0.72930  0.81630  0.61077  Biso   1.000  C
  C927     1.0000 0.18370  0.91300  0.61077  Biso   1.000  C
  C928     1.0000 0.91300  0.72930  0.11077  Biso   1.000  C
  C929     1.0000 0.27070  0.18370  0.11077  Biso   1.000  C
  C930     1.0000 0.81630  0.08700  0.11077  Biso   1.000  C
  H739     1.0000 0.09630  0.30570  0.60860  Biso   1.000  H
  H740     1.0000 0.69430  0.79060  0.60860  Biso   1.000  H
  H741     1.0000 0.20940  0.90370  0.60860  Biso   1.000  H
  H742     1.0000 0.90370  0.69430  0.10860  Biso   1.000  H
  H743     1.0000 0.30570  0.20940  0.10860  Biso   1.000  H
  H744     1.0000 0.79060  0.09630  0.10860  Biso   1.000  H
  C931     1.0000 0.10200  0.24510  0.60159  Biso   1.000  C
  C932     1.0000 0.75490  0.85690  0.60159  Biso   1.000  C
  C933     1.0000 0.14310  0.89800  0.60159  Biso   1.000  C
  C934     1.0000 0.89800  0.75490  0.10159  Biso   1.000  C
  C935     1.0000 0.24510  0.14310  0.10159  Biso   1.000  C
  C936     1.0000 0.85690  0.10200  0.10159  Biso   1.000  C
  H745     1.0000 0.11960  0.26080  0.59270  Biso   1.000  H
  H746     1.0000 0.73920  0.85880  0.59270  Biso   1.000  H
  H747     1.0000 0.14120  0.88040  0.59270  Biso   1.000  H
  H748     1.0000 0.88040  0.73920  0.09270  Biso   1.000  H
  H749     1.0000 0.26080  0.14120  0.09270  Biso   1.000  H
  H750     1.0000 0.85880  0.11960  0.09270  Biso   1.000  H
  C937     1.0000 0.09060  0.19370  0.60549  Biso   1.000  C
  C938     1.0000 0.80630  0.89690  0.60549  Biso   1.000  C
  C939     1.0000 0.10310  0.90940  0.60549  Biso   1.000  C
  C940     1.0000 0.90940  0.80630  0.10549  Biso   1.000  C
  C941     1.0000 0.19370  0.10310  0.10549  Biso   1.000  C
  C942     1.0000 0.89690  0.09060  0.10549  Biso   1.000  C
  H751     1.0000 0.10310  0.17620  0.59940  Biso   1.000  H
  H752     1.0000 0.82380  0.92690  0.59940  Biso   1.000  H
  H753     1.0000 0.07310  0.89690  0.59940  Biso   1.000  H
  H754     1.0000 0.89690  0.82380  0.09940  Biso   1.000  H
  H755     1.0000 0.17620  0.07310  0.09940  Biso   1.000  H
  H756     1.0000 0.92690  0.10310  0.09940  Biso   1.000  H
  C943     1.0000 0.06290  0.16910  0.61742  Biso   1.000  C
  C944     1.0000 0.83090  0.89380  0.61742  Biso   1.000  C
  C945     1.0000 0.10620  0.93710  0.61742  Biso   1.000  C
  C946     1.0000 0.93710  0.83090  0.11742  Biso   1.000  C
  C947     1.0000 0.16910  0.10620  0.11742  Biso   1.000  C
  C948     1.0000 0.89380  0.06290  0.11742  Biso   1.000  C
  C949     1.0000 0.04160  0.19350  0.62643  Biso   1.000  C
  C950     1.0000 0.80650  0.84810  0.62643  Biso   1.000  C
  C951     1.0000 0.15190  0.95840  0.62643  Biso   1.000  C
  C952     1.0000 0.95840  0.80650  0.12643  Biso   1.000  C
  C953     1.0000 0.19350  0.15190  0.12643  Biso   1.000  C
  C954     1.0000 0.84810  0.04160  0.12643  Biso   1.000  C
  C955     1.0000 0.05830  0.24710  0.62332  Biso   1.000  C
  C956     1.0000 0.75290  0.81120  0.62332  Biso   1.000  C
  C957     1.0000 0.18880  0.94170  0.62332  Biso   1.000  C
  C958     1.0000 0.94170  0.75290  0.12332  Biso   1.000  C
  C959     1.0000 0.24710  0.18880  0.12332  Biso   1.000  C
  C960     1.0000 0.81120  0.05830  0.12332  Biso   1.000  C
  N199     1.0000 0.13540  0.11260  0.61600  Biso   1.000  N
  N200     1.0000 0.88740  0.02280  0.61600  Biso   1.000  N
  N201     1.0000 0.97720  0.86460  0.61600  Biso   1.000  N
  N202     1.0000 0.86460  0.88740  0.11600  Biso   1.000  N
  N203     1.0000 0.11260  0.97720  0.11600  Biso   1.000  N
  N204     1.0000 0.02280  0.13540  0.11600  Biso   1.000  N
  N205     1.0000 0.08850  0.10330  0.61168  Biso   1.000  N
  N206     1.0000 0.89670  0.98520  0.61168  Biso   1.000  N
  N207     1.0000 0.01480  0.91150  0.61168  Biso   1.000  N
  N208     1.0000 0.91150  0.89670  0.11168  Biso   1.000  N
  N209     1.0000 0.10330  0.01480  0.11168  Biso   1.000  N
  N210     1.0000 0.98520  0.08850  0.11168  Biso   1.000  N
  C961     1.0000 0.07350  0.07600  0.59902  Biso   1.000  C
  C962     1.0000 0.92400  0.99750  0.59902  Biso   1.000  C
  C963     1.0000 0.00250  0.92650  0.59902  Biso   1.000  C
  C964     1.0000 0.92650  0.92400  0.09902  Biso   1.000  C
  C965     1.0000 0.07600  0.00250  0.09902  Biso   1.000  C
  C966     1.0000 0.99750  0.07350  0.09902  Biso   1.000  C
  H757     1.0000 0.04180  0.06530  0.59390  Biso   1.000  H
  H758     1.0000 0.93470  0.97650  0.59390  Biso   1.000  H
  H759     1.0000 0.02350  0.95820  0.59390  Biso   1.000  H
  H760     1.0000 0.95820  0.93470  0.09390  Biso   1.000  H
  H761     1.0000 0.06530  0.02350  0.09390  Biso   1.000  H
  H762     1.0000 0.97650  0.04180  0.09390  Biso   1.000  H
  C967     1.0000 0.11270  0.06690  0.59497  Biso   1.000  C
  C968     1.0000 0.93310  0.04580  0.59497  Biso   1.000  C
  C969     1.0000 0.95420  0.88730  0.59497  Biso   1.000  C
  C970     1.0000 0.88730  0.93310  0.09497  Biso   1.000  C
  C971     1.0000 0.06690  0.95420  0.09497  Biso   1.000  C
  C972     1.0000 0.04580  0.11270  0.09497  Biso   1.000  C
  H763     1.0000 0.11370  0.04840  0.58660  Biso   1.000  H
  H764     1.0000 0.95160  0.06530  0.58660  Biso   1.000  H
  H765     1.0000 0.93470  0.88630  0.58660  Biso   1.000  H
  H766     1.0000 0.88630  0.95160  0.08660  Biso   1.000  H
  H767     1.0000 0.04840  0.93470  0.08660  Biso   1.000  H
  H768     1.0000 0.06530  0.11370  0.08660  Biso   1.000  H
  C973     1.0000 0.15130  0.09080  0.60579  Biso   1.000  C
  C974     1.0000 0.90920  0.06050  0.60579  Biso   1.000  C
  C975     1.0000 0.93950  0.84870  0.60579  Biso   1.000  C
  C976     1.0000 0.84870  0.90920  0.10579  Biso   1.000  C
  C977     1.0000 0.09080  0.93950  0.10579  Biso   1.000  C
  C978     1.0000 0.06050  0.15130  0.10579  Biso   1.000  C
  N211     1.0000 0.23270  0.12830  0.61819  Biso   1.000  N
  N212     1.0000 0.87170  0.10440  0.61819  Biso   1.000  N
  N213     1.0000 0.89560  0.76730  0.61819  Biso   1.000  N
  N214     1.0000 0.76730  0.87170  0.11819  Biso   1.000  N
  N215     1.0000 0.12830  0.89560  0.11819  Biso   1.000  N
  N216     1.0000 0.10440  0.23270  0.11819  Biso   1.000  N
  C979     1.0000 0.20160  0.09420  0.60794  Biso   1.000  C
  C980     1.0000 0.90580  0.10740  0.60794  Biso   1.000  C
  C981     1.0000 0.89260  0.79840  0.60794  Biso   1.000  C
  C982     1.0000 0.79840  0.90580  0.10794  Biso   1.000  C
  C983     1.0000 0.09420  0.89260  0.10794  Biso   1.000  C
  C984     1.0000 0.10740  0.20160  0.10794  Biso   1.000  C
  C985     1.0000 0.21480  0.06040  0.60116  Biso   1.000  C
  C986     1.0000 0.93960  0.15440  0.60116  Biso   1.000  C
  C987     1.0000 0.84560  0.78520  0.60116  Biso   1.000  C
  C988     1.0000 0.78520  0.93960  0.10116  Biso   1.000  C
  C989     1.0000 0.06040  0.84560  0.10116  Biso   1.000  C
  C990     1.0000 0.15440  0.21480  0.10116  Biso   1.000  C
  H769     1.0000 0.19150  0.03440  0.59450  Biso   1.000  H
  H770     1.0000 0.96560  0.15710  0.59450  Biso   1.000  H
  H771     1.0000 0.84290  0.80850  0.59450  Biso   1.000  H
  H772     1.0000 0.80850  0.96560  0.09450  Biso   1.000  H
  H773     1.0000 0.03440  0.84290  0.09450  Biso   1.000  H
  H774     1.0000 0.15710  0.19150  0.09450  Biso   1.000  H
  C991     1.0000 0.26360  0.06590  0.60440  Biso   1.000  C
  C992     1.0000 0.93410  0.19770  0.60440  Biso   1.000  C
  C993     1.0000 0.80230  0.73640  0.60440  Biso   1.000  C
  C994     1.0000 0.73640  0.93410  0.10440  Biso   1.000  C
  C995     1.0000 0.06590  0.80230  0.10440  Biso   1.000  C
  C996     1.0000 0.19770  0.26360  0.10440  Biso   1.000  C
  H775     1.0000 0.27480  0.04480  0.59960  Biso   1.000  H
  H776     1.0000 0.95520  0.23000  0.59960  Biso   1.000  H
  H777     1.0000 0.77000  0.72520  0.59960  Biso   1.000  H
  H778     1.0000 0.72520  0.95520  0.09960  Biso   1.000  H
  H779     1.0000 0.04480  0.77000  0.09960  Biso   1.000  H
  H780     1.0000 0.23000  0.27480  0.09960  Biso   1.000  H
  C997     1.0000 0.29460  0.10120  0.61443  Biso   1.000  C
  C998     1.0000 0.89880  0.19340  0.61443  Biso   1.000  C
  C999     1.0000 0.80660  0.70540  0.61443  Biso   1.000  C
  C1000    1.0000 0.70540  0.89880  0.11443  Biso   1.000  C
  C1001    1.0000 0.10120  0.80660  0.11443  Biso   1.000  C
  C1002    1.0000 0.19340  0.29460  0.11443  Biso   1.000  C
  H781     1.0000 0.32730  0.10440  0.61690  Biso   1.000  H
  H782     1.0000 0.89560  0.22290  0.61690  Biso   1.000  H
  H783     1.0000 0.77710  0.67270  0.61690  Biso   1.000  H
  H784     1.0000 0.67270  0.89560  0.11690  Biso   1.000  H
  H785     1.0000 0.10440  0.77710  0.11690  Biso   1.000  H
  H786     1.0000 0.22290  0.32730  0.11690  Biso   1.000  H
  C1003    1.0000 0.27870  0.13300  0.62120  Biso   1.000  C
  C1004    1.0000 0.86700  0.14570  0.62120  Biso   1.000  C
  C1005    1.0000 0.85430  0.72130  0.62120  Biso   1.000  C
  C1006    1.0000 0.72130  0.86700  0.12120  Biso   1.000  C
  C1007    1.0000 0.13300  0.85430  0.12120  Biso   1.000  C
  C1008    1.0000 0.14570  0.27870  0.12120  Biso   1.000  C
  H787     1.0000 0.30120  0.15850  0.62810  Biso   1.000  H
  H788     1.0000 0.84150  0.14270  0.62810  Biso   1.000  H
  H789     1.0000 0.85730  0.69880  0.62810  Biso   1.000  H
  H790     1.0000 0.69880  0.84150  0.12810  Biso   1.000  H
  H791     1.0000 0.15850  0.85730  0.12810  Biso   1.000  H
  H792     1.0000 0.14270  0.30120  0.12810  Biso   1.000  H
  Cl1      1.0000 0.33330  0.66670  0.17572  Biso   1.000  Cl
  Cl2      1.0000 0.66670  0.33330  0.67572  Biso   1.000  Cl
  O1       1.0000 0.32240  0.61610  0.17014  Biso   1.000  O
  O2       1.0000 0.38390  0.70630  0.17014  Biso   1.000  O
  O3       1.0000 0.29370  0.67760  0.17014  Biso   1.000  O
  O4       1.0000 0.67760  0.38390  0.67014  Biso   1.000  O
  O5       1.0000 0.61610  0.29370  0.67014  Biso   1.000  O
  O6       1.0000 0.70630  0.32240  0.67014  Biso   1.000  O
  O7       1.0000 0.33330  0.66670  0.19148  Biso   1.000  O
  O8       1.0000 0.66670  0.33330  0.69148  Biso   1.000  O
  Cl3      1.0000 0.13308  0.87198  0.33556  Biso   1.000  Cl
  Cl4      1.0000 0.12802  0.26110  0.33556  Biso   1.000  Cl
  Cl5      1.0000 0.73890  0.86692  0.33556  Biso   1.000  Cl
  Cl6      1.0000 0.86692  0.12802  0.83556  Biso   1.000  Cl
  Cl7      1.0000 0.87198  0.73890  0.83556  Biso   1.000  Cl
  Cl8      1.0000 0.26110  0.13308  0.83556  Biso   1.000  Cl
  O9       1.0000 0.16130  0.90580  0.34744  Biso   1.000  O
  O10      1.0000 0.09420  0.25550  0.34744  Biso   1.000  O
  O11      1.0000 0.74450  0.83870  0.34744  Biso   1.000  O
  O12      1.0000 0.83870  0.09420  0.84744  Biso   1.000  O
  O13      1.0000 0.90580  0.74450  0.84744  Biso   1.000  O
  O14      1.0000 0.25550  0.16130  0.84744  Biso   1.000  O
  O15      1.0000 0.13030  0.90280  0.32367  Biso   1.000  O
  O16      1.0000 0.09720  0.22750  0.32367  Biso   1.000  O
  O17      1.0000 0.77250  0.86970  0.32367  Biso   1.000  O
  O18      1.0000 0.86970  0.09720  0.82367  Biso   1.000  O
  O19      1.0000 0.90280  0.77250  0.82367  Biso   1.000  O
  O20      1.0000 0.22750  0.13030  0.82367  Biso   1.000  O
  O21      1.0000 0.08090  0.83430  0.33987  Biso   1.000  O
  O22      1.0000 0.16570  0.24660  0.33987  Biso   1.000  O
  O23      1.0000 0.75340  0.91910  0.33987  Biso   1.000  O
  O24      1.0000 0.91910  0.16570  0.83987  Biso   1.000  O
  O25      1.0000 0.83430  0.75340  0.83987  Biso   1.000  O
  O26      1.0000 0.24660  0.08090  0.83987  Biso   1.000  O
  O27      1.0000 0.15980  0.84520  0.33056  Biso   1.000  O
  O28      1.0000 0.15480  0.31460  0.33056  Biso   1.000  O
  O29      1.0000 0.68540  0.84020  0.33056  Biso   1.000  O
  O30      1.0000 0.84020  0.15480  0.83056  Biso   1.000  O
  O31      1.0000 0.84520  0.68540  0.83056  Biso   1.000  O
  O32      1.0000 0.31460  0.15980  0.83056  Biso   1.000  O
  Cl9      1.0000 0.75150  0.88000  0.21232  Biso   1.000  Cl
  Cl10     1.0000 0.12000  0.87150  0.21232  Biso   1.000  Cl
  Cl11     1.0000 0.12850  0.24850  0.21232  Biso   1.000  Cl
  Cl12     1.0000 0.24850  0.12000  0.71232  Biso   1.000  Cl
  Cl13     1.0000 0.88000  0.12850  0.71232  Biso   1.000  Cl
  Cl14     1.0000 0.87150  0.75150  0.71232  Biso   1.000  Cl
  O33      1.0000 0.79670  0.87440  0.21066  Biso   1.000  O
  O34      1.0000 0.12560  0.92230  0.21066  Biso   1.000  O
  O35      1.0000 0.07770  0.20330  0.21066  Biso   1.000  O
  O36      1.0000 0.20330  0.12560  0.71066  Biso   1.000  O
  O37      1.0000 0.87440  0.07770  0.71066  Biso   1.000  O
  O38      1.0000 0.92230  0.79670  0.71066  Biso   1.000  O
  O39      1.0000 0.74980  0.89700  0.22692  Biso   1.000  O
  O40      1.0000 0.10300  0.85280  0.22692  Biso   1.000  O
  O41      1.0000 0.14720  0.25020  0.22692  Biso   1.000  O
  O42      1.0000 0.25020  0.10300  0.72692  Biso   1.000  O
  O43      1.0000 0.89700  0.14720  0.72692  Biso   1.000  O
  O44      1.0000 0.85280  0.74980  0.72692  Biso   1.000  O
  O45      1.0000 0.75510  0.92020  0.20272  Biso   1.000  O
  O46      1.0000 0.07980  0.83490  0.20272  Biso   1.000  O
  O47      1.0000 0.16510  0.24490  0.20272  Biso   1.000  O
  O48      1.0000 0.24490  0.07980  0.70272  Biso   1.000  O
  O49      1.0000 0.92020  0.16510  0.70272  Biso   1.000  O
  O50      1.0000 0.83490  0.75510  0.70272  Biso   1.000  O
  O51      1.0000 0.70520  0.83180  0.20872  Biso   1.000  O
  O52      1.0000 0.16820  0.87340  0.20872  Biso   1.000  O
  O53      1.0000 0.12660  0.29480  0.20872  Biso   1.000  O
  O54      1.0000 0.29480  0.16820  0.70872  Biso   1.000  O
  O55      1.0000 0.83180  0.12660  0.70872  Biso   1.000  O
  O56      1.0000 0.87340  0.70520  0.70872  Biso   1.000  O
  Cl15     1.0000 0.55700  0.10740  0.37831  Biso   1.000  Cl
  Cl16     1.0000 0.89260  0.44960  0.37831  Biso   1.000  Cl
  Cl17     1.0000 0.55040  0.44300  0.37831  Biso   1.000  Cl
  Cl18     1.0000 0.44300  0.89260  0.87831  Biso   1.000  Cl
  Cl19     1.0000 0.10740  0.55040  0.87831  Biso   1.000  Cl
  Cl20     1.0000 0.44960  0.55700  0.87831  Biso   1.000  Cl
  O57      1.0000 0.56810  0.06520  0.37852  Biso   1.000  O
  O58      1.0000 0.93480  0.50290  0.37852  Biso   1.000  O
  O59      1.0000 0.49710  0.43190  0.37852  Biso   1.000  O
  O60      1.0000 0.43190  0.93480  0.87852  Biso   1.000  O
  O61      1.0000 0.06520  0.49710  0.87852  Biso   1.000  O
  O62      1.0000 0.50290  0.56810  0.87852  Biso   1.000  O
  O63      1.0000 0.52450  0.10090  0.36587  Biso   1.000  O
  O64      1.0000 0.89910  0.42360  0.36587  Biso   1.000  O
  O65      1.0000 0.57640  0.47550  0.36587  Biso   1.000  O
  O66      1.0000 0.47550  0.89910  0.86587  Biso   1.000  O
  O67      1.0000 0.10090  0.57640  0.86587  Biso   1.000  O
  O68      1.0000 0.42360  0.52450  0.86587  Biso   1.000  O
  O69      1.0000 0.60490  0.15580  0.37625  Biso   1.000  O
  O70      1.0000 0.84420  0.44910  0.37625  Biso   1.000  O
  O71      1.0000 0.55090  0.39510  0.37625  Biso   1.000  O
  O72      1.0000 0.39510  0.84420  0.87625  Biso   1.000  O
  O73      1.0000 0.15580  0.55090  0.87625  Biso   1.000  O
  O74      1.0000 0.44910  0.60490  0.87625  Biso   1.000  O
  O75      1.0000 0.53220  0.10800  0.39165  Biso   1.000  O
  O76      1.0000 0.89200  0.42420  0.39165  Biso   1.000  O
  O77      1.0000 0.57580  0.46780  0.39165  Biso   1.000  O
  O78      1.0000 0.46780  0.89200  0.89165  Biso   1.000  O
  O79      1.0000 0.10800  0.57580  0.89165  Biso   1.000  O
  O80      1.0000 0.42420  0.53220  0.89165  Biso   1.000  O
  Cl21     1.0000 0.33330  0.66670  0.25825  Biso   1.000  Cl
  Cl22     1.0000 0.66670  0.33330  0.75825  Biso   1.000  Cl
  O81      1.0000 0.28180  0.62910  0.25254  Biso   1.000  O
  O82      1.0000 0.37090  0.65270  0.25254  Biso   1.000  O
  O83      1.0000 0.34730  0.71820  0.25254  Biso   1.000  O
  O84      1.0000 0.71820  0.37090  0.75254  Biso   1.000  O
  O85      1.0000 0.62910  0.34730  0.75254  Biso   1.000  O
  O86      1.0000 0.65270  0.28180  0.75254  Biso   1.000  O
  O87      1.0000 0.33330  0.66670  0.27397  Biso   1.000  O
  O88      1.0000 0.66670  0.33330  0.77397  Biso   1.000  O
  Cl23     1.0000 0.45890  0.73110  0.30840  Biso   1.000  Cl
  Cl24     1.0000 0.26890  0.72780  0.30840  Biso   1.000  Cl
  Cl25     1.0000 0.27220  0.54110  0.30840  Biso   1.000  Cl
  Cl26     1.0000 0.54110  0.26890  0.80840  Biso   1.000  Cl
  Cl27     1.0000 0.73110  0.27220  0.80840  Biso   1.000  Cl
  Cl28     1.0000 0.72780  0.45890  0.80840  Biso   1.000  Cl
  O89      1.0000 0.48380  0.70080  0.30570  Biso   1.000  O
  O90      1.0000 0.29920  0.78300  0.30570  Biso   1.000  O
  O91      1.0000 0.21700  0.51620  0.30570  Biso   1.000  O
  O92      1.0000 0.51620  0.29920  0.80570  Biso   1.000  O
  O93      1.0000 0.70080  0.21700  0.80570  Biso   1.000  O
  O94      1.0000 0.78300  0.48380  0.80570  Biso   1.000  O
  O95      1.0000 0.40750  0.70490  0.30190  Biso   1.000  O
  O96      1.0000 0.29510  0.70260  0.30190  Biso   1.000  O
  O97      1.0000 0.29740  0.59250  0.30190  Biso   1.000  O
  O98      1.0000 0.59250  0.29510  0.80190  Biso   1.000  O
  O99      1.0000 0.70490  0.29740  0.80190  Biso   1.000  O
  O100     1.0000 0.70260  0.40750  0.80190  Biso   1.000  O
  O101     1.0000 0.45240  0.73460  0.32381  Biso   1.000  O
  O102     1.0000 0.26540  0.71780  0.32381  Biso   1.000  O
  O103     1.0000 0.28220  0.54760  0.32381  Biso   1.000  O
  O104     1.0000 0.54760  0.26540  0.82381  Biso   1.000  O
  O105     1.0000 0.73460  0.28220  0.82381  Biso   1.000  O
  O106     1.0000 0.71780  0.45240  0.82381  Biso   1.000  O
  O107     1.0000 0.48990  0.78240  0.30230  Biso   1.000  O
  O108     1.0000 0.21760  0.70750  0.30230  Biso   1.000  O
  O109     1.0000 0.29250  0.51010  0.30230  Biso   1.000  O
  O110     1.0000 0.51010  0.21760  0.80230  Biso   1.000  O
  O111     1.0000 0.78240  0.29250  0.80230  Biso   1.000  O
  O112     1.0000 0.70750  0.48990  0.80230  Biso   1.000  O
  Cl29     1.0000 0.44920  0.72940  0.30991  Biso   1.000  Cl
  Cl30     1.0000 0.27060  0.71980  0.30991  Biso   1.000  Cl
  Cl31     1.0000 0.28020  0.55080  0.30991  Biso   1.000  Cl
  Cl32     1.0000 0.55080  0.27060  0.80991  Biso   1.000  Cl
  Cl33     1.0000 0.72940  0.28020  0.80991  Biso   1.000  Cl
  Cl34     1.0000 0.71980  0.44920  0.80991  Biso   1.000  Cl
  O113     1.0000 0.41980  0.75280  0.31530  Biso   1.000  O
  O114     1.0000 0.24720  0.66700  0.31530  Biso   1.000  O
  O115     1.0000 0.33300  0.58020  0.31530  Biso   1.000  O
  O116     1.0000 0.58020  0.24720  0.81530  Biso   1.000  O
  O117     1.0000 0.75280  0.33300  0.81530  Biso   1.000  O
  O118     1.0000 0.66700  0.41980  0.81530  Biso   1.000  O
  O119     1.0000 0.42890  0.67870  0.31650  Biso   1.000  O
  O120     1.0000 0.32130  0.75020  0.31650  Biso   1.000  O
  O121     1.0000 0.24980  0.57110  0.31650  Biso   1.000  O
  O122     1.0000 0.57110  0.32130  0.81650  Biso   1.000  O
  O123     1.0000 0.67870  0.24980  0.81650  Biso   1.000  O
  O124     1.0000 0.75020  0.42890  0.81650  Biso   1.000  O
  O125     1.0000 0.50300  0.76040  0.31400  Biso   1.000  O
  O126     1.0000 0.23960  0.74260  0.31400  Biso   1.000  O
  O127     1.0000 0.25740  0.49700  0.31400  Biso   1.000  O
  O128     1.0000 0.49700  0.23960  0.81400  Biso   1.000  O
  O129     1.0000 0.76040  0.25740  0.81400  Biso   1.000  O
  O130     1.0000 0.74260  0.50300  0.81400  Biso   1.000  O
  O131     1.0000 0.44430  0.72530  0.29429  Biso   1.000  O
  O132     1.0000 0.27470  0.71900  0.29429  Biso   1.000  O
  O133     1.0000 0.28100  0.55570  0.29429  Biso   1.000  O
  O134     1.0000 0.55570  0.27470  0.79429  Biso   1.000  O
  O135     1.0000 0.72530  0.28100  0.79429  Biso   1.000  O
  O136     1.0000 0.71900  0.44430  0.79429  Biso   1.000  O
  Cl35     1.0000 0.33330  0.66670  0.42340  Biso   1.000  Cl
  Cl36     1.0000 0.66670  0.33330  0.92340  Biso   1.000  Cl
  O137     1.0000 0.31960  0.61570  0.41740  Biso   1.000  O
  O138     1.0000 0.38430  0.70390  0.41740  Biso   1.000  O
  O139     1.0000 0.29610  0.68040  0.41740  Biso   1.000  O
  O140     1.0000 0.68040  0.38430  0.91740  Biso   1.000  O
  O141     1.0000 0.61570  0.29610  0.91740  Biso   1.000  O
  O142     1.0000 0.70390  0.31960  0.91740  Biso   1.000  O
  O143     1.0000 0.33330  0.66670  0.43910  Biso   1.000  O
  O144     1.0000 0.66670  0.33330  0.93910  Biso   1.000  O
  Cl37     1.0000 0.33330  0.66670  0.42660  Biso   1.000  Cl
  Cl38     1.0000 0.66670  0.33330  0.92660  Biso   1.000  Cl
  O145     1.0000 0.28270  0.62950  0.43270  Biso   1.000  O
  O146     1.0000 0.37050  0.65320  0.43270  Biso   1.000  O
  O147     1.0000 0.34680  0.71730  0.43270  Biso   1.000  O
  O148     1.0000 0.71730  0.37050  0.93270  Biso   1.000  O
  O149     1.0000 0.62950  0.34680  0.93270  Biso   1.000  O
  O150     1.0000 0.65320  0.28270  0.93270  Biso   1.000  O
  O151     1.0000 0.33330  0.66670  0.41090  Biso   1.000  O
  O152     1.0000 0.66670  0.33330  0.91090  Biso   1.000  O
  Cl39     1.0000 0.00000  0.00000  0.64560  Biso   1.000  Cl
  Cl40     1.0000 0.00000  0.00000  0.14560  Biso   1.000  Cl
  O153     1.0000 0.95350  0.99970  0.65117  Biso   1.000  O
  O154     1.0000 0.00030  0.95380  0.65117  Biso   1.000  O
  O155     1.0000 0.04620  0.04650  0.65117  Biso   1.000  O
  O156     1.0000 0.04650  0.00030  0.15117  Biso   1.000  O
  O157     1.0000 0.99970  0.04620  0.15117  Biso   1.000  O
  O158     1.0000 0.95380  0.95350  0.15117  Biso   1.000  O
  O159     1.0000 0.00000  0.00000  0.62985  Biso   1.000  O
  O160     1.0000 0.00000  0.00000  0.12985  Biso   1.000  O
  Cl41     1.0000 0.90274  0.60157  0.48947  Biso   1.000  Cl
  Cl42     1.0000 0.39843  0.30117  0.48947  Biso   1.000  Cl
  Cl43     1.0000 0.69883  0.09726  0.48947  Biso   1.000  Cl
  Cl44     1.0000 0.09726  0.39843  0.98947  Biso   1.000  Cl
  Cl45     1.0000 0.60157  0.69883  0.98947  Biso   1.000  Cl
  Cl46     1.0000 0.30117  0.90274  0.98947  Biso   1.000  Cl
  O161     1.0000 0.86900  0.58860  0.47699  Biso   1.000  O
  O162     1.0000 0.41140  0.28040  0.47699  Biso   1.000  O
  O163     1.0000 0.71960  0.13100  0.47699  Biso   1.000  O
  O164     1.0000 0.13100  0.41140  0.97699  Biso   1.000  O
  O165     1.0000 0.58860  0.71960  0.97699  Biso   1.000  O
  O166     1.0000 0.28040  0.86900  0.97699  Biso   1.000  O
  O167     1.0000 0.94960  0.60120  0.48543  Biso   1.000  O
  O168     1.0000 0.39880  0.34840  0.48543  Biso   1.000  O
  O169     1.0000 0.65160  0.05040  0.48543  Biso   1.000  O
  O170     1.0000 0.05040  0.39880  0.98543  Biso   1.000  O
  O171     1.0000 0.60120  0.65160  0.98543  Biso   1.000  O
  O172     1.0000 0.34840  0.94960  0.98543  Biso   1.000  O
  O173     1.0000 0.87660  0.56310  0.50065  Biso   1.000  O
  O174     1.0000 0.43690  0.31350  0.50065  Biso   1.000  O
  O175     1.0000 0.68650  0.12340  0.50065  Biso   1.000  O
  O176     1.0000 0.12340  0.43690  0.00065  Biso   1.000  O
  O177     1.0000 0.56310  0.68650  0.00065  Biso   1.000  O
  O178     1.0000 0.31350  0.87660  0.00065  Biso   1.000  O
  O179     1.0000 0.91570  0.65230  0.49473  Biso   1.000  O
  O180     1.0000 0.34770  0.26340  0.49473  Biso   1.000  O
  O181     1.0000 0.73660  0.08430  0.49473  Biso   1.000  O
  O182     1.0000 0.08430  0.34770  0.99473  Biso   1.000  O
  O183     1.0000 0.65230  0.73660  0.99473  Biso   1.000  O
  O184     1.0000 0.26340  0.91570  0.99473  Biso   1.000  O
  Cl47     1.0000 0.70250  0.12010  0.61311  Biso   1.000  Cl
  Cl48     1.0000 0.87990  0.58240  0.61311  Biso   1.000  Cl
  Cl49     1.0000 0.41760  0.29750  0.61311  Biso   1.000  Cl
  Cl50     1.0000 0.29750  0.87990  0.11311  Biso   1.000  Cl
  Cl51     1.0000 0.12010  0.41760  0.11311  Biso   1.000  Cl
  Cl52     1.0000 0.58240  0.70250  0.11311  Biso   1.000  Cl
  O185     1.0000 0.70130  0.12940  0.59771  Biso   1.000  O
  O186     1.0000 0.87060  0.57190  0.59771  Biso   1.000  O
  O187     1.0000 0.42810  0.29870  0.59771  Biso   1.000  O
  O188     1.0000 0.29870  0.87060  0.09771  Biso   1.000  O
  O189     1.0000 0.12940  0.42810  0.09771  Biso   1.000  O
  O190     1.0000 0.57190  0.70130  0.09771  Biso   1.000  O
  O191     1.0000 0.67450  0.14010  0.62107  Biso   1.000  O
  O192     1.0000 0.85990  0.53440  0.62107  Biso   1.000  O
  O193     1.0000 0.46560  0.32550  0.62107  Biso   1.000  O
  O194     1.0000 0.32550  0.85990  0.12107  Biso   1.000  O
  O195     1.0000 0.14010  0.46560  0.12107  Biso   1.000  O
  O196     1.0000 0.53440  0.67450  0.12107  Biso   1.000  O
  O197     1.0000 0.75560  0.14440  0.61798  Biso   1.000  O
  O198     1.0000 0.85560  0.61120  0.61798  Biso   1.000  O
  O199     1.0000 0.38880  0.24440  0.61798  Biso   1.000  O
  O200     1.0000 0.24440  0.85560  0.11798  Biso   1.000  O
  O201     1.0000 0.14440  0.38880  0.11798  Biso   1.000  O
  O202     1.0000 0.61120  0.75560  0.11798  Biso   1.000  O
  O203     1.0000 0.67780  0.06450  0.61542  Biso   1.000  O
  O204     1.0000 0.93550  0.61330  0.61542  Biso   1.000  O
  O205     1.0000 0.38670  0.32220  0.61542  Biso   1.000  O
  O206     1.0000 0.32220  0.93550  0.11542  Biso   1.000  O
  O207     1.0000 0.06450  0.38670  0.11542  Biso   1.000  O
  O208     1.0000 0.61330  0.67780  0.11542  Biso   1.000  O
  Cl53     1.0000 0.60080  0.70310  0.44286  Biso   1.000  Cl
  Cl54     1.0000 0.29690  0.89770  0.44286  Biso   1.000  Cl
  Cl55     1.0000 0.10230  0.39920  0.44286  Biso   1.000  Cl
  Cl56     1.0000 0.39920  0.29690  0.94286  Biso   1.000  Cl
  Cl57     1.0000 0.70310  0.10230  0.94286  Biso   1.000  Cl
  Cl58     1.0000 0.89770  0.60080  0.94286  Biso   1.000  Cl
  O209     1.0000 0.57370  0.66960  0.43077  Biso   1.000  O
  O210     1.0000 0.33040  0.90410  0.43077  Biso   1.000  O
  O211     1.0000 0.09590  0.42630  0.43077  Biso   1.000  O
  O212     1.0000 0.42630  0.33040  0.93077  Biso   1.000  O
  O213     1.0000 0.66960  0.09590  0.93077  Biso   1.000  O
  O214     1.0000 0.90410  0.57370  0.93077  Biso   1.000  O
  O215     1.0000 0.62890  0.68250  0.45056  Biso   1.000  O
  O216     1.0000 0.31750  0.94640  0.45056  Biso   1.000  O
  O217     1.0000 0.05360  0.37110  0.45056  Biso   1.000  O
  O218     1.0000 0.37110  0.31750  0.95056  Biso   1.000  O
  O219     1.0000 0.68250  0.05360  0.95056  Biso   1.000  O
  O220     1.0000 0.94640  0.62890  0.95056  Biso   1.000  O
  O221     1.0000 0.56350  0.70220  0.45317  Biso   1.000  O
  O222     1.0000 0.29780  0.86130  0.45317  Biso   1.000  O
  O223     1.0000 0.13870  0.43650  0.45317  Biso   1.000  O
  O224     1.0000 0.43650  0.29780  0.95317  Biso   1.000  O
  O225     1.0000 0.70220  0.13870  0.95317  Biso   1.000  O
  O226     1.0000 0.86130  0.56350  0.95317  Biso   1.000  O
  O227     1.0000 0.63430  0.75560  0.43788  Biso   1.000  O
  O228     1.0000 0.24440  0.87870  0.43788  Biso   1.000  O
  O229     1.0000 0.12130  0.36570  0.43788  Biso   1.000  O
  O230     1.0000 0.36570  0.24440  0.93788  Biso   1.000  O
  O231     1.0000 0.75560  0.12130  0.93788  Biso   1.000  O
  O232     1.0000 0.87870  0.63430  0.93788  Biso   1.000  O
  Cl59     1.0000 0.90390  0.03080  0.51855  Biso   1.000  Cl
  Cl60     1.0000 0.96920  0.87310  0.51855  Biso   1.000  Cl
  Cl61     1.0000 0.12690  0.09610  0.51855  Biso   1.000  Cl
  Cl62     1.0000 0.09610  0.96920  0.01855  Biso   1.000  Cl
  Cl63     1.0000 0.03080  0.12690  0.01855  Biso   1.000  Cl
  Cl64     1.0000 0.87310  0.90390  0.01855  Biso   1.000  Cl
  O233     1.0000 0.94260  0.02030  0.52458  Biso   1.000  O
  O234     1.0000 0.97970  0.92230  0.52458  Biso   1.000  O
  O235     1.0000 0.07770  0.05740  0.52458  Biso   1.000  O
  O236     1.0000 0.05740  0.97970  0.02458  Biso   1.000  O
  O237     1.0000 0.02030  0.07770  0.02458  Biso   1.000  O
  O238     1.0000 0.92230  0.94260  0.02458  Biso   1.000  O
  O239     1.0000 0.89820  0.01930  0.50321  Biso   1.000  O
  O240     1.0000 0.98070  0.87890  0.50321  Biso   1.000  O
  O241     1.0000 0.12110  0.10180  0.50321  Biso   1.000  O
  O242     1.0000 0.10180  0.98070  0.00321  Biso   1.000  O
  O243     1.0000 0.01930  0.12110  0.00321  Biso   1.000  O
  O244     1.0000 0.87890  0.89820  0.00321  Biso   1.000  O
  O245     1.0000 0.92120  0.08550  0.52006  Biso   1.000  O
  O246     1.0000 0.91450  0.83570  0.52006  Biso   1.000  O
  O247     1.0000 0.16430  0.07880  0.52006  Biso   1.000  O
  O248     1.0000 0.07880  0.91450  0.02006  Biso   1.000  O
  O249     1.0000 0.08550  0.16430  0.02006  Biso   1.000  O
  O250     1.0000 0.83570  0.92120  0.02006  Biso   1.000  O
  O251     1.0000 0.85570  0.00060  0.52629  Biso   1.000  O
  O252     1.0000 0.99940  0.85510  0.52629  Biso   1.000  O
  O253     1.0000 0.14490  0.14430  0.52629  Biso   1.000  O
  O254     1.0000 0.14430  0.99940  0.02629  Biso   1.000  O
  O255     1.0000 0.00060  0.14490  0.02629  Biso   1.000  O
  O256     1.0000 0.85510  0.85570  0.02629  Biso   1.000  O
  Cl65     1.0000 0.07245  0.15488  0.40354  Biso   1.000  Cl
  Cl66     1.0000 0.84512  0.91757  0.40354  Biso   1.000  Cl
  Cl67     1.0000 0.08243  0.92755  0.40354  Biso   1.000  Cl
  Cl68     1.0000 0.92755  0.84512  0.90354  Biso   1.000  Cl
  Cl69     1.0000 0.15488  0.08243  0.90354  Biso   1.000  Cl
  Cl70     1.0000 0.91757  0.07245  0.90354  Biso   1.000  Cl
  O257     1.0000 0.10770  0.20810  0.40771  Biso   1.000  O
  O258     1.0000 0.79190  0.89960  0.40771  Biso   1.000  O
  O259     1.0000 0.10040  0.89230  0.40771  Biso   1.000  O
  O260     1.0000 0.89230  0.79190  0.90771  Biso   1.000  O
  O261     1.0000 0.20810  0.10040  0.90771  Biso   1.000  O
  O262     1.0000 0.89960  0.10770  0.90771  Biso   1.000  O
  O263     1.0000 0.06480  0.15180  0.38801  Biso   1.000  O
  O264     1.0000 0.84820  0.91300  0.38801  Biso   1.000  O
  O265     1.0000 0.08700  0.93520  0.38801  Biso   1.000  O
  O266     1.0000 0.93520  0.84820  0.88801  Biso   1.000  O
  O267     1.0000 0.15180  0.08700  0.88801  Biso   1.000  O
  O268     1.0000 0.91300  0.06480  0.88801  Biso   1.000  O
  O269     1.0000 0.09510  0.12290  0.40696  Biso   1.000  O
  O270     1.0000 0.87710  0.97220  0.40696  Biso   1.000  O
  O271     1.0000 0.02780  0.90490  0.40696  Biso   1.000  O
  O272     1.0000 0.90490  0.87710  0.90696  Biso   1.000  O
  O273     1.0000 0.12290  0.02780  0.90696  Biso   1.000  O
  O274     1.0000 0.97220  0.09510  0.90696  Biso   1.000  O
  O275     1.0000 0.02390  0.13580  0.41117  Biso   1.000  O
  O276     1.0000 0.86420  0.88810  0.41117  Biso   1.000  O
  O277     1.0000 0.11190  0.97610  0.41117  Biso   1.000  O
  O278     1.0000 0.97610  0.86420  0.91117  Biso   1.000  O
  O279     1.0000 0.13580  0.11190  0.91117  Biso   1.000  O
  O280     1.0000 0.88810  0.02390  0.91117  Biso   1.000  O
  Cl71     1.0000 0.66670  0.33330  0.59323  Biso   1.000  Cl
  Cl72     1.0000 0.33330  0.66670  0.09323  Biso   1.000  Cl
  O281     1.0000 0.71750  0.34530  0.59899  Biso   1.000  O
  O282     1.0000 0.65470  0.37220  0.59899  Biso   1.000  O
  O283     1.0000 0.62780  0.28250  0.59899  Biso   1.000  O
  O284     1.0000 0.28250  0.65470  0.09899  Biso   1.000  O
  O285     1.0000 0.34530  0.62780  0.09899  Biso   1.000  O
  O286     1.0000 0.37220  0.71750  0.09899  Biso   1.000  O
  O287     1.0000 0.66670  0.33330  0.57750  Biso   1.000  O
  O288     1.0000 0.33330  0.66670  0.07750  Biso   1.000  O
  Cl73     1.0000 0.66670  0.33330  0.43590  Biso   1.000  Cl
  Cl74     1.0000 0.33330  0.66670  0.93590  Biso   1.000  Cl
  O289     1.0000 0.61710  0.29200  0.44170  Biso   1.000  O
  O290     1.0000 0.70800  0.32510  0.44170  Biso   1.000  O
  O291     1.0000 0.67490  0.38290  0.44170  Biso   1.000  O
  O292     1.0000 0.38290  0.70800  0.94170  Biso   1.000  O
  O293     1.0000 0.29200  0.67490  0.94170  Biso   1.000  O
  O294     1.0000 0.32510  0.61710  0.94170  Biso   1.000  O
  O295     1.0000 0.66670  0.33330  0.42010  Biso   1.000  O
  O296     1.0000 0.33330  0.66670  0.92010  Biso   1.000  O
  Cl75     1.0000 0.66670  0.33330  0.43920  Biso   1.000  Cl
  Cl76     1.0000 0.33330  0.66670  0.93920  Biso   1.000  Cl
  O297     1.0000 0.64500  0.28030  0.43340  Biso   1.000  O
  O298     1.0000 0.71970  0.36470  0.43340  Biso   1.000  O
  O299     1.0000 0.63530  0.35500  0.43340  Biso   1.000  O
  O300     1.0000 0.35500  0.71970  0.93340  Biso   1.000  O
  O301     1.0000 0.28030  0.63530  0.93340  Biso   1.000  O
  O302     1.0000 0.36470  0.64500  0.93340  Biso   1.000  O
  O303     1.0000 0.66670  0.33330  0.45490  Biso   1.000  O
  O304     1.0000 0.33330  0.66670  0.95490  Biso   1.000  O
  N217     1.0000 0.49600  0.63260  0.29430  Biso   1.000  N
  N218     1.0000 0.36740  0.86340  0.29430  Biso   1.000  N
  N219     1.0000 0.13660  0.50400  0.29430  Biso   1.000  N
  N220     1.0000 0.50400  0.36740  0.79430  Biso   1.000  N
  N221     1.0000 0.63260  0.13660  0.79430  Biso   1.000  N
  N222     1.0000 0.86340  0.49600  0.79430  Biso   1.000  N
  C1009    1.0000 0.45460  0.61440  0.28930  Biso   1.000  C
  C1010    1.0000 0.38560  0.84020  0.28930  Biso   1.000  C
  C1011    1.0000 0.15980  0.54540  0.28930  Biso   1.000  C
  C1012    1.0000 0.54540  0.38560  0.78930  Biso   1.000  C
  C1013    1.0000 0.61440  0.15980  0.78930  Biso   1.000  C
  C1014    1.0000 0.84020  0.45460  0.78930  Biso   1.000  C
  C1015    1.0000 0.40400  0.60050  0.28290  Biso   1.000  C
  C1016    1.0000 0.39950  0.80350  0.28290  Biso   1.000  C
  C1017    1.0000 0.19650  0.59600  0.28290  Biso   1.000  C
  C1018    1.0000 0.59600  0.39950  0.78290  Biso   1.000  C
  C1019    1.0000 0.60050  0.19650  0.78290  Biso   1.000  C
  C1020    1.0000 0.80350  0.40400  0.78290  Biso   1.000  C
  H793     1.0000 0.37640  0.56990  0.28800  Biso   1.000  H
  H794     1.0000 0.43010  0.80650  0.28800  Biso   1.000  H
  H795     1.0000 0.19350  0.62360  0.28800  Biso   1.000  H
  H796     1.0000 0.62360  0.43010  0.78800  Biso   1.000  H
  H797     1.0000 0.56990  0.19350  0.78800  Biso   1.000  H
  H798     1.0000 0.80650  0.37640  0.78800  Biso   1.000  H
  H799     1.0000 0.40380  0.59220  0.27260  Biso   1.000  H
  H800     1.0000 0.40780  0.81160  0.27260  Biso   1.000  H
  H801     1.0000 0.18840  0.59620  0.27260  Biso   1.000  H
  H802     1.0000 0.59620  0.40780  0.77260  Biso   1.000  H
  H803     1.0000 0.59220  0.18840  0.77260  Biso   1.000  H
  H804     1.0000 0.81160  0.40380  0.77260  Biso   1.000  H
  H805     1.0000 0.39770  0.62990  0.28390  Biso   1.000  H
  H806     1.0000 0.37010  0.76780  0.28390  Biso   1.000  H
  H807     1.0000 0.23220  0.60230  0.28390  Biso   1.000  H
  H808     1.0000 0.60230  0.37010  0.78390  Biso   1.000  H
  H809     1.0000 0.62990  0.23220  0.78390  Biso   1.000  H
  H810     1.0000 0.76780  0.39770  0.78390  Biso   1.000  H
  N223     1.0000 0.02040  0.12630  0.57060  Biso   1.000  N
  N224     1.0000 0.87370  0.89410  0.57060  Biso   1.000  N
  N225     1.0000 0.10590  0.97960  0.57060  Biso   1.000  N
  N226     1.0000 0.97960  0.87370  0.07060  Biso   1.000  N
  N227     1.0000 0.12630  0.10590  0.07060  Biso   1.000  N
  N228     1.0000 0.89410  0.02040  0.07060  Biso   1.000  N
  C1021    1.0000 0.02850  0.13780  0.55840  Biso   1.000  C
  C1022    1.0000 0.86220  0.89070  0.55840  Biso   1.000  C
  C1023    1.0000 0.10930  0.97150  0.55840  Biso   1.000  C
  C1024    1.0000 0.97150  0.86220  0.05840  Biso   1.000  C
  C1025    1.0000 0.13780  0.10930  0.05840  Biso   1.000  C
  C1026    1.0000 0.89070  0.02850  0.05840  Biso   1.000  C
  C1027    1.0000 0.02980  0.14820  0.54280  Biso   1.000  C
  C1028    1.0000 0.85180  0.88160  0.54280  Biso   1.000  C
  C1029    1.0000 0.11840  0.97020  0.54280  Biso   1.000  C
  C1030    1.0000 0.97020  0.85180  0.04280  Biso   1.000  C
  C1031    1.0000 0.14820  0.11840  0.04280  Biso   1.000  C
  C1032    1.0000 0.88160  0.02980  0.04280  Biso   1.000  C
  H811     1.0000 0.06600  0.17170  0.53980  Biso   1.000  H
  H812     1.0000 0.82830  0.89430  0.53980  Biso   1.000  H
  H813     1.0000 0.10570  0.93400  0.53980  Biso   1.000  H
  H814     1.0000 0.93400  0.82830  0.03980  Biso   1.000  H
  H815     1.0000 0.17170  0.10570  0.03980  Biso   1.000  H
  H816     1.0000 0.89430  0.06600  0.03980  Biso   1.000  H
  H817     1.0000 0.00880  0.16470  0.54080  Biso   1.000  H
  H818     1.0000 0.83530  0.84410  0.54080  Biso   1.000  H
  H819     1.0000 0.15590  0.99120  0.54080  Biso   1.000  H
  H820     1.0000 0.99120  0.83530  0.04080  Biso   1.000  H
  H821     1.0000 0.16470  0.15590  0.04080  Biso   1.000  H
  H822     1.0000 0.84410  0.00880  0.04080  Biso   1.000  H
  H823     1.0000 0.01560  0.11530  0.53740  Biso   1.000  H
  H824     1.0000 0.88470  0.90030  0.53740  Biso   1.000  H
  H825     1.0000 0.09970  0.98440  0.53740  Biso   1.000  H
  H826     1.0000 0.98440  0.88470  0.03740  Biso   1.000  H
  H827     1.0000 0.11530  0.09970  0.03740  Biso   1.000  H
  H828     1.0000 0.90030  0.01560  0.03740  Biso   1.000  H
  N229     1.0000 0.56720  0.85070  0.12010  Biso   1.000  N
  N230     1.0000 0.14930  0.71650  0.12010  Biso   1.000  N
  N231     1.0000 0.28350  0.43280  0.12010  Biso   1.000  N
  N232     1.0000 0.43280  0.14930  0.62010  Biso   1.000  N
  N233     1.0000 0.85070  0.28350  0.62010  Biso   1.000  N
  N234     1.0000 0.71650  0.56720  0.62010  Biso   1.000  N
  C1033    1.0000 0.53190  0.81110  0.11660  Biso   1.000  C
  C1034    1.0000 0.18890  0.72080  0.11660  Biso   1.000  C
  C1035    1.0000 0.27920  0.46810  0.11660  Biso   1.000  C
  C1036    1.0000 0.46810  0.18890  0.61660  Biso   1.000  C
  C1037    1.0000 0.81110  0.27920  0.61660  Biso   1.000  C
  C1038    1.0000 0.72080  0.53190  0.61660  Biso   1.000  C
  C1039    1.0000 0.49000  0.75950  0.11220  Biso   1.000  C
  C1040    1.0000 0.24050  0.73050  0.11220  Biso   1.000  C
  C1041    1.0000 0.26950  0.51000  0.11220  Biso   1.000  C
  C1042    1.0000 0.51000  0.24050  0.61220  Biso   1.000  C
  C1043    1.0000 0.75950  0.26950  0.61220  Biso   1.000  C
  C1044    1.0000 0.73050  0.49000  0.61220  Biso   1.000  C
  H829     1.0000 0.45910  0.74950  0.11830  Biso   1.000  H
  H830     1.0000 0.25050  0.70960  0.11830  Biso   1.000  H
  H831     1.0000 0.29040  0.54090  0.11830  Biso   1.000  H
  H832     1.0000 0.54090  0.25050  0.61830  Biso   1.000  H
  H833     1.0000 0.74950  0.29040  0.61830  Biso   1.000  H
  H834     1.0000 0.70960  0.45910  0.61830  Biso   1.000  H
  H835     1.0000 0.50150  0.73390  0.11340  Biso   1.000  H
  H836     1.0000 0.26610  0.76760  0.11340  Biso   1.000  H
  H837     1.0000 0.23240  0.49850  0.11340  Biso   1.000  H
  H838     1.0000 0.49850  0.26610  0.61340  Biso   1.000  H
  H839     1.0000 0.73390  0.23240  0.61340  Biso   1.000  H
  H840     1.0000 0.76760  0.50150  0.61340  Biso   1.000  H
  H841     1.0000 0.48120  0.76060  0.10200  Biso   1.000  H
  H842     1.0000 0.23940  0.72060  0.10200  Biso   1.000  H
  H843     1.0000 0.27940  0.51880  0.10200  Biso   1.000  H
  H844     1.0000 0.51880  0.23940  0.60200  Biso   1.000  H
  H845     1.0000 0.76060  0.27940  0.60200  Biso   1.000  H
  H846     1.0000 0.72060  0.48120  0.60200  Biso   1.000  H
  N235     1.0000 0.41260  0.82760  0.40350  Biso   1.000  N
  N236     1.0000 0.17240  0.58500  0.40350  Biso   1.000  N
  N237     1.0000 0.41500  0.58740  0.40350  Biso   1.000  N
  N238     1.0000 0.58740  0.17240  0.90350  Biso   1.000  N
  N239     1.0000 0.82760  0.41500  0.90350  Biso   1.000  N
  N240     1.0000 0.58500  0.41260  0.90350  Biso   1.000  N
  C1045    1.0000 0.39410  0.82280  0.41490  Biso   1.000  C
  C1046    1.0000 0.17720  0.57130  0.41490  Biso   1.000  C
  C1047    1.0000 0.42870  0.60590  0.41490  Biso   1.000  C
  C1048    1.0000 0.60590  0.17720  0.91490  Biso   1.000  C
  C1049    1.0000 0.82280  0.42870  0.91490  Biso   1.000  C
  C1050    1.0000 0.57130  0.39410  0.91490  Biso   1.000  C
  C1051    1.0000 0.36180  0.81370  0.42780  Biso   1.000  C
  C1052    1.0000 0.18630  0.54810  0.42780  Biso   1.000  C
  C1053    1.0000 0.45190  0.63820  0.42780  Biso   1.000  C
  C1054    1.0000 0.63820  0.18630  0.92780  Biso   1.000  C
  C1055    1.0000 0.81370  0.45190  0.92780  Biso   1.000  C
  C1056    1.0000 0.54810  0.36180  0.92780  Biso   1.000  C
  H847     1.0000 0.38260  0.81820  0.43660  Biso   1.000  H
  H848     1.0000 0.18180  0.56440  0.43660  Biso   1.000  H
  H849     1.0000 0.43560  0.61740  0.43660  Biso   1.000  H
  H850     1.0000 0.61740  0.18180  0.93660  Biso   1.000  H
  H851     1.0000 0.81820  0.43560  0.93660  Biso   1.000  H
  H852     1.0000 0.56440  0.38260  0.93660  Biso   1.000  H
  H853     1.0000 0.33190  0.77810  0.42760  Biso   1.000  H
  H854     1.0000 0.22190  0.55380  0.42760  Biso   1.000  H
  H855     1.0000 0.44620  0.66810  0.42760  Biso   1.000  H
  H856     1.0000 0.66810  0.22190  0.92760  Biso   1.000  H
  H857     1.0000 0.77810  0.44620  0.92760  Biso   1.000  H
  H858     1.0000 0.55380  0.33190  0.92760  Biso   1.000  H
  H859     1.0000 0.34930  0.83880  0.42800  Biso   1.000  H
  H860     1.0000 0.16120  0.51050  0.42800  Biso   1.000  H
  H861     1.0000 0.48950  0.65070  0.42800  Biso   1.000  H
  H862     1.0000 0.65070  0.16120  0.92800  Biso   1.000  H
  H863     1.0000 0.83880  0.48950  0.92800  Biso   1.000  H
  H864     1.0000 0.51050  0.34930  0.92800  Biso   1.000  H
  N241     1.0000 0.65710  0.05160  0.40600  Biso   1.000  N
  N242     1.0000 0.94840  0.60550  0.40600  Biso   1.000  N
  N243     1.0000 0.39450  0.34290  0.40600  Biso   1.000  N
  N244     1.0000 0.34290  0.94840  0.90600  Biso   1.000  N
  N245     1.0000 0.05160  0.39450  0.90600  Biso   1.000  N
  N246     1.0000 0.60550  0.65710  0.90600  Biso   1.000  N
  C1057    1.0000 0.62590  0.06190  0.40960  Biso   1.000  C
  C1058    1.0000 0.93810  0.56400  0.40960  Biso   1.000  C
  C1059    1.0000 0.43600  0.37410  0.40960  Biso   1.000  C
  C1060    1.0000 0.37410  0.93810  0.90960  Biso   1.000  C
  C1061    1.0000 0.06190  0.43600  0.90960  Biso   1.000  C
  C1062    1.0000 0.56400  0.62590  0.90960  Biso   1.000  C
  C1063    1.0000 0.57820  0.06150  0.41420  Biso   1.000  C
  C1064    1.0000 0.93850  0.51670  0.41420  Biso   1.000  C
  C1065    1.0000 0.48330  0.42180  0.41420  Biso   1.000  C
  C1066    1.0000 0.42180  0.93850  0.91420  Biso   1.000  C
  C1067    1.0000 0.06150  0.48330  0.91420  Biso   1.000  C
  C1068    1.0000 0.51670  0.57820  0.91420  Biso   1.000  C
  H865     1.0000 0.58510  0.09750  0.41490  Biso   1.000  H
  H866     1.0000 0.90250  0.48760  0.41490  Biso   1.000  H
  H867     1.0000 0.51240  0.41490  0.41490  Biso   1.000  H
  H868     1.0000 0.41490  0.90250  0.91490  Biso   1.000  H
  H869     1.0000 0.09750  0.51240  0.91490  Biso   1.000  H
  H870     1.0000 0.48760  0.58510  0.91490  Biso   1.000  H
  H871     1.0000 0.56700  0.04430  0.42370  Biso   1.000  H
  H872     1.0000 0.95570  0.52270  0.42370  Biso   1.000  H
  H873     1.0000 0.47730  0.43300  0.42370  Biso   1.000  H
  H874     1.0000 0.43300  0.95570  0.92370  Biso   1.000  H
  H875     1.0000 0.04430  0.47730  0.92370  Biso   1.000  H
  H876     1.0000 0.52270  0.56700  0.92370  Biso   1.000  H
  H877     1.0000 0.55060  0.04240  0.40690  Biso   1.000  H
  H878     1.0000 0.95760  0.50820  0.40690  Biso   1.000  H
  H879     1.0000 0.49180  0.44940  0.40690  Biso   1.000  H
  H880     1.0000 0.44940  0.95760  0.90690  Biso   1.000  H
  H881     1.0000 0.04240  0.49180  0.90690  Biso   1.000  H
  H882     1.0000 0.50820  0.55060  0.90690  Biso   1.000  H
