data_image0
_cell_length_a       16.6727
_cell_length_b       30.982
_cell_length_c       33.554
_cell_angle_alpha    90
_cell_angle_beta     90
_cell_angle_gamma    90

_symmetry_space_group_name_H-M    "P 1"
_symmetry_int_tables_number       1

loop_
  _symmetry_equiv_pos_as_xyz
  'x, y, z'

loop_
  _atom_site_label
  _atom_site_occupancy
  _atom_site_fract_x
  _atom_site_fract_y
  _atom_site_fract_z
  _atom_site_thermal_displace_type
  _atom_site_B_iso_or_equiv
  _atom_site_type_symbol
  O1       1.0000 0.58010  0.44513  0.00844  Biso   1.000  O
  O2       1.0000 0.16990  0.30487  0.00844  Biso   1.000  O
  O3       1.0000 0.16990  0.44513  0.74156  Biso   1.000  O
  O4       1.0000 0.58010  0.30487  0.74156  Biso   1.000  O
  O5       1.0000 0.58010  0.94513  0.50844  Biso   1.000  O
  O6       1.0000 0.16990  0.80487  0.50844  Biso   1.000  O
  O7       1.0000 0.16990  0.94513  0.24156  Biso   1.000  O
  O8       1.0000 0.58010  0.80487  0.24156  Biso   1.000  O
  O9       1.0000 0.08010  0.44513  0.50844  Biso   1.000  O
  O10      1.0000 0.66990  0.30487  0.50844  Biso   1.000  O
  O11      1.0000 0.66990  0.44513  0.24156  Biso   1.000  O
  O12      1.0000 0.08010  0.30487  0.24156  Biso   1.000  O
  O13      1.0000 0.08010  0.94513  0.00844  Biso   1.000  O
  O14      1.0000 0.66990  0.80487  0.00844  Biso   1.000  O
  O15      1.0000 0.66990  0.94513  0.74156  Biso   1.000  O
  O16      1.0000 0.08010  0.80487  0.74156  Biso   1.000  O
  O17      1.0000 0.41990  0.55487  0.99156  Biso   1.000  O
  O18      1.0000 0.33010  0.19513  0.99156  Biso   1.000  O
  O19      1.0000 0.33010  0.55487  0.75844  Biso   1.000  O
  O20      1.0000 0.41990  0.19513  0.75844  Biso   1.000  O
  O21      1.0000 0.41990  0.05487  0.49156  Biso   1.000  O
  O22      1.0000 0.33010  0.69513  0.49156  Biso   1.000  O
  O23      1.0000 0.33010  0.05487  0.25844  Biso   1.000  O
  O24      1.0000 0.41990  0.69513  0.25844  Biso   1.000  O
  O25      1.0000 0.91990  0.55487  0.49156  Biso   1.000  O
  O26      1.0000 0.83010  0.19513  0.49156  Biso   1.000  O
  O27      1.0000 0.83010  0.55487  0.25844  Biso   1.000  O
  O28      1.0000 0.91990  0.19513  0.25844  Biso   1.000  O
  O29      1.0000 0.91990  0.05487  0.99156  Biso   1.000  O
  O30      1.0000 0.83010  0.69513  0.99156  Biso   1.000  O
  O31      1.0000 0.83010  0.05487  0.75844  Biso   1.000  O
  O32      1.0000 0.91990  0.69513  0.75844  Biso   1.000  O
  O33      1.0000 0.58010  0.49822  0.94464  Biso   1.000  O
  O34      1.0000 0.16990  0.25178  0.94464  Biso   1.000  O
  O35      1.0000 0.16990  0.49822  0.80536  Biso   1.000  O
  O36      1.0000 0.58010  0.25178  0.80536  Biso   1.000  O
  O37      1.0000 0.58010  0.99822  0.44464  Biso   1.000  O
  O38      1.0000 0.16990  0.75178  0.44464  Biso   1.000  O
  O39      1.0000 0.16990  0.99822  0.30536  Biso   1.000  O
  O40      1.0000 0.58010  0.75178  0.30536  Biso   1.000  O
  O41      1.0000 0.08010  0.49822  0.44464  Biso   1.000  O
  O42      1.0000 0.66990  0.25178  0.44464  Biso   1.000  O
  O43      1.0000 0.66990  0.49822  0.30536  Biso   1.000  O
  O44      1.0000 0.08010  0.25178  0.30536  Biso   1.000  O
  O45      1.0000 0.08010  0.99822  0.94464  Biso   1.000  O
  O46      1.0000 0.66990  0.75178  0.94464  Biso   1.000  O
  O47      1.0000 0.66990  0.99822  0.80536  Biso   1.000  O
  O48      1.0000 0.08010  0.75178  0.80536  Biso   1.000  O
  O49      1.0000 0.41990  0.50178  0.05536  Biso   1.000  O
  O50      1.0000 0.33010  0.24822  0.05536  Biso   1.000  O
  O51      1.0000 0.33010  0.50178  0.69464  Biso   1.000  O
  O52      1.0000 0.41990  0.24822  0.69464  Biso   1.000  O
  O53      1.0000 0.41990  0.00178  0.55536  Biso   1.000  O
  O54      1.0000 0.33010  0.74822  0.55536  Biso   1.000  O
  O55      1.0000 0.33010  0.00178  0.19464  Biso   1.000  O
  O56      1.0000 0.41990  0.74822  0.19464  Biso   1.000  O
  O57      1.0000 0.91990  0.50178  0.55536  Biso   1.000  O
  O58      1.0000 0.83010  0.24822  0.55536  Biso   1.000  O
  O59      1.0000 0.83010  0.50178  0.19464  Biso   1.000  O
  O60      1.0000 0.91990  0.24822  0.19464  Biso   1.000  O
  O61      1.0000 0.91990  0.00178  0.05536  Biso   1.000  O
  O62      1.0000 0.83010  0.74822  0.05536  Biso   1.000  O
  O63      1.0000 0.83010  0.00178  0.69464  Biso   1.000  O
  O64      1.0000 0.91990  0.74822  0.69464  Biso   1.000  O
  O65      1.0000 0.58850  0.55141  0.98951  Biso   1.000  O
  O66      1.0000 0.16150  0.19859  0.98951  Biso   1.000  O
  O67      1.0000 0.16150  0.55141  0.76049  Biso   1.000  O
  O68      1.0000 0.58850  0.19859  0.76049  Biso   1.000  O
  O69      1.0000 0.58850  0.05141  0.48951  Biso   1.000  O
  O70      1.0000 0.16150  0.69859  0.48951  Biso   1.000  O
  O71      1.0000 0.16150  0.05141  0.26049  Biso   1.000  O
  O72      1.0000 0.58850  0.69859  0.26049  Biso   1.000  O
  O73      1.0000 0.08850  0.55141  0.48951  Biso   1.000  O
  O74      1.0000 0.66150  0.19859  0.48951  Biso   1.000  O
  O75      1.0000 0.66150  0.55141  0.26049  Biso   1.000  O
  O76      1.0000 0.08850  0.19859  0.26049  Biso   1.000  O
  O77      1.0000 0.08850  0.05141  0.98951  Biso   1.000  O
  O78      1.0000 0.66150  0.69859  0.98951  Biso   1.000  O
  O79      1.0000 0.66150  0.05141  0.76049  Biso   1.000  O
  O80      1.0000 0.08850  0.69859  0.76049  Biso   1.000  O
  O81      1.0000 0.41150  0.44859  0.01049  Biso   1.000  O
  O82      1.0000 0.33850  0.30141  0.01049  Biso   1.000  O
  O83      1.0000 0.33850  0.44859  0.73951  Biso   1.000  O
  O84      1.0000 0.41150  0.30141  0.73951  Biso   1.000  O
  O85      1.0000 0.41150  0.94859  0.51049  Biso   1.000  O
  O86      1.0000 0.33850  0.80141  0.51049  Biso   1.000  O
  O87      1.0000 0.33850  0.94859  0.23951  Biso   1.000  O
  O88      1.0000 0.41150  0.80141  0.23951  Biso   1.000  O
  O89      1.0000 0.91150  0.44859  0.51049  Biso   1.000  O
  O90      1.0000 0.83850  0.30141  0.51049  Biso   1.000  O
  O91      1.0000 0.83850  0.44859  0.23951  Biso   1.000  O
  O92      1.0000 0.91150  0.30141  0.23951  Biso   1.000  O
  O93      1.0000 0.91150  0.94859  0.01049  Biso   1.000  O
  O94      1.0000 0.83850  0.80141  0.01049  Biso   1.000  O
  O95      1.0000 0.83850  0.94859  0.73951  Biso   1.000  O
  O96      1.0000 0.91150  0.80141  0.73951  Biso   1.000  O
  C1       1.0000 0.68240  0.54992  0.93748  Biso   1.000  C
  C2       1.0000 0.06760  0.20008  0.93748  Biso   1.000  C
  C3       1.0000 0.06760  0.54992  0.81252  Biso   1.000  C
  C4       1.0000 0.68240  0.20008  0.81252  Biso   1.000  C
  C5       1.0000 0.68240  0.04992  0.43748  Biso   1.000  C
  C6       1.0000 0.06760  0.70008  0.43748  Biso   1.000  C
  C7       1.0000 0.06760  0.04992  0.31252  Biso   1.000  C
  C8       1.0000 0.68240  0.70008  0.31252  Biso   1.000  C
  C9       1.0000 0.18240  0.54992  0.43748  Biso   1.000  C
  C10      1.0000 0.56760  0.20008  0.43748  Biso   1.000  C
  C11      1.0000 0.56760  0.54992  0.31252  Biso   1.000  C
  C12      1.0000 0.18240  0.20008  0.31252  Biso   1.000  C
  C13      1.0000 0.18240  0.04992  0.93748  Biso   1.000  C
  C14      1.0000 0.56760  0.70008  0.93748  Biso   1.000  C
  C15      1.0000 0.56760  0.04992  0.81252  Biso   1.000  C
  C16      1.0000 0.18240  0.70008  0.81252  Biso   1.000  C
  C17      1.0000 0.31760  0.45008  0.06252  Biso   1.000  C
  C18      1.0000 0.43240  0.29992  0.06252  Biso   1.000  C
  C19      1.0000 0.43240  0.45008  0.68748  Biso   1.000  C
  C20      1.0000 0.31760  0.29992  0.68748  Biso   1.000  C
  C21      1.0000 0.31760  0.95008  0.56252  Biso   1.000  C
  C22      1.0000 0.43240  0.79992  0.56252  Biso   1.000  C
  C23      1.0000 0.43240  0.95008  0.18748  Biso   1.000  C
  C24      1.0000 0.31760  0.79992  0.18748  Biso   1.000  C
  C25      1.0000 0.81760  0.45008  0.56252  Biso   1.000  C
  C26      1.0000 0.93240  0.29992  0.56252  Biso   1.000  C
  C27      1.0000 0.93240  0.45008  0.18748  Biso   1.000  C
  C28      1.0000 0.81760  0.29992  0.18748  Biso   1.000  C
  C29      1.0000 0.81760  0.95008  0.06252  Biso   1.000  C
  C30      1.0000 0.93240  0.79992  0.06252  Biso   1.000  C
  C31      1.0000 0.93240  0.95008  0.68748  Biso   1.000  C
  C32      1.0000 0.81760  0.79992  0.68748  Biso   1.000  C
  C33      1.0000 0.71700  0.52802  0.90538  Biso   1.000  C
  C34      1.0000 0.03300  0.22198  0.90538  Biso   1.000  C
  C35      1.0000 0.03300  0.52802  0.84462  Biso   1.000  C
  C36      1.0000 0.71700  0.22198  0.84462  Biso   1.000  C
  C37      1.0000 0.71700  0.02802  0.40538  Biso   1.000  C
  C38      1.0000 0.03300  0.72198  0.40538  Biso   1.000  C
  C39      1.0000 0.03300  0.02802  0.34462  Biso   1.000  C
  C40      1.0000 0.71700  0.72198  0.34462  Biso   1.000  C
  C41      1.0000 0.21700  0.52802  0.40538  Biso   1.000  C
  C42      1.0000 0.53300  0.22198  0.40538  Biso   1.000  C
  C43      1.0000 0.53300  0.52802  0.34462  Biso   1.000  C
  C44      1.0000 0.21700  0.22198  0.34462  Biso   1.000  C
  C45      1.0000 0.21700  0.02802  0.90538  Biso   1.000  C
  C46      1.0000 0.53300  0.72198  0.90538  Biso   1.000  C
  C47      1.0000 0.53300  0.02802  0.84462  Biso   1.000  C
  C48      1.0000 0.21700  0.72198  0.84462  Biso   1.000  C
  C49      1.0000 0.28300  0.47198  0.09462  Biso   1.000  C
  C50      1.0000 0.46700  0.27802  0.09462  Biso   1.000  C
  C51      1.0000 0.46700  0.47198  0.65538  Biso   1.000  C
  C52      1.0000 0.28300  0.27802  0.65538  Biso   1.000  C
  C53      1.0000 0.28300  0.97198  0.59462  Biso   1.000  C
  C54      1.0000 0.46700  0.77802  0.59462  Biso   1.000  C
  C55      1.0000 0.46700  0.97198  0.15538  Biso   1.000  C
  C56      1.0000 0.28300  0.77802  0.15538  Biso   1.000  C
  C57      1.0000 0.78300  0.47198  0.59462  Biso   1.000  C
  C58      1.0000 0.96700  0.27802  0.59462  Biso   1.000  C
  C59      1.0000 0.96700  0.47198  0.15538  Biso   1.000  C
  C60      1.0000 0.78300  0.27802  0.15538  Biso   1.000  C
  C61      1.0000 0.78300  0.97198  0.09462  Biso   1.000  C
  C62      1.0000 0.96700  0.77802  0.09462  Biso   1.000  C
  C63      1.0000 0.96700  0.97198  0.65538  Biso   1.000  C
  C64      1.0000 0.78300  0.77802  0.65538  Biso   1.000  C
  H1       1.0000 0.69550  0.50170  0.89730  Biso   1.000  H
  H2       1.0000 0.05450  0.24830  0.89730  Biso   1.000  H
  H3       1.0000 0.05450  0.50170  0.85270  Biso   1.000  H
  H4       1.0000 0.69550  0.24830  0.85270  Biso   1.000  H
  H5       1.0000 0.69550  0.00170  0.39730  Biso   1.000  H
  H6       1.0000 0.05450  0.74830  0.39730  Biso   1.000  H
  H7       1.0000 0.05450  0.00170  0.35270  Biso   1.000  H
  H8       1.0000 0.69550  0.74830  0.35270  Biso   1.000  H
  H9       1.0000 0.19550  0.50170  0.39730  Biso   1.000  H
  H10      1.0000 0.55450  0.24830  0.39730  Biso   1.000  H
  H11      1.0000 0.55450  0.50170  0.35270  Biso   1.000  H
  H12      1.0000 0.19550  0.24830  0.35270  Biso   1.000  H
  H13      1.0000 0.19550  0.00170  0.89730  Biso   1.000  H
  H14      1.0000 0.55450  0.74830  0.89730  Biso   1.000  H
  H15      1.0000 0.55450  0.00170  0.85270  Biso   1.000  H
  H16      1.0000 0.19550  0.74830  0.85270  Biso   1.000  H
  H17      1.0000 0.30450  0.49830  0.10270  Biso   1.000  H
  H18      1.0000 0.44550  0.25170  0.10270  Biso   1.000  H
  H19      1.0000 0.44550  0.49830  0.64730  Biso   1.000  H
  H20      1.0000 0.30450  0.25170  0.64730  Biso   1.000  H
  H21      1.0000 0.30450  0.99830  0.60270  Biso   1.000  H
  H22      1.0000 0.44550  0.75170  0.60270  Biso   1.000  H
  H23      1.0000 0.44550  0.99830  0.14730  Biso   1.000  H
  H24      1.0000 0.30450  0.75170  0.14730  Biso   1.000  H
  H25      1.0000 0.80450  0.49830  0.60270  Biso   1.000  H
  H26      1.0000 0.94550  0.25170  0.60270  Biso   1.000  H
  H27      1.0000 0.94550  0.49830  0.14730  Biso   1.000  H
  H28      1.0000 0.80450  0.25170  0.14730  Biso   1.000  H
  H29      1.0000 0.80450  0.99830  0.10270  Biso   1.000  H
  H30      1.0000 0.94550  0.75170  0.10270  Biso   1.000  H
  H31      1.0000 0.94550  0.99830  0.64730  Biso   1.000  H
  H32      1.0000 0.80450  0.75170  0.64730  Biso   1.000  H
  C65      1.0000 0.78170  0.54456  0.88563  Biso   1.000  C
  C66      1.0000 0.96830  0.20544  0.88563  Biso   1.000  C
  C67      1.0000 0.96830  0.54456  0.86437  Biso   1.000  C
  C68      1.0000 0.78170  0.20544  0.86437  Biso   1.000  C
  C69      1.0000 0.78170  0.04456  0.38563  Biso   1.000  C
  C70      1.0000 0.96830  0.70544  0.38563  Biso   1.000  C
  C71      1.0000 0.96830  0.04456  0.36437  Biso   1.000  C
  C72      1.0000 0.78170  0.70544  0.36437  Biso   1.000  C
  C73      1.0000 0.28170  0.54456  0.38563  Biso   1.000  C
  C74      1.0000 0.46830  0.20544  0.38563  Biso   1.000  C
  C75      1.0000 0.46830  0.54456  0.36437  Biso   1.000  C
  C76      1.0000 0.28170  0.20544  0.36437  Biso   1.000  C
  C77      1.0000 0.28170  0.04456  0.88563  Biso   1.000  C
  C78      1.0000 0.46830  0.70544  0.88563  Biso   1.000  C
  C79      1.0000 0.46830  0.04456  0.86437  Biso   1.000  C
  C80      1.0000 0.28170  0.70544  0.86437  Biso   1.000  C
  C81      1.0000 0.21830  0.45544  0.11437  Biso   1.000  C
  C82      1.0000 0.53170  0.29456  0.11437  Biso   1.000  C
  C83      1.0000 0.53170  0.45544  0.63563  Biso   1.000  C
  C84      1.0000 0.21830  0.29456  0.63563  Biso   1.000  C
  C85      1.0000 0.21830  0.95544  0.61437  Biso   1.000  C
  C86      1.0000 0.53170  0.79456  0.61437  Biso   1.000  C
  C87      1.0000 0.53170  0.95544  0.13563  Biso   1.000  C
  C88      1.0000 0.21830  0.79456  0.13563  Biso   1.000  C
  C89      1.0000 0.71830  0.45544  0.61437  Biso   1.000  C
  C90      1.0000 0.03170  0.29456  0.61437  Biso   1.000  C
  C91      1.0000 0.03170  0.45544  0.13563  Biso   1.000  C
  C92      1.0000 0.71830  0.29456  0.13563  Biso   1.000  C
  C93      1.0000 0.71830  0.95544  0.11437  Biso   1.000  C
  C94      1.0000 0.03170  0.79456  0.11437  Biso   1.000  C
  C95      1.0000 0.03170  0.95544  0.63563  Biso   1.000  C
  C96      1.0000 0.71830  0.79456  0.63563  Biso   1.000  C
  H33      1.0000 0.80490  0.52900  0.86490  Biso   1.000  H
  H34      1.0000 0.94510  0.22100  0.86490  Biso   1.000  H
  H35      1.0000 0.94510  0.52900  0.88510  Biso   1.000  H
  H36      1.0000 0.80490  0.22100  0.88510  Biso   1.000  H
  H37      1.0000 0.80490  0.02900  0.36490  Biso   1.000  H
  H38      1.0000 0.94510  0.72100  0.36490  Biso   1.000  H
  H39      1.0000 0.94510  0.02900  0.38510  Biso   1.000  H
  H40      1.0000 0.80490  0.72100  0.38510  Biso   1.000  H
  H41      1.0000 0.30490  0.52900  0.36490  Biso   1.000  H
  H42      1.0000 0.44510  0.22100  0.36490  Biso   1.000  H
  H43      1.0000 0.44510  0.52900  0.38510  Biso   1.000  H
  H44      1.0000 0.30490  0.22100  0.38510  Biso   1.000  H
  H45      1.0000 0.30490  0.02900  0.86490  Biso   1.000  H
  H46      1.0000 0.44510  0.72100  0.86490  Biso   1.000  H
  H47      1.0000 0.44510  0.02900  0.88510  Biso   1.000  H
  H48      1.0000 0.30490  0.72100  0.88510  Biso   1.000  H
  H49      1.0000 0.19510  0.47100  0.13510  Biso   1.000  H
  H50      1.0000 0.55490  0.27900  0.13510  Biso   1.000  H
  H51      1.0000 0.55490  0.47100  0.61490  Biso   1.000  H
  H52      1.0000 0.19510  0.27900  0.61490  Biso   1.000  H
  H53      1.0000 0.19510  0.97100  0.63510  Biso   1.000  H
  H54      1.0000 0.55490  0.77900  0.63510  Biso   1.000  H
  H55      1.0000 0.55490  0.97100  0.11490  Biso   1.000  H
  H56      1.0000 0.19510  0.77900  0.11490  Biso   1.000  H
  H57      1.0000 0.69510  0.47100  0.63510  Biso   1.000  H
  H58      1.0000 0.05490  0.27900  0.63510  Biso   1.000  H
  H59      1.0000 0.05490  0.47100  0.11490  Biso   1.000  H
  H60      1.0000 0.69510  0.27900  0.11490  Biso   1.000  H
  H61      1.0000 0.69510  0.97100  0.13510  Biso   1.000  H
  H62      1.0000 0.05490  0.77900  0.13510  Biso   1.000  H
  H63      1.0000 0.05490  0.97100  0.61490  Biso   1.000  H
  H64      1.0000 0.69510  0.77900  0.61490  Biso   1.000  H
  C97      1.0000 0.81340  0.58457  0.89636  Biso   1.000  C
  C98      1.0000 0.93660  0.16543  0.89636  Biso   1.000  C
  C99      1.0000 0.93660  0.58457  0.85364  Biso   1.000  C
  C100     1.0000 0.81340  0.16543  0.85364  Biso   1.000  C
  C101     1.0000 0.81340  0.08457  0.39636  Biso   1.000  C
  C102     1.0000 0.93660  0.66543  0.39636  Biso   1.000  C
  C103     1.0000 0.93660  0.08457  0.35364  Biso   1.000  C
  C104     1.0000 0.81340  0.66543  0.35364  Biso   1.000  C
  C105     1.0000 0.31340  0.58457  0.39636  Biso   1.000  C
  C106     1.0000 0.43660  0.16543  0.39636  Biso   1.000  C
  C107     1.0000 0.43660  0.58457  0.35364  Biso   1.000  C
  C108     1.0000 0.31340  0.16543  0.35364  Biso   1.000  C
  C109     1.0000 0.31340  0.08457  0.89636  Biso   1.000  C
  C110     1.0000 0.43660  0.66543  0.89636  Biso   1.000  C
  C111     1.0000 0.43660  0.08457  0.85364  Biso   1.000  C
  C112     1.0000 0.31340  0.66543  0.85364  Biso   1.000  C
  C113     1.0000 0.18660  0.41543  0.10364  Biso   1.000  C
  C114     1.0000 0.56340  0.33457  0.10364  Biso   1.000  C
  C115     1.0000 0.56340  0.41543  0.64636  Biso   1.000  C
  C116     1.0000 0.18660  0.33457  0.64636  Biso   1.000  C
  C117     1.0000 0.18660  0.91543  0.60364  Biso   1.000  C
  C118     1.0000 0.56340  0.83457  0.60364  Biso   1.000  C
  C119     1.0000 0.56340  0.91543  0.14636  Biso   1.000  C
  C120     1.0000 0.18660  0.83457  0.14636  Biso   1.000  C
  C121     1.0000 0.68660  0.41543  0.60364  Biso   1.000  C
  C122     1.0000 0.06340  0.33457  0.60364  Biso   1.000  C
  C123     1.0000 0.06340  0.41543  0.14636  Biso   1.000  C
  C124     1.0000 0.68660  0.33457  0.14636  Biso   1.000  C
  C125     1.0000 0.68660  0.91543  0.10364  Biso   1.000  C
  C126     1.0000 0.06340  0.83457  0.10364  Biso   1.000  C
  C127     1.0000 0.06340  0.91543  0.64636  Biso   1.000  C
  C128     1.0000 0.68660  0.83457  0.64636  Biso   1.000  C
  C129     1.0000 0.77910  0.60653  0.92823  Biso   1.000  C
  C130     1.0000 0.97090  0.14347  0.92823  Biso   1.000  C
  C131     1.0000 0.97090  0.60653  0.82177  Biso   1.000  C
  C132     1.0000 0.77910  0.14347  0.82177  Biso   1.000  C
  C133     1.0000 0.77910  0.10653  0.42823  Biso   1.000  C
  C134     1.0000 0.97090  0.64347  0.42823  Biso   1.000  C
  C135     1.0000 0.97090  0.10653  0.32177  Biso   1.000  C
  C136     1.0000 0.77910  0.64347  0.32177  Biso   1.000  C
  C137     1.0000 0.27910  0.60653  0.42823  Biso   1.000  C
  C138     1.0000 0.47090  0.14347  0.42823  Biso   1.000  C
  C139     1.0000 0.47090  0.60653  0.32177  Biso   1.000  C
  C140     1.0000 0.27910  0.14347  0.32177  Biso   1.000  C
  C141     1.0000 0.27910  0.10653  0.92823  Biso   1.000  C
  C142     1.0000 0.47090  0.64347  0.92823  Biso   1.000  C
  C143     1.0000 0.47090  0.10653  0.82177  Biso   1.000  C
  C144     1.0000 0.27910  0.64347  0.82177  Biso   1.000  C
  C145     1.0000 0.22090  0.39347  0.07177  Biso   1.000  C
  C146     1.0000 0.52910  0.35653  0.07177  Biso   1.000  C
  C147     1.0000 0.52910  0.39347  0.67823  Biso   1.000  C
  C148     1.0000 0.22090  0.35653  0.67823  Biso   1.000  C
  C149     1.0000 0.22090  0.89347  0.57177  Biso   1.000  C
  C150     1.0000 0.52910  0.85653  0.57177  Biso   1.000  C
  C151     1.0000 0.52910  0.89347  0.17823  Biso   1.000  C
  C152     1.0000 0.22090  0.85653  0.17823  Biso   1.000  C
  C153     1.0000 0.72090  0.39347  0.57177  Biso   1.000  C
  C154     1.0000 0.02910  0.35653  0.57177  Biso   1.000  C
  C155     1.0000 0.02910  0.39347  0.17823  Biso   1.000  C
  C156     1.0000 0.72090  0.35653  0.17823  Biso   1.000  C
  C157     1.0000 0.72090  0.89347  0.07177  Biso   1.000  C
  C158     1.0000 0.02910  0.85653  0.07177  Biso   1.000  C
  C159     1.0000 0.02910  0.89347  0.67823  Biso   1.000  C
  C160     1.0000 0.72090  0.85653  0.67823  Biso   1.000  C
  H65      1.0000 0.80010  0.63300  0.93600  Biso   1.000  H
  H66      1.0000 0.94990  0.11700  0.93600  Biso   1.000  H
  H67      1.0000 0.94990  0.63300  0.81400  Biso   1.000  H
  H68      1.0000 0.80010  0.11700  0.81400  Biso   1.000  H
  H69      1.0000 0.80010  0.13300  0.43600  Biso   1.000  H
  H70      1.0000 0.94990  0.61700  0.43600  Biso   1.000  H
  H71      1.0000 0.94990  0.13300  0.31400  Biso   1.000  H
  H72      1.0000 0.80010  0.61700  0.31400  Biso   1.000  H
  H73      1.0000 0.30010  0.63300  0.43600  Biso   1.000  H
  H74      1.0000 0.44990  0.11700  0.43600  Biso   1.000  H
  H75      1.0000 0.44990  0.63300  0.31400  Biso   1.000  H
  H76      1.0000 0.30010  0.11700  0.31400  Biso   1.000  H
  H77      1.0000 0.30010  0.13300  0.93600  Biso   1.000  H
  H78      1.0000 0.44990  0.61700  0.93600  Biso   1.000  H
  H79      1.0000 0.44990  0.13300  0.81400  Biso   1.000  H
  H80      1.0000 0.30010  0.61700  0.81400  Biso   1.000  H
  H81      1.0000 0.19990  0.36700  0.06400  Biso   1.000  H
  H82      1.0000 0.55010  0.38300  0.06400  Biso   1.000  H
  H83      1.0000 0.55010  0.36700  0.68600  Biso   1.000  H
  H84      1.0000 0.19990  0.38300  0.68600  Biso   1.000  H
  H85      1.0000 0.19990  0.86700  0.56400  Biso   1.000  H
  H86      1.0000 0.55010  0.88300  0.56400  Biso   1.000  H
  H87      1.0000 0.55010  0.86700  0.18600  Biso   1.000  H
  H88      1.0000 0.19990  0.88300  0.18600  Biso   1.000  H
  H89      1.0000 0.69990  0.36700  0.56400  Biso   1.000  H
  H90      1.0000 0.05010  0.38300  0.56400  Biso   1.000  H
  H91      1.0000 0.05010  0.36700  0.18600  Biso   1.000  H
  H92      1.0000 0.69990  0.38300  0.18600  Biso   1.000  H
  H93      1.0000 0.69990  0.86700  0.06400  Biso   1.000  H
  H94      1.0000 0.05010  0.88300  0.06400  Biso   1.000  H
  H95      1.0000 0.05010  0.86700  0.68600  Biso   1.000  H
  H96      1.0000 0.69990  0.88300  0.68600  Biso   1.000  H
  C161     1.0000 0.71480  0.58973  0.94839  Biso   1.000  C
  C162     1.0000 0.03520  0.16027  0.94839  Biso   1.000  C
  C163     1.0000 0.03520  0.58973  0.80161  Biso   1.000  C
  C164     1.0000 0.71480  0.16027  0.80161  Biso   1.000  C
  C165     1.0000 0.71480  0.08973  0.44839  Biso   1.000  C
  C166     1.0000 0.03520  0.66027  0.44839  Biso   1.000  C
  C167     1.0000 0.03520  0.08973  0.30161  Biso   1.000  C
  C168     1.0000 0.71480  0.66027  0.30161  Biso   1.000  C
  C169     1.0000 0.21480  0.58973  0.44839  Biso   1.000  C
  C170     1.0000 0.53520  0.16027  0.44839  Biso   1.000  C
  C171     1.0000 0.53520  0.58973  0.30161  Biso   1.000  C
  C172     1.0000 0.21480  0.16027  0.30161  Biso   1.000  C
  C173     1.0000 0.21480  0.08973  0.94839  Biso   1.000  C
  C174     1.0000 0.53520  0.66027  0.94839  Biso   1.000  C
  C175     1.0000 0.53520  0.08973  0.80161  Biso   1.000  C
  C176     1.0000 0.21480  0.66027  0.80161  Biso   1.000  C
  C177     1.0000 0.28520  0.41027  0.05161  Biso   1.000  C
  C178     1.0000 0.46480  0.33973  0.05161  Biso   1.000  C
  C179     1.0000 0.46480  0.41027  0.69839  Biso   1.000  C
  C180     1.0000 0.28520  0.33973  0.69839  Biso   1.000  C
  C181     1.0000 0.28520  0.91027  0.55161  Biso   1.000  C
  C182     1.0000 0.46480  0.83973  0.55161  Biso   1.000  C
  C183     1.0000 0.46480  0.91027  0.19839  Biso   1.000  C
  C184     1.0000 0.28520  0.83973  0.19839  Biso   1.000  C
  C185     1.0000 0.78520  0.41027  0.55161  Biso   1.000  C
  C186     1.0000 0.96480  0.33973  0.55161  Biso   1.000  C
  C187     1.0000 0.96480  0.41027  0.19839  Biso   1.000  C
  C188     1.0000 0.78520  0.33973  0.19839  Biso   1.000  C
  C189     1.0000 0.78520  0.91027  0.05161  Biso   1.000  C
  C190     1.0000 0.96480  0.83973  0.05161  Biso   1.000  C
  C191     1.0000 0.96480  0.91027  0.69839  Biso   1.000  C
  C192     1.0000 0.78520  0.83973  0.69839  Biso   1.000  C
  H97      1.0000 0.69260  0.60500  0.96950  Biso   1.000  H
  H98      1.0000 0.05740  0.14500  0.96950  Biso   1.000  H
  H99      1.0000 0.05740  0.60500  0.78050  Biso   1.000  H
  H100     1.0000 0.69260  0.14500  0.78050  Biso   1.000  H
  H101     1.0000 0.69260  0.10500  0.46950  Biso   1.000  H
  H102     1.0000 0.05740  0.64500  0.46950  Biso   1.000  H
  H103     1.0000 0.05740  0.10500  0.28050  Biso   1.000  H
  H104     1.0000 0.69260  0.64500  0.28050  Biso   1.000  H
  H105     1.0000 0.19260  0.60500  0.46950  Biso   1.000  H
  H106     1.0000 0.55740  0.14500  0.46950  Biso   1.000  H
  H107     1.0000 0.55740  0.60500  0.28050  Biso   1.000  H
  H108     1.0000 0.19260  0.14500  0.28050  Biso   1.000  H
  H109     1.0000 0.19260  0.10500  0.96950  Biso   1.000  H
  H110     1.0000 0.55740  0.64500  0.96950  Biso   1.000  H
  H111     1.0000 0.55740  0.10500  0.78050  Biso   1.000  H
  H112     1.0000 0.19260  0.64500  0.78050  Biso   1.000  H
  H113     1.0000 0.30740  0.39500  0.03050  Biso   1.000  H
  H114     1.0000 0.44260  0.35500  0.03050  Biso   1.000  H
  H115     1.0000 0.44260  0.39500  0.71950  Biso   1.000  H
  H116     1.0000 0.30740  0.35500  0.71950  Biso   1.000  H
  H117     1.0000 0.30740  0.89500  0.53050  Biso   1.000  H
  H118     1.0000 0.44260  0.85500  0.53050  Biso   1.000  H
  H119     1.0000 0.44260  0.89500  0.21950  Biso   1.000  H
  H120     1.0000 0.30740  0.85500  0.21950  Biso   1.000  H
  H121     1.0000 0.80740  0.39500  0.53050  Biso   1.000  H
  H122     1.0000 0.94260  0.35500  0.53050  Biso   1.000  H
  H123     1.0000 0.94260  0.39500  0.21950  Biso   1.000  H
  H124     1.0000 0.80740  0.35500  0.21950  Biso   1.000  H
  H125     1.0000 0.80740  0.89500  0.03050  Biso   1.000  H
  H126     1.0000 0.94260  0.85500  0.03050  Biso   1.000  H
  H127     1.0000 0.94260  0.89500  0.71950  Biso   1.000  H
  H128     1.0000 0.80740  0.85500  0.71950  Biso   1.000  H
  C193     1.0000 0.61210  0.53181  0.95880  Biso   1.000  C
  C194     1.0000 0.13790  0.21819  0.95880  Biso   1.000  C
  C195     1.0000 0.13790  0.53181  0.79120  Biso   1.000  C
  C196     1.0000 0.61210  0.21819  0.79120  Biso   1.000  C
  C197     1.0000 0.61210  0.03181  0.45880  Biso   1.000  C
  C198     1.0000 0.13790  0.71819  0.45880  Biso   1.000  C
  C199     1.0000 0.13790  0.03181  0.29120  Biso   1.000  C
  C200     1.0000 0.61210  0.71819  0.29120  Biso   1.000  C
  C201     1.0000 0.11210  0.53181  0.45880  Biso   1.000  C
  C202     1.0000 0.63790  0.21819  0.45880  Biso   1.000  C
  C203     1.0000 0.63790  0.53181  0.29120  Biso   1.000  C
  C204     1.0000 0.11210  0.21819  0.29120  Biso   1.000  C
  C205     1.0000 0.11210  0.03181  0.95880  Biso   1.000  C
  C206     1.0000 0.63790  0.71819  0.95880  Biso   1.000  C
  C207     1.0000 0.63790  0.03181  0.79120  Biso   1.000  C
  C208     1.0000 0.11210  0.71819  0.79120  Biso   1.000  C
  C209     1.0000 0.38790  0.46819  0.04120  Biso   1.000  C
  C210     1.0000 0.36210  0.28181  0.04120  Biso   1.000  C
  C211     1.0000 0.36210  0.46819  0.70880  Biso   1.000  C
  C212     1.0000 0.38790  0.28181  0.70880  Biso   1.000  C
  C213     1.0000 0.38790  0.96819  0.54120  Biso   1.000  C
  C214     1.0000 0.36210  0.78181  0.54120  Biso   1.000  C
  C215     1.0000 0.36210  0.96819  0.20880  Biso   1.000  C
  C216     1.0000 0.38790  0.78181  0.20880  Biso   1.000  C
  C217     1.0000 0.88790  0.46819  0.54120  Biso   1.000  C
  C218     1.0000 0.86210  0.28181  0.54120  Biso   1.000  C
  C219     1.0000 0.86210  0.46819  0.20880  Biso   1.000  C
  C220     1.0000 0.88790  0.28181  0.20880  Biso   1.000  C
  C221     1.0000 0.88790  0.96819  0.04120  Biso   1.000  C
  C222     1.0000 0.86210  0.78181  0.04120  Biso   1.000  C
  C223     1.0000 0.86210  0.96819  0.70880  Biso   1.000  C
  C224     1.0000 0.88790  0.78181  0.70880  Biso   1.000  C
  C225     1.0000 0.61100  0.46302  0.03860  Biso   1.000  C
  C226     1.0000 0.13900  0.28698  0.03860  Biso   1.000  C
  C227     1.0000 0.13900  0.46302  0.71140  Biso   1.000  C
  C228     1.0000 0.61100  0.28698  0.71140  Biso   1.000  C
  C229     1.0000 0.61100  0.96302  0.53860  Biso   1.000  C
  C230     1.0000 0.13900  0.78698  0.53860  Biso   1.000  C
  C231     1.0000 0.13900  0.96302  0.21140  Biso   1.000  C
  C232     1.0000 0.61100  0.78698  0.21140  Biso   1.000  C
  C233     1.0000 0.11100  0.46302  0.53860  Biso   1.000  C
  C234     1.0000 0.63900  0.28698  0.53860  Biso   1.000  C
  C235     1.0000 0.63900  0.46302  0.21140  Biso   1.000  C
  C236     1.0000 0.11100  0.28698  0.21140  Biso   1.000  C
  C237     1.0000 0.11100  0.96302  0.03860  Biso   1.000  C
  C238     1.0000 0.63900  0.78698  0.03860  Biso   1.000  C
  C239     1.0000 0.63900  0.96302  0.71140  Biso   1.000  C
  C240     1.0000 0.11100  0.78698  0.71140  Biso   1.000  C
  C241     1.0000 0.38900  0.53698  0.96140  Biso   1.000  C
  C242     1.0000 0.36100  0.21302  0.96140  Biso   1.000  C
  C243     1.0000 0.36100  0.53698  0.78860  Biso   1.000  C
  C244     1.0000 0.38900  0.21302  0.78860  Biso   1.000  C
  C245     1.0000 0.38900  0.03698  0.46140  Biso   1.000  C
  C246     1.0000 0.36100  0.71302  0.46140  Biso   1.000  C
  C247     1.0000 0.36100  0.03698  0.28860  Biso   1.000  C
  C248     1.0000 0.38900  0.71302  0.28860  Biso   1.000  C
  C249     1.0000 0.88900  0.53698  0.46140  Biso   1.000  C
  C250     1.0000 0.86100  0.21302  0.46140  Biso   1.000  C
  C251     1.0000 0.86100  0.53698  0.28860  Biso   1.000  C
  C252     1.0000 0.88900  0.21302  0.28860  Biso   1.000  C
  C253     1.0000 0.88900  0.03698  0.96140  Biso   1.000  C
  C254     1.0000 0.86100  0.71302  0.96140  Biso   1.000  C
  C255     1.0000 0.86100  0.03698  0.78860  Biso   1.000  C
  C256     1.0000 0.88900  0.71302  0.78860  Biso   1.000  C
  C257     1.0000 0.68210  0.44083  0.05669  Biso   1.000  C
  C258     1.0000 0.06790  0.30917  0.05669  Biso   1.000  C
  C259     1.0000 0.06790  0.44083  0.69331  Biso   1.000  C
  C260     1.0000 0.68210  0.30917  0.69331  Biso   1.000  C
  C261     1.0000 0.68210  0.94083  0.55669  Biso   1.000  C
  C262     1.0000 0.06790  0.80917  0.55669  Biso   1.000  C
  C263     1.0000 0.06790  0.94083  0.19331  Biso   1.000  C
  C264     1.0000 0.68210  0.80917  0.19331  Biso   1.000  C
  C265     1.0000 0.18210  0.44083  0.55669  Biso   1.000  C
  C266     1.0000 0.56790  0.30917  0.55669  Biso   1.000  C
  C267     1.0000 0.56790  0.44083  0.19331  Biso   1.000  C
  C268     1.0000 0.18210  0.30917  0.19331  Biso   1.000  C
  C269     1.0000 0.18210  0.94083  0.05669  Biso   1.000  C
  C270     1.0000 0.56790  0.80917  0.05669  Biso   1.000  C
  C271     1.0000 0.56790  0.94083  0.69331  Biso   1.000  C
  C272     1.0000 0.18210  0.80917  0.69331  Biso   1.000  C
  C273     1.0000 0.31790  0.55917  0.94331  Biso   1.000  C
  C274     1.0000 0.43210  0.19083  0.94331  Biso   1.000  C
  C275     1.0000 0.43210  0.55917  0.80669  Biso   1.000  C
  C276     1.0000 0.31790  0.19083  0.80669  Biso   1.000  C
  C277     1.0000 0.31790  0.05917  0.44331  Biso   1.000  C
  C278     1.0000 0.43210  0.69083  0.44331  Biso   1.000  C
  C279     1.0000 0.43210  0.05917  0.30669  Biso   1.000  C
  C280     1.0000 0.31790  0.69083  0.30669  Biso   1.000  C
  C281     1.0000 0.81790  0.55917  0.44331  Biso   1.000  C
  C282     1.0000 0.93210  0.19083  0.44331  Biso   1.000  C
  C283     1.0000 0.93210  0.55917  0.30669  Biso   1.000  C
  C284     1.0000 0.81790  0.19083  0.30669  Biso   1.000  C
  C285     1.0000 0.81790  0.05917  0.94331  Biso   1.000  C
  C286     1.0000 0.93210  0.69083  0.94331  Biso   1.000  C
  C287     1.0000 0.93210  0.05917  0.80669  Biso   1.000  C
  C288     1.0000 0.81790  0.69083  0.80669  Biso   1.000  C
  C289     1.0000 0.71320  0.45378  0.09334  Biso   1.000  C
  C290     1.0000 0.03680  0.29622  0.09334  Biso   1.000  C
  C291     1.0000 0.03680  0.45378  0.65666  Biso   1.000  C
  C292     1.0000 0.71320  0.29622  0.65666  Biso   1.000  C
  C293     1.0000 0.71320  0.95378  0.59334  Biso   1.000  C
  C294     1.0000 0.03680  0.79622  0.59334  Biso   1.000  C
  C295     1.0000 0.03680  0.95378  0.15666  Biso   1.000  C
  C296     1.0000 0.71320  0.79622  0.15666  Biso   1.000  C
  C297     1.0000 0.21320  0.45378  0.59334  Biso   1.000  C
  C298     1.0000 0.53680  0.29622  0.59334  Biso   1.000  C
  C299     1.0000 0.53680  0.45378  0.15666  Biso   1.000  C
  C300     1.0000 0.21320  0.29622  0.15666  Biso   1.000  C
  C301     1.0000 0.21320  0.95378  0.09334  Biso   1.000  C
  C302     1.0000 0.53680  0.79622  0.09334  Biso   1.000  C
  C303     1.0000 0.53680  0.95378  0.65666  Biso   1.000  C
  C304     1.0000 0.21320  0.79622  0.65666  Biso   1.000  C
  C305     1.0000 0.28680  0.54622  0.90666  Biso   1.000  C
  C306     1.0000 0.46320  0.20378  0.90666  Biso   1.000  C
  C307     1.0000 0.46320  0.54622  0.84334  Biso   1.000  C
  C308     1.0000 0.28680  0.20378  0.84334  Biso   1.000  C
  C309     1.0000 0.28680  0.04622  0.40666  Biso   1.000  C
  C310     1.0000 0.46320  0.70378  0.40666  Biso   1.000  C
  C311     1.0000 0.46320  0.04622  0.34334  Biso   1.000  C
  C312     1.0000 0.28680  0.70378  0.34334  Biso   1.000  C
  C313     1.0000 0.78680  0.54622  0.40666  Biso   1.000  C
  C314     1.0000 0.96320  0.20378  0.40666  Biso   1.000  C
  C315     1.0000 0.96320  0.54622  0.34334  Biso   1.000  C
  C316     1.0000 0.78680  0.20378  0.34334  Biso   1.000  C
  C317     1.0000 0.78680  0.04622  0.90666  Biso   1.000  C
  C318     1.0000 0.96320  0.70378  0.90666  Biso   1.000  C
  C319     1.0000 0.96320  0.04622  0.84334  Biso   1.000  C
  C320     1.0000 0.78680  0.70378  0.84334  Biso   1.000  C
  H129     1.0000 0.69040  0.47700  0.10680  Biso   1.000  H
  H130     1.0000 0.05960  0.27300  0.10680  Biso   1.000  H
  H131     1.0000 0.05960  0.47700  0.64320  Biso   1.000  H
  H132     1.0000 0.69040  0.27300  0.64320  Biso   1.000  H
  H133     1.0000 0.69040  0.97700  0.60680  Biso   1.000  H
  H134     1.0000 0.05960  0.77300  0.60680  Biso   1.000  H
  H135     1.0000 0.05960  0.97700  0.14320  Biso   1.000  H
  H136     1.0000 0.69040  0.77300  0.14320  Biso   1.000  H
  H137     1.0000 0.19040  0.47700  0.60680  Biso   1.000  H
  H138     1.0000 0.55960  0.27300  0.60680  Biso   1.000  H
  H139     1.0000 0.55960  0.47700  0.14320  Biso   1.000  H
  H140     1.0000 0.19040  0.27300  0.14320  Biso   1.000  H
  H141     1.0000 0.19040  0.97700  0.10680  Biso   1.000  H
  H142     1.0000 0.55960  0.77300  0.10680  Biso   1.000  H
  H143     1.0000 0.55960  0.97700  0.64320  Biso   1.000  H
  H144     1.0000 0.19040  0.77300  0.64320  Biso   1.000  H
  H145     1.0000 0.30960  0.52300  0.89320  Biso   1.000  H
  H146     1.0000 0.44040  0.22700  0.89320  Biso   1.000  H
  H147     1.0000 0.44040  0.52300  0.85680  Biso   1.000  H
  H148     1.0000 0.30960  0.22700  0.85680  Biso   1.000  H
  H149     1.0000 0.30960  0.02300  0.39320  Biso   1.000  H
  H150     1.0000 0.44040  0.72700  0.39320  Biso   1.000  H
  H151     1.0000 0.44040  0.02300  0.35680  Biso   1.000  H
  H152     1.0000 0.30960  0.72700  0.35680  Biso   1.000  H
  H153     1.0000 0.80960  0.52300  0.39320  Biso   1.000  H
  H154     1.0000 0.94040  0.22700  0.39320  Biso   1.000  H
  H155     1.0000 0.94040  0.52300  0.35680  Biso   1.000  H
  H156     1.0000 0.80960  0.22700  0.35680  Biso   1.000  H
  H157     1.0000 0.80960  0.02300  0.89320  Biso   1.000  H
  H158     1.0000 0.94040  0.72700  0.89320  Biso   1.000  H
  H159     1.0000 0.94040  0.02300  0.85680  Biso   1.000  H
  H160     1.0000 0.80960  0.72700  0.85680  Biso   1.000  H
  C321     1.0000 0.77750  0.43221  0.10975  Biso   1.000  C
  C322     1.0000 0.97250  0.31779  0.10975  Biso   1.000  C
  C323     1.0000 0.97250  0.43221  0.64025  Biso   1.000  C
  C324     1.0000 0.77750  0.31779  0.64025  Biso   1.000  C
  C325     1.0000 0.77750  0.93221  0.60975  Biso   1.000  C
  C326     1.0000 0.97250  0.81779  0.60975  Biso   1.000  C
  C327     1.0000 0.97250  0.93221  0.14025  Biso   1.000  C
  C328     1.0000 0.77750  0.81779  0.14025  Biso   1.000  C
  C329     1.0000 0.27750  0.43221  0.60975  Biso   1.000  C
  C330     1.0000 0.47250  0.31779  0.60975  Biso   1.000  C
  C331     1.0000 0.47250  0.43221  0.14025  Biso   1.000  C
  C332     1.0000 0.27750  0.31779  0.14025  Biso   1.000  C
  C333     1.0000 0.27750  0.93221  0.10975  Biso   1.000  C
  C334     1.0000 0.47250  0.81779  0.10975  Biso   1.000  C
  C335     1.0000 0.47250  0.93221  0.64025  Biso   1.000  C
  C336     1.0000 0.27750  0.81779  0.64025  Biso   1.000  C
  C337     1.0000 0.22250  0.56779  0.89025  Biso   1.000  C
  C338     1.0000 0.52750  0.18221  0.89025  Biso   1.000  C
  C339     1.0000 0.52750  0.56779  0.85975  Biso   1.000  C
  C340     1.0000 0.22250  0.18221  0.85975  Biso   1.000  C
  C341     1.0000 0.22250  0.06779  0.39025  Biso   1.000  C
  C342     1.0000 0.52750  0.68221  0.39025  Biso   1.000  C
  C343     1.0000 0.52750  0.06779  0.35975  Biso   1.000  C
  C344     1.0000 0.22250  0.68221  0.35975  Biso   1.000  C
  C345     1.0000 0.72250  0.56779  0.39025  Biso   1.000  C
  C346     1.0000 0.02750  0.18221  0.39025  Biso   1.000  C
  C347     1.0000 0.02750  0.56779  0.35975  Biso   1.000  C
  C348     1.0000 0.72250  0.18221  0.35975  Biso   1.000  C
  C349     1.0000 0.72250  0.06779  0.89025  Biso   1.000  C
  C350     1.0000 0.02750  0.68221  0.89025  Biso   1.000  C
  C351     1.0000 0.02750  0.06779  0.85975  Biso   1.000  C
  C352     1.0000 0.72250  0.68221  0.85975  Biso   1.000  C
  H161     1.0000 0.79740  0.44100  0.13430  Biso   1.000  H
  H162     1.0000 0.95260  0.30900  0.13430  Biso   1.000  H
  H163     1.0000 0.95260  0.44100  0.61570  Biso   1.000  H
  H164     1.0000 0.79740  0.30900  0.61570  Biso   1.000  H
  H165     1.0000 0.79740  0.94100  0.63430  Biso   1.000  H
  H166     1.0000 0.95260  0.80900  0.63430  Biso   1.000  H
  H167     1.0000 0.95260  0.94100  0.11570  Biso   1.000  H
  H168     1.0000 0.79740  0.80900  0.11570  Biso   1.000  H
  H169     1.0000 0.29740  0.44100  0.63430  Biso   1.000  H
  H170     1.0000 0.45260  0.30900  0.63430  Biso   1.000  H
  H171     1.0000 0.45260  0.44100  0.11570  Biso   1.000  H
  H172     1.0000 0.29740  0.30900  0.11570  Biso   1.000  H
  H173     1.0000 0.29740  0.94100  0.13430  Biso   1.000  H
  H174     1.0000 0.45260  0.80900  0.13430  Biso   1.000  H
  H175     1.0000 0.45260  0.94100  0.61570  Biso   1.000  H
  H176     1.0000 0.29740  0.80900  0.61570  Biso   1.000  H
  H177     1.0000 0.20260  0.55900  0.86570  Biso   1.000  H
  H178     1.0000 0.54740  0.19100  0.86570  Biso   1.000  H
  H179     1.0000 0.54740  0.55900  0.88430  Biso   1.000  H
  H180     1.0000 0.20260  0.19100  0.88430  Biso   1.000  H
  H181     1.0000 0.20260  0.05900  0.36570  Biso   1.000  H
  H182     1.0000 0.54740  0.69100  0.36570  Biso   1.000  H
  H183     1.0000 0.54740  0.05900  0.38430  Biso   1.000  H
  H184     1.0000 0.20260  0.69100  0.38430  Biso   1.000  H
  H185     1.0000 0.70260  0.55900  0.36570  Biso   1.000  H
  H186     1.0000 0.04740  0.19100  0.36570  Biso   1.000  H
  H187     1.0000 0.04740  0.55900  0.38430  Biso   1.000  H
  H188     1.0000 0.70260  0.19100  0.38430  Biso   1.000  H
  H189     1.0000 0.70260  0.05900  0.86570  Biso   1.000  H
  H190     1.0000 0.04740  0.69100  0.86570  Biso   1.000  H
  H191     1.0000 0.04740  0.05900  0.88430  Biso   1.000  H
  H192     1.0000 0.70260  0.69100  0.88430  Biso   1.000  H
  C353     1.0000 0.81340  0.39746  0.09027  Biso   1.000  C
  C354     1.0000 0.93660  0.35254  0.09027  Biso   1.000  C
  C355     1.0000 0.93660  0.39746  0.65973  Biso   1.000  C
  C356     1.0000 0.81340  0.35254  0.65973  Biso   1.000  C
  C357     1.0000 0.81340  0.89746  0.59027  Biso   1.000  C
  C358     1.0000 0.93660  0.85254  0.59027  Biso   1.000  C
  C359     1.0000 0.93660  0.89746  0.15973  Biso   1.000  C
  C360     1.0000 0.81340  0.85254  0.15973  Biso   1.000  C
  C361     1.0000 0.31340  0.39746  0.59027  Biso   1.000  C
  C362     1.0000 0.43660  0.35254  0.59027  Biso   1.000  C
  C363     1.0000 0.43660  0.39746  0.15973  Biso   1.000  C
  C364     1.0000 0.31340  0.35254  0.15973  Biso   1.000  C
  C365     1.0000 0.31340  0.89746  0.09027  Biso   1.000  C
  C366     1.0000 0.43660  0.85254  0.09027  Biso   1.000  C
  C367     1.0000 0.43660  0.89746  0.65973  Biso   1.000  C
  C368     1.0000 0.31340  0.85254  0.65973  Biso   1.000  C
  C369     1.0000 0.18660  0.60254  0.90973  Biso   1.000  C
  C370     1.0000 0.56340  0.14746  0.90973  Biso   1.000  C
  C371     1.0000 0.56340  0.60254  0.84027  Biso   1.000  C
  C372     1.0000 0.18660  0.14746  0.84027  Biso   1.000  C
  C373     1.0000 0.18660  0.10254  0.40973  Biso   1.000  C
  C374     1.0000 0.56340  0.64746  0.40973  Biso   1.000  C
  C375     1.0000 0.56340  0.10254  0.34027  Biso   1.000  C
  C376     1.0000 0.18660  0.64746  0.34027  Biso   1.000  C
  C377     1.0000 0.68660  0.60254  0.40973  Biso   1.000  C
  C378     1.0000 0.06340  0.14746  0.40973  Biso   1.000  C
  C379     1.0000 0.06340  0.60254  0.34027  Biso   1.000  C
  C380     1.0000 0.68660  0.14746  0.34027  Biso   1.000  C
  C381     1.0000 0.68660  0.10254  0.90973  Biso   1.000  C
  C382     1.0000 0.06340  0.64746  0.90973  Biso   1.000  C
  C383     1.0000 0.06340  0.10254  0.84027  Biso   1.000  C
  C384     1.0000 0.68660  0.64746  0.84027  Biso   1.000  C
  C385     1.0000 0.78250  0.38538  0.05309  Biso   1.000  C
  C386     1.0000 0.96750  0.36462  0.05309  Biso   1.000  C
  C387     1.0000 0.96750  0.38538  0.69691  Biso   1.000  C
  C388     1.0000 0.78250  0.36462  0.69691  Biso   1.000  C
  C389     1.0000 0.78250  0.88538  0.55309  Biso   1.000  C
  C390     1.0000 0.96750  0.86462  0.55309  Biso   1.000  C
  C391     1.0000 0.96750  0.88538  0.19691  Biso   1.000  C
  C392     1.0000 0.78250  0.86462  0.19691  Biso   1.000  C
  C393     1.0000 0.28250  0.38538  0.55309  Biso   1.000  C
  C394     1.0000 0.46750  0.36462  0.55309  Biso   1.000  C
  C395     1.0000 0.46750  0.38538  0.19691  Biso   1.000  C
  C396     1.0000 0.28250  0.36462  0.19691  Biso   1.000  C
  C397     1.0000 0.28250  0.88538  0.05309  Biso   1.000  C
  C398     1.0000 0.46750  0.86462  0.05309  Biso   1.000  C
  C399     1.0000 0.46750  0.88538  0.69691  Biso   1.000  C
  C400     1.0000 0.28250  0.86462  0.69691  Biso   1.000  C
  C401     1.0000 0.21750  0.61462  0.94691  Biso   1.000  C
  C402     1.0000 0.53250  0.13538  0.94691  Biso   1.000  C
  C403     1.0000 0.53250  0.61462  0.80309  Biso   1.000  C
  C404     1.0000 0.21750  0.13538  0.80309  Biso   1.000  C
  C405     1.0000 0.21750  0.11462  0.44691  Biso   1.000  C
  C406     1.0000 0.53250  0.63538  0.44691  Biso   1.000  C
  C407     1.0000 0.53250  0.11462  0.30309  Biso   1.000  C
  C408     1.0000 0.21750  0.63538  0.30309  Biso   1.000  C
  C409     1.0000 0.71750  0.61462  0.44691  Biso   1.000  C
  C410     1.0000 0.03250  0.13538  0.44691  Biso   1.000  C
  C411     1.0000 0.03250  0.61462  0.30309  Biso   1.000  C
  C412     1.0000 0.71750  0.13538  0.30309  Biso   1.000  C
  C413     1.0000 0.71750  0.11462  0.94691  Biso   1.000  C
  C414     1.0000 0.03250  0.63538  0.94691  Biso   1.000  C
  C415     1.0000 0.03250  0.11462  0.80309  Biso   1.000  C
  C416     1.0000 0.71750  0.63538  0.80309  Biso   1.000  C
  H193     1.0000 0.80630  0.36290  0.03910  Biso   1.000  H
  H194     1.0000 0.94370  0.38710  0.03910  Biso   1.000  H
  H195     1.0000 0.94370  0.36290  0.71090  Biso   1.000  H
  H196     1.0000 0.80630  0.38710  0.71090  Biso   1.000  H
  H197     1.0000 0.80630  0.86290  0.53910  Biso   1.000  H
  H198     1.0000 0.94370  0.88710  0.53910  Biso   1.000  H
  H199     1.0000 0.94370  0.86290  0.21090  Biso   1.000  H
  H200     1.0000 0.80630  0.88710  0.21090  Biso   1.000  H
  H201     1.0000 0.30630  0.36290  0.53910  Biso   1.000  H
  H202     1.0000 0.44370  0.38710  0.53910  Biso   1.000  H
  H203     1.0000 0.44370  0.36290  0.21090  Biso   1.000  H
  H204     1.0000 0.30630  0.38710  0.21090  Biso   1.000  H
  H205     1.0000 0.30630  0.86290  0.03910  Biso   1.000  H
  H206     1.0000 0.44370  0.88710  0.03910  Biso   1.000  H
  H207     1.0000 0.44370  0.86290  0.71090  Biso   1.000  H
  H208     1.0000 0.30630  0.88710  0.71090  Biso   1.000  H
  H209     1.0000 0.19370  0.63710  0.96090  Biso   1.000  H
  H210     1.0000 0.55630  0.11290  0.96090  Biso   1.000  H
  H211     1.0000 0.55630  0.63710  0.78910  Biso   1.000  H
  H212     1.0000 0.19370  0.11290  0.78910  Biso   1.000  H
  H213     1.0000 0.19370  0.13710  0.46090  Biso   1.000  H
  H214     1.0000 0.55630  0.61290  0.46090  Biso   1.000  H
  H215     1.0000 0.55630  0.13710  0.28910  Biso   1.000  H
  H216     1.0000 0.19370  0.61290  0.28910  Biso   1.000  H
  H217     1.0000 0.69370  0.63710  0.46090  Biso   1.000  H
  H218     1.0000 0.05630  0.11290  0.46090  Biso   1.000  H
  H219     1.0000 0.05630  0.63710  0.28910  Biso   1.000  H
  H220     1.0000 0.69370  0.11290  0.28910  Biso   1.000  H
  H221     1.0000 0.69370  0.13710  0.96090  Biso   1.000  H
  H222     1.0000 0.05630  0.61290  0.96090  Biso   1.000  H
  H223     1.0000 0.05630  0.13710  0.78910  Biso   1.000  H
  H224     1.0000 0.69370  0.61290  0.78910  Biso   1.000  H
  C417     1.0000 0.71745  0.40637  0.03702  Biso   1.000  C
  C418     1.0000 0.03255  0.34363  0.03702  Biso   1.000  C
  C419     1.0000 0.03255  0.40637  0.71298  Biso   1.000  C
  C420     1.0000 0.71745  0.34363  0.71298  Biso   1.000  C
  C421     1.0000 0.71745  0.90637  0.53702  Biso   1.000  C
  C422     1.0000 0.03255  0.84363  0.53702  Biso   1.000  C
  C423     1.0000 0.03255  0.90637  0.21298  Biso   1.000  C
  C424     1.0000 0.71745  0.84363  0.21298  Biso   1.000  C
  C425     1.0000 0.21745  0.40637  0.53702  Biso   1.000  C
  C426     1.0000 0.53255  0.34363  0.53702  Biso   1.000  C
  C427     1.0000 0.53255  0.40637  0.21298  Biso   1.000  C
  C428     1.0000 0.21745  0.34363  0.21298  Biso   1.000  C
  C429     1.0000 0.21745  0.90637  0.03702  Biso   1.000  C
  C430     1.0000 0.53255  0.84363  0.03702  Biso   1.000  C
  C431     1.0000 0.53255  0.90637  0.71298  Biso   1.000  C
  C432     1.0000 0.21745  0.84363  0.71298  Biso   1.000  C
  C433     1.0000 0.28255  0.59363  0.96298  Biso   1.000  C
  C434     1.0000 0.46745  0.15637  0.96298  Biso   1.000  C
  C435     1.0000 0.46745  0.59363  0.78702  Biso   1.000  C
  C436     1.0000 0.28255  0.15637  0.78702  Biso   1.000  C
  C437     1.0000 0.28255  0.09363  0.46298  Biso   1.000  C
  C438     1.0000 0.46745  0.65637  0.46298  Biso   1.000  C
  C439     1.0000 0.46745  0.09363  0.28702  Biso   1.000  C
  C440     1.0000 0.28255  0.65637  0.28702  Biso   1.000  C
  C441     1.0000 0.78255  0.59363  0.46298  Biso   1.000  C
  C442     1.0000 0.96745  0.15637  0.46298  Biso   1.000  C
  C443     1.0000 0.96745  0.59363  0.28702  Biso   1.000  C
  C444     1.0000 0.78255  0.15637  0.28702  Biso   1.000  C
  C445     1.0000 0.78255  0.09363  0.96298  Biso   1.000  C
  C446     1.0000 0.96745  0.65637  0.96298  Biso   1.000  C
  C447     1.0000 0.96745  0.09363  0.78702  Biso   1.000  C
  C448     1.0000 0.78255  0.65637  0.78702  Biso   1.000  C
  H225     1.0000 0.69690  0.39730  0.01260  Biso   1.000  H
  H226     1.0000 0.05310  0.35270  0.01260  Biso   1.000  H
  H227     1.0000 0.05310  0.39730  0.73740  Biso   1.000  H
  H228     1.0000 0.69690  0.35270  0.73740  Biso   1.000  H
  H229     1.0000 0.69690  0.89730  0.51260  Biso   1.000  H
  H230     1.0000 0.05310  0.85270  0.51260  Biso   1.000  H
  H231     1.0000 0.05310  0.89730  0.23740  Biso   1.000  H
  H232     1.0000 0.69690  0.85270  0.23740  Biso   1.000  H
  H233     1.0000 0.19690  0.39730  0.51260  Biso   1.000  H
  H234     1.0000 0.55310  0.35270  0.51260  Biso   1.000  H
  H235     1.0000 0.55310  0.39730  0.23740  Biso   1.000  H
  H236     1.0000 0.19690  0.35270  0.23740  Biso   1.000  H
  H237     1.0000 0.19690  0.89730  0.01260  Biso   1.000  H
  H238     1.0000 0.55310  0.85270  0.01260  Biso   1.000  H
  H239     1.0000 0.55310  0.89730  0.73740  Biso   1.000  H
  H240     1.0000 0.19690  0.85270  0.73740  Biso   1.000  H
  H241     1.0000 0.30310  0.60270  0.98740  Biso   1.000  H
  H242     1.0000 0.44690  0.14730  0.98740  Biso   1.000  H
  H243     1.0000 0.44690  0.60270  0.76260  Biso   1.000  H
  H244     1.0000 0.30310  0.14730  0.76260  Biso   1.000  H
  H245     1.0000 0.30310  0.10270  0.48740  Biso   1.000  H
  H246     1.0000 0.44690  0.64730  0.48740  Biso   1.000  H
  H247     1.0000 0.44690  0.10270  0.26260  Biso   1.000  H
  H248     1.0000 0.30310  0.64730  0.26260  Biso   1.000  H
  H249     1.0000 0.80310  0.60270  0.48740  Biso   1.000  H
  H250     1.0000 0.94690  0.14730  0.48740  Biso   1.000  H
  H251     1.0000 0.94690  0.60270  0.26260  Biso   1.000  H
  H252     1.0000 0.80310  0.14730  0.26260  Biso   1.000  H
  H253     1.0000 0.80310  0.10270  0.98740  Biso   1.000  H
  H254     1.0000 0.94690  0.64730  0.98740  Biso   1.000  H
  H255     1.0000 0.94690  0.10270  0.76260  Biso   1.000  H
  H256     1.0000 0.80310  0.64730  0.76260  Biso   1.000  H
  O97      1.0000 0.49101  0.40946  0.93968  Biso   1.000  O
  O98      1.0000 0.25899  0.34054  0.93968  Biso   1.000  O
  O99      1.0000 0.25899  0.40946  0.81032  Biso   1.000  O
  O100     1.0000 0.49101  0.34054  0.81032  Biso   1.000  O
  O101     1.0000 0.49101  0.90946  0.43968  Biso   1.000  O
  O102     1.0000 0.25899  0.84054  0.43968  Biso   1.000  O
  O103     1.0000 0.25899  0.90946  0.31032  Biso   1.000  O
  O104     1.0000 0.49101  0.84054  0.31032  Biso   1.000  O
  O105     1.0000 0.99101  0.40946  0.43968  Biso   1.000  O
  O106     1.0000 0.75899  0.34054  0.43968  Biso   1.000  O
  O107     1.0000 0.75899  0.40946  0.31032  Biso   1.000  O
  O108     1.0000 0.99101  0.34054  0.31032  Biso   1.000  O
  O109     1.0000 0.99101  0.90946  0.93968  Biso   1.000  O
  O110     1.0000 0.75899  0.84054  0.93968  Biso   1.000  O
  O111     1.0000 0.75899  0.90946  0.81032  Biso   1.000  O
  O112     1.0000 0.99101  0.84054  0.81032  Biso   1.000  O
  O113     1.0000 0.50899  0.59054  0.06032  Biso   1.000  O
  O114     1.0000 0.24101  0.15946  0.06032  Biso   1.000  O
  O115     1.0000 0.24101  0.59054  0.68968  Biso   1.000  O
  O116     1.0000 0.50899  0.15946  0.68968  Biso   1.000  O
  O117     1.0000 0.50899  0.09054  0.56032  Biso   1.000  O
  O118     1.0000 0.24101  0.65946  0.56032  Biso   1.000  O
  O119     1.0000 0.24101  0.09054  0.18968  Biso   1.000  O
  O120     1.0000 0.50899  0.65946  0.18968  Biso   1.000  O
  O121     1.0000 0.00899  0.59054  0.56032  Biso   1.000  O
  O122     1.0000 0.74101  0.15946  0.56032  Biso   1.000  O
  O123     1.0000 0.74101  0.59054  0.18968  Biso   1.000  O
  O124     1.0000 0.00899  0.15946  0.18968  Biso   1.000  O
  O125     1.0000 0.00899  0.09054  0.06032  Biso   1.000  O
  O126     1.0000 0.74101  0.65946  0.06032  Biso   1.000  O
  O127     1.0000 0.74101  0.09054  0.68968  Biso   1.000  O
  O128     1.0000 0.00899  0.65946  0.68968  Biso   1.000  O
  C449     1.0000 0.54580  0.38650  0.93120  Biso   1.000  C
  C450     1.0000 0.20420  0.36350  0.93120  Biso   1.000  C
  C451     1.0000 0.20420  0.38650  0.81880  Biso   1.000  C
  C452     1.0000 0.54580  0.36350  0.81880  Biso   1.000  C
  C453     1.0000 0.54580  0.88650  0.43120  Biso   1.000  C
  C454     1.0000 0.20420  0.86350  0.43120  Biso   1.000  C
  C455     1.0000 0.20420  0.88650  0.31880  Biso   1.000  C
  C456     1.0000 0.54580  0.86350  0.31880  Biso   1.000  C
  C457     1.0000 0.04580  0.38650  0.43120  Biso   1.000  C
  C458     1.0000 0.70420  0.36350  0.43120  Biso   1.000  C
  C459     1.0000 0.70420  0.38650  0.31880  Biso   1.000  C
  C460     1.0000 0.04580  0.36350  0.31880  Biso   1.000  C
  C461     1.0000 0.04580  0.88650  0.93120  Biso   1.000  C
  C462     1.0000 0.70420  0.86350  0.93120  Biso   1.000  C
  C463     1.0000 0.70420  0.88650  0.81880  Biso   1.000  C
  C464     1.0000 0.04580  0.86350  0.81880  Biso   1.000  C
  C465     1.0000 0.45420  0.61350  0.06880  Biso   1.000  C
  C466     1.0000 0.29580  0.13650  0.06880  Biso   1.000  C
  C467     1.0000 0.29580  0.61350  0.68120  Biso   1.000  C
  C468     1.0000 0.45420  0.13650  0.68120  Biso   1.000  C
  C469     1.0000 0.45420  0.11350  0.56880  Biso   1.000  C
  C470     1.0000 0.29580  0.63650  0.56880  Biso   1.000  C
  C471     1.0000 0.29580  0.11350  0.18120  Biso   1.000  C
  C472     1.0000 0.45420  0.63650  0.18120  Biso   1.000  C
  C473     1.0000 0.95420  0.61350  0.56880  Biso   1.000  C
  C474     1.0000 0.79580  0.13650  0.56880  Biso   1.000  C
  C475     1.0000 0.79580  0.61350  0.18120  Biso   1.000  C
  C476     1.0000 0.95420  0.13650  0.18120  Biso   1.000  C
  C477     1.0000 0.95420  0.11350  0.06880  Biso   1.000  C
  C478     1.0000 0.79580  0.63650  0.06880  Biso   1.000  C
  C479     1.0000 0.79580  0.11350  0.68120  Biso   1.000  C
  C480     1.0000 0.95420  0.63650  0.68120  Biso   1.000  C
  H257     1.0000 0.59550  0.39510  0.92150  Biso   1.000  H
  H258     1.0000 0.15450  0.35490  0.92150  Biso   1.000  H
  H259     1.0000 0.15450  0.39510  0.82850  Biso   1.000  H
  H260     1.0000 0.59550  0.35490  0.82850  Biso   1.000  H
  H261     1.0000 0.59550  0.89510  0.42150  Biso   1.000  H
  H262     1.0000 0.15450  0.85490  0.42150  Biso   1.000  H
  H263     1.0000 0.15450  0.89510  0.32850  Biso   1.000  H
  H264     1.0000 0.59550  0.85490  0.32850  Biso   1.000  H
  H265     1.0000 0.09550  0.39510  0.42150  Biso   1.000  H
  H266     1.0000 0.65450  0.35490  0.42150  Biso   1.000  H
  H267     1.0000 0.65450  0.39510  0.32850  Biso   1.000  H
  H268     1.0000 0.09550  0.35490  0.32850  Biso   1.000  H
  H269     1.0000 0.09550  0.89510  0.92150  Biso   1.000  H
  H270     1.0000 0.65450  0.85490  0.92150  Biso   1.000  H
  H271     1.0000 0.65450  0.89510  0.82850  Biso   1.000  H
  H272     1.0000 0.09550  0.85490  0.82850  Biso   1.000  H
  H273     1.0000 0.40450  0.60490  0.07850  Biso   1.000  H
  H274     1.0000 0.34550  0.14510  0.07850  Biso   1.000  H
  H275     1.0000 0.34550  0.60490  0.67150  Biso   1.000  H
  H276     1.0000 0.40450  0.14510  0.67150  Biso   1.000  H
  H277     1.0000 0.40450  0.10490  0.57850  Biso   1.000  H
  H278     1.0000 0.34550  0.64510  0.57850  Biso   1.000  H
  H279     1.0000 0.34550  0.10490  0.17150  Biso   1.000  H
  H280     1.0000 0.40450  0.64510  0.17150  Biso   1.000  H
  H281     1.0000 0.90450  0.60490  0.57850  Biso   1.000  H
  H282     1.0000 0.84550  0.14510  0.57850  Biso   1.000  H
  H283     1.0000 0.84550  0.60490  0.17150  Biso   1.000  H
  H284     1.0000 0.90450  0.14510  0.17150  Biso   1.000  H
  H285     1.0000 0.90450  0.10490  0.07850  Biso   1.000  H
  H286     1.0000 0.84550  0.64510  0.07850  Biso   1.000  H
  H287     1.0000 0.84550  0.10490  0.67150  Biso   1.000  H
  H288     1.0000 0.90450  0.64510  0.67150  Biso   1.000  H
  N1       1.0000 0.51680  0.33730  0.93990  Biso   1.000  N
  N2       1.0000 0.23320  0.41270  0.93990  Biso   1.000  N
  N3       1.0000 0.23320  0.33730  0.81010  Biso   1.000  N
  N4       1.0000 0.51680  0.41270  0.81010  Biso   1.000  N
  N5       1.0000 0.51680  0.83730  0.43990  Biso   1.000  N
  N6       1.0000 0.23320  0.91270  0.43990  Biso   1.000  N
  N7       1.0000 0.23320  0.83730  0.31010  Biso   1.000  N
  N8       1.0000 0.51680  0.91270  0.31010  Biso   1.000  N
  N9       1.0000 0.01680  0.33730  0.43990  Biso   1.000  N
  N10      1.0000 0.73320  0.41270  0.43990  Biso   1.000  N
  N11      1.0000 0.73320  0.33730  0.31010  Biso   1.000  N
  N12      1.0000 0.01680  0.41270  0.31010  Biso   1.000  N
  N13      1.0000 0.01680  0.83730  0.93990  Biso   1.000  N
  N14      1.0000 0.73320  0.91270  0.93990  Biso   1.000  N
  N15      1.0000 0.73320  0.83730  0.81010  Biso   1.000  N
  N16      1.0000 0.01680  0.91270  0.81010  Biso   1.000  N
  N17      1.0000 0.48320  0.66270  0.06010  Biso   1.000  N
  N18      1.0000 0.26680  0.08730  0.06010  Biso   1.000  N
  N19      1.0000 0.26680  0.66270  0.68990  Biso   1.000  N
  N20      1.0000 0.48320  0.08730  0.68990  Biso   1.000  N
  N21      1.0000 0.48320  0.16270  0.56010  Biso   1.000  N
  N22      1.0000 0.26680  0.58730  0.56010  Biso   1.000  N
  N23      1.0000 0.26680  0.16270  0.18990  Biso   1.000  N
  N24      1.0000 0.48320  0.58730  0.18990  Biso   1.000  N
  N25      1.0000 0.98320  0.66270  0.56010  Biso   1.000  N
  N26      1.0000 0.76680  0.08730  0.56010  Biso   1.000  N
  N27      1.0000 0.76680  0.66270  0.18990  Biso   1.000  N
  N28      1.0000 0.98320  0.08730  0.18990  Biso   1.000  N
  N29      1.0000 0.98320  0.16270  0.06010  Biso   1.000  N
  N30      1.0000 0.76680  0.58730  0.06010  Biso   1.000  N
  N31      1.0000 0.76680  0.16270  0.68990  Biso   1.000  N
  N32      1.0000 0.98320  0.58730  0.68990  Biso   1.000  N
  C481     1.0000 0.55090  0.30000  0.95970  Biso   1.000  C
  C482     1.0000 0.19910  0.45000  0.95970  Biso   1.000  C
  C483     1.0000 0.19910  0.30000  0.79030  Biso   1.000  C
  C484     1.0000 0.55090  0.45000  0.79030  Biso   1.000  C
  C485     1.0000 0.55090  0.80000  0.45970  Biso   1.000  C
  C486     1.0000 0.19910  0.95000  0.45970  Biso   1.000  C
  C487     1.0000 0.19910  0.80000  0.29030  Biso   1.000  C
  C488     1.0000 0.55090  0.95000  0.29030  Biso   1.000  C
  C489     1.0000 0.05090  0.30000  0.45970  Biso   1.000  C
  C490     1.0000 0.69910  0.45000  0.45970  Biso   1.000  C
  C491     1.0000 0.69910  0.30000  0.29030  Biso   1.000  C
  C492     1.0000 0.05090  0.45000  0.29030  Biso   1.000  C
  C493     1.0000 0.05090  0.80000  0.95970  Biso   1.000  C
  C494     1.0000 0.69910  0.95000  0.95970  Biso   1.000  C
  C495     1.0000 0.69910  0.80000  0.79030  Biso   1.000  C
  C496     1.0000 0.05090  0.95000  0.79030  Biso   1.000  C
  C497     1.0000 0.44910  0.70000  0.04030  Biso   1.000  C
  C498     1.0000 0.30090  0.05000  0.04030  Biso   1.000  C
  C499     1.0000 0.30090  0.70000  0.70970  Biso   1.000  C
  C500     1.0000 0.44910  0.05000  0.70970  Biso   1.000  C
  C501     1.0000 0.44910  0.20000  0.54030  Biso   1.000  C
  C502     1.0000 0.30090  0.55000  0.54030  Biso   1.000  C
  C503     1.0000 0.30090  0.20000  0.20970  Biso   1.000  C
  C504     1.0000 0.44910  0.55000  0.20970  Biso   1.000  C
  C505     1.0000 0.94910  0.70000  0.54030  Biso   1.000  C
  C506     1.0000 0.80090  0.05000  0.54030  Biso   1.000  C
  C507     1.0000 0.80090  0.70000  0.20970  Biso   1.000  C
  C508     1.0000 0.94910  0.05000  0.20970  Biso   1.000  C
  C509     1.0000 0.94910  0.20000  0.04030  Biso   1.000  C
  C510     1.0000 0.80090  0.55000  0.04030  Biso   1.000  C
  C511     1.0000 0.80090  0.20000  0.70970  Biso   1.000  C
  C512     1.0000 0.94910  0.55000  0.70970  Biso   1.000  C
  H289     1.0000 0.58820  0.30930  0.97970  Biso   1.000  H
  H290     1.0000 0.16180  0.44070  0.97970  Biso   1.000  H
  H291     1.0000 0.16180  0.30930  0.77030  Biso   1.000  H
  H292     1.0000 0.58820  0.44070  0.77030  Biso   1.000  H
  H293     1.0000 0.58820  0.80930  0.47970  Biso   1.000  H
  H294     1.0000 0.16180  0.94070  0.47970  Biso   1.000  H
  H295     1.0000 0.16180  0.80930  0.27030  Biso   1.000  H
  H296     1.0000 0.58820  0.94070  0.27030  Biso   1.000  H
  H297     1.0000 0.08820  0.30930  0.47970  Biso   1.000  H
  H298     1.0000 0.66180  0.44070  0.47970  Biso   1.000  H
  H299     1.0000 0.66180  0.30930  0.27030  Biso   1.000  H
  H300     1.0000 0.08820  0.44070  0.27030  Biso   1.000  H
  H301     1.0000 0.08820  0.80930  0.97970  Biso   1.000  H
  H302     1.0000 0.66180  0.94070  0.97970  Biso   1.000  H
  H303     1.0000 0.66180  0.80930  0.77030  Biso   1.000  H
  H304     1.0000 0.08820  0.94070  0.77030  Biso   1.000  H
  H305     1.0000 0.41180  0.69070  0.02030  Biso   1.000  H
  H306     1.0000 0.33820  0.05930  0.02030  Biso   1.000  H
  H307     1.0000 0.33820  0.69070  0.72970  Biso   1.000  H
  H308     1.0000 0.41180  0.05930  0.72970  Biso   1.000  H
  H309     1.0000 0.41180  0.19070  0.52030  Biso   1.000  H
  H310     1.0000 0.33820  0.55930  0.52030  Biso   1.000  H
  H311     1.0000 0.33820  0.19070  0.22970  Biso   1.000  H
  H312     1.0000 0.41180  0.55930  0.22970  Biso   1.000  H
  H313     1.0000 0.91180  0.69070  0.52030  Biso   1.000  H
  H314     1.0000 0.83820  0.05930  0.52030  Biso   1.000  H
  H315     1.0000 0.83820  0.69070  0.22970  Biso   1.000  H
  H316     1.0000 0.91180  0.05930  0.22970  Biso   1.000  H
  H317     1.0000 0.91180  0.19070  0.02030  Biso   1.000  H
  H318     1.0000 0.83820  0.55930  0.02030  Biso   1.000  H
  H319     1.0000 0.83820  0.19070  0.72970  Biso   1.000  H
  H320     1.0000 0.91180  0.55930  0.72970  Biso   1.000  H
  H321     1.0000 0.50880  0.28350  0.97200  Biso   1.000  H
  H322     1.0000 0.24120  0.46650  0.97200  Biso   1.000  H
  H323     1.0000 0.24120  0.28350  0.77800  Biso   1.000  H
  H324     1.0000 0.50880  0.46650  0.77800  Biso   1.000  H
  H325     1.0000 0.50880  0.78350  0.47200  Biso   1.000  H
  H326     1.0000 0.24120  0.96650  0.47200  Biso   1.000  H
  H327     1.0000 0.24120  0.78350  0.27800  Biso   1.000  H
  H328     1.0000 0.50880  0.96650  0.27800  Biso   1.000  H
  H329     1.0000 0.00880  0.28350  0.47200  Biso   1.000  H
  H330     1.0000 0.74120  0.46650  0.47200  Biso   1.000  H
  H331     1.0000 0.74120  0.28350  0.27800  Biso   1.000  H
  H332     1.0000 0.00880  0.46650  0.27800  Biso   1.000  H
  H333     1.0000 0.00880  0.78350  0.97200  Biso   1.000  H
  H334     1.0000 0.74120  0.96650  0.97200  Biso   1.000  H
  H335     1.0000 0.74120  0.78350  0.77800  Biso   1.000  H
  H336     1.0000 0.00880  0.96650  0.77800  Biso   1.000  H
  H337     1.0000 0.49120  0.71650  0.02800  Biso   1.000  H
  H338     1.0000 0.25880  0.03350  0.02800  Biso   1.000  H
  H339     1.0000 0.25880  0.71650  0.72200  Biso   1.000  H
  H340     1.0000 0.49120  0.03350  0.72200  Biso   1.000  H
  H341     1.0000 0.49120  0.21650  0.52800  Biso   1.000  H
  H342     1.0000 0.25880  0.53350  0.52800  Biso   1.000  H
  H343     1.0000 0.25880  0.21650  0.22200  Biso   1.000  H
  H344     1.0000 0.49120  0.53350  0.22200  Biso   1.000  H
  H345     1.0000 0.99120  0.71650  0.52800  Biso   1.000  H
  H346     1.0000 0.75880  0.03350  0.52800  Biso   1.000  H
  H347     1.0000 0.75880  0.71650  0.22200  Biso   1.000  H
  H348     1.0000 0.99120  0.03350  0.22200  Biso   1.000  H
  H349     1.0000 0.99120  0.21650  0.02800  Biso   1.000  H
  H350     1.0000 0.75880  0.53350  0.02800  Biso   1.000  H
  H351     1.0000 0.75880  0.21650  0.72200  Biso   1.000  H
  H352     1.0000 0.99120  0.53350  0.72200  Biso   1.000  H
  H353     1.0000 0.57830  0.28230  0.94050  Biso   1.000  H
  H354     1.0000 0.17170  0.46770  0.94050  Biso   1.000  H
  H355     1.0000 0.17170  0.28230  0.80950  Biso   1.000  H
  H356     1.0000 0.57830  0.46770  0.80950  Biso   1.000  H
  H357     1.0000 0.57830  0.78230  0.44050  Biso   1.000  H
  H358     1.0000 0.17170  0.96770  0.44050  Biso   1.000  H
  H359     1.0000 0.17170  0.78230  0.30950  Biso   1.000  H
  H360     1.0000 0.57830  0.96770  0.30950  Biso   1.000  H
  H361     1.0000 0.07830  0.28230  0.44050  Biso   1.000  H
  H362     1.0000 0.67170  0.46770  0.44050  Biso   1.000  H
  H363     1.0000 0.67170  0.28230  0.30950  Biso   1.000  H
  H364     1.0000 0.07830  0.46770  0.30950  Biso   1.000  H
  H365     1.0000 0.07830  0.78230  0.94050  Biso   1.000  H
  H366     1.0000 0.67170  0.96770  0.94050  Biso   1.000  H
  H367     1.0000 0.67170  0.78230  0.80950  Biso   1.000  H
  H368     1.0000 0.07830  0.96770  0.80950  Biso   1.000  H
  H369     1.0000 0.42170  0.71770  0.05950  Biso   1.000  H
  H370     1.0000 0.32830  0.03230  0.05950  Biso   1.000  H
  H371     1.0000 0.32830  0.71770  0.69050  Biso   1.000  H
  H372     1.0000 0.42170  0.03230  0.69050  Biso   1.000  H
  H373     1.0000 0.42170  0.21770  0.55950  Biso   1.000  H
  H374     1.0000 0.32830  0.53230  0.55950  Biso   1.000  H
  H375     1.0000 0.32830  0.21770  0.19050  Biso   1.000  H
  H376     1.0000 0.42170  0.53230  0.19050  Biso   1.000  H
  H377     1.0000 0.92170  0.71770  0.55950  Biso   1.000  H
  H378     1.0000 0.82830  0.03230  0.55950  Biso   1.000  H
  H379     1.0000 0.82830  0.71770  0.19050  Biso   1.000  H
  H380     1.0000 0.92170  0.03230  0.19050  Biso   1.000  H
  H381     1.0000 0.92170  0.21770  0.05950  Biso   1.000  H
  H382     1.0000 0.82830  0.53230  0.05950  Biso   1.000  H
  H383     1.0000 0.82830  0.21770  0.69050  Biso   1.000  H
  H384     1.0000 0.92170  0.53230  0.69050  Biso   1.000  H
  C513     1.0000 0.45920  0.32890  0.90700  Biso   1.000  C
  C514     1.0000 0.29080  0.42110  0.90700  Biso   1.000  C
  C515     1.0000 0.29080  0.32890  0.84300  Biso   1.000  C
  C516     1.0000 0.45920  0.42110  0.84300  Biso   1.000  C
  C517     1.0000 0.45920  0.82890  0.40700  Biso   1.000  C
  C518     1.0000 0.29080  0.92110  0.40700  Biso   1.000  C
  C519     1.0000 0.29080  0.82890  0.34300  Biso   1.000  C
  C520     1.0000 0.45920  0.92110  0.34300  Biso   1.000  C
  C521     1.0000 0.95920  0.32890  0.40700  Biso   1.000  C
  C522     1.0000 0.79080  0.42110  0.40700  Biso   1.000  C
  C523     1.0000 0.79080  0.32890  0.34300  Biso   1.000  C
  C524     1.0000 0.95920  0.42110  0.34300  Biso   1.000  C
  C525     1.0000 0.95920  0.82890  0.90700  Biso   1.000  C
  C526     1.0000 0.79080  0.92110  0.90700  Biso   1.000  C
  C527     1.0000 0.79080  0.82890  0.84300  Biso   1.000  C
  C528     1.0000 0.95920  0.92110  0.84300  Biso   1.000  C
  C529     1.0000 0.54080  0.67110  0.09300  Biso   1.000  C
  C530     1.0000 0.20920  0.07890  0.09300  Biso   1.000  C
  C531     1.0000 0.20920  0.67110  0.65700  Biso   1.000  C
  C532     1.0000 0.54080  0.07890  0.65700  Biso   1.000  C
  C533     1.0000 0.54080  0.17110  0.59300  Biso   1.000  C
  C534     1.0000 0.20920  0.57890  0.59300  Biso   1.000  C
  C535     1.0000 0.20920  0.17110  0.15700  Biso   1.000  C
  C536     1.0000 0.54080  0.57890  0.15700  Biso   1.000  C
  C537     1.0000 0.04080  0.67110  0.59300  Biso   1.000  C
  C538     1.0000 0.70920  0.07890  0.59300  Biso   1.000  C
  C539     1.0000 0.70920  0.67110  0.15700  Biso   1.000  C
  C540     1.0000 0.04080  0.07890  0.15700  Biso   1.000  C
  C541     1.0000 0.04080  0.17110  0.09300  Biso   1.000  C
  C542     1.0000 0.70920  0.57890  0.09300  Biso   1.000  C
  C543     1.0000 0.70920  0.17110  0.65700  Biso   1.000  C
  C544     1.0000 0.04080  0.57890  0.65700  Biso   1.000  C
  H385     1.0000 0.44330  0.35580  0.89520  Biso   1.000  H
  H386     1.0000 0.30670  0.39420  0.89520  Biso   1.000  H
  H387     1.0000 0.30670  0.35580  0.85480  Biso   1.000  H
  H388     1.0000 0.44330  0.39420  0.85480  Biso   1.000  H
  H389     1.0000 0.44330  0.85580  0.39520  Biso   1.000  H
  H390     1.0000 0.30670  0.89420  0.39520  Biso   1.000  H
  H391     1.0000 0.30670  0.85580  0.35480  Biso   1.000  H
  H392     1.0000 0.44330  0.89420  0.35480  Biso   1.000  H
  H393     1.0000 0.94330  0.35580  0.39520  Biso   1.000  H
  H394     1.0000 0.80670  0.39420  0.39520  Biso   1.000  H
  H395     1.0000 0.80670  0.35580  0.35480  Biso   1.000  H
  H396     1.0000 0.94330  0.39420  0.35480  Biso   1.000  H
  H397     1.0000 0.94330  0.85580  0.89520  Biso   1.000  H
  H398     1.0000 0.80670  0.89420  0.89520  Biso   1.000  H
  H399     1.0000 0.80670  0.85580  0.85480  Biso   1.000  H
  H400     1.0000 0.94330  0.89420  0.85480  Biso   1.000  H
  H401     1.0000 0.55670  0.64420  0.10480  Biso   1.000  H
  H402     1.0000 0.19330  0.10580  0.10480  Biso   1.000  H
  H403     1.0000 0.19330  0.64420  0.64520  Biso   1.000  H
  H404     1.0000 0.55670  0.10580  0.64520  Biso   1.000  H
  H405     1.0000 0.55670  0.14420  0.60480  Biso   1.000  H
  H406     1.0000 0.19330  0.60580  0.60480  Biso   1.000  H
  H407     1.0000 0.19330  0.14420  0.14520  Biso   1.000  H
  H408     1.0000 0.55670  0.60580  0.14520  Biso   1.000  H
  H409     1.0000 0.05670  0.64420  0.60480  Biso   1.000  H
  H410     1.0000 0.69330  0.10580  0.60480  Biso   1.000  H
  H411     1.0000 0.69330  0.64420  0.14520  Biso   1.000  H
  H412     1.0000 0.05670  0.10580  0.14520  Biso   1.000  H
  H413     1.0000 0.05670  0.14420  0.10480  Biso   1.000  H
  H414     1.0000 0.69330  0.60580  0.10480  Biso   1.000  H
  H415     1.0000 0.69330  0.14420  0.64520  Biso   1.000  H
  H416     1.0000 0.05670  0.60580  0.64520  Biso   1.000  H
  H417     1.0000 0.48420  0.31100  0.88720  Biso   1.000  H
  H418     1.0000 0.26580  0.43900  0.88720  Biso   1.000  H
  H419     1.0000 0.26580  0.31100  0.86280  Biso   1.000  H
  H420     1.0000 0.48420  0.43900  0.86280  Biso   1.000  H
  H421     1.0000 0.48420  0.81100  0.38720  Biso   1.000  H
  H422     1.0000 0.26580  0.93900  0.38720  Biso   1.000  H
  H423     1.0000 0.26580  0.81100  0.36280  Biso   1.000  H
  H424     1.0000 0.48420  0.93900  0.36280  Biso   1.000  H
  H425     1.0000 0.98420  0.31100  0.38720  Biso   1.000  H
  H426     1.0000 0.76580  0.43900  0.38720  Biso   1.000  H
  H427     1.0000 0.76580  0.31100  0.36280  Biso   1.000  H
  H428     1.0000 0.98420  0.43900  0.36280  Biso   1.000  H
  H429     1.0000 0.98420  0.81100  0.88720  Biso   1.000  H
  H430     1.0000 0.76580  0.93900  0.88720  Biso   1.000  H
  H431     1.0000 0.76580  0.81100  0.86280  Biso   1.000  H
  H432     1.0000 0.98420  0.93900  0.86280  Biso   1.000  H
  H433     1.0000 0.51580  0.68900  0.11280  Biso   1.000  H
  H434     1.0000 0.23420  0.06100  0.11280  Biso   1.000  H
  H435     1.0000 0.23420  0.68900  0.63720  Biso   1.000  H
  H436     1.0000 0.51580  0.06100  0.63720  Biso   1.000  H
  H437     1.0000 0.51580  0.18900  0.61280  Biso   1.000  H
  H438     1.0000 0.23420  0.56100  0.61280  Biso   1.000  H
  H439     1.0000 0.23420  0.18900  0.13720  Biso   1.000  H
  H440     1.0000 0.51580  0.56100  0.13720  Biso   1.000  H
  H441     1.0000 0.01580  0.68900  0.61280  Biso   1.000  H
  H442     1.0000 0.73420  0.06100  0.61280  Biso   1.000  H
  H443     1.0000 0.73420  0.68900  0.13720  Biso   1.000  H
  H444     1.0000 0.01580  0.06100  0.13720  Biso   1.000  H
  H445     1.0000 0.01580  0.18900  0.11280  Biso   1.000  H
  H446     1.0000 0.73420  0.56100  0.11280  Biso   1.000  H
  H447     1.0000 0.73420  0.18900  0.63720  Biso   1.000  H
  H448     1.0000 0.01580  0.56100  0.63720  Biso   1.000  H
  H449     1.0000 0.41280  0.31440  0.91750  Biso   1.000  H
  H450     1.0000 0.33720  0.43560  0.91750  Biso   1.000  H
  H451     1.0000 0.33720  0.31440  0.83250  Biso   1.000  H
  H452     1.0000 0.41280  0.43560  0.83250  Biso   1.000  H
  H453     1.0000 0.41280  0.81440  0.41750  Biso   1.000  H
  H454     1.0000 0.33720  0.93560  0.41750  Biso   1.000  H
  H455     1.0000 0.33720  0.81440  0.33250  Biso   1.000  H
  H456     1.0000 0.41280  0.93560  0.33250  Biso   1.000  H
  H457     1.0000 0.91280  0.31440  0.41750  Biso   1.000  H
  H458     1.0000 0.83720  0.43560  0.41750  Biso   1.000  H
  H459     1.0000 0.83720  0.31440  0.33250  Biso   1.000  H
  H460     1.0000 0.91280  0.43560  0.33250  Biso   1.000  H
  H461     1.0000 0.91280  0.81440  0.91750  Biso   1.000  H
  H462     1.0000 0.83720  0.93560  0.91750  Biso   1.000  H
  H463     1.0000 0.83720  0.81440  0.83250  Biso   1.000  H
  H464     1.0000 0.91280  0.93560  0.83250  Biso   1.000  H
  H465     1.0000 0.58720  0.68560  0.08250  Biso   1.000  H
  H466     1.0000 0.16280  0.06440  0.08250  Biso   1.000  H
  H467     1.0000 0.16280  0.68560  0.66750  Biso   1.000  H
  H468     1.0000 0.58720  0.06440  0.66750  Biso   1.000  H
  H469     1.0000 0.58720  0.18560  0.58250  Biso   1.000  H
  H470     1.0000 0.16280  0.56440  0.58250  Biso   1.000  H
  H471     1.0000 0.16280  0.18560  0.16750  Biso   1.000  H
  H472     1.0000 0.58720  0.56440  0.16750  Biso   1.000  H
  H473     1.0000 0.08720  0.68560  0.58250  Biso   1.000  H
  H474     1.0000 0.66280  0.06440  0.58250  Biso   1.000  H
  H475     1.0000 0.66280  0.68560  0.16750  Biso   1.000  H
  H476     1.0000 0.08720  0.06440  0.16750  Biso   1.000  H
  H477     1.0000 0.08720  0.18560  0.08250  Biso   1.000  H
  H478     1.0000 0.66280  0.56440  0.08250  Biso   1.000  H
  H479     1.0000 0.66280  0.18560  0.66750  Biso   1.000  H
  H480     1.0000 0.08720  0.56440  0.66750  Biso   1.000  H
  Cu1      1.0000 0.49534  0.46844  0.97390  Biso   1.000  Cu
  Cu2      1.0000 0.25466  0.28156  0.97390  Biso   1.000  Cu
  Cu3      1.0000 0.25466  0.46844  0.77610  Biso   1.000  Cu
  Cu4      1.0000 0.49534  0.28156  0.77610  Biso   1.000  Cu
  Cu5      1.0000 0.49534  0.96844  0.47390  Biso   1.000  Cu
  Cu6      1.0000 0.25466  0.78156  0.47390  Biso   1.000  Cu
  Cu7      1.0000 0.25466  0.96844  0.27610  Biso   1.000  Cu
  Cu8      1.0000 0.49534  0.78156  0.27610  Biso   1.000  Cu
  Cu9      1.0000 0.99534  0.46844  0.47390  Biso   1.000  Cu
  Cu10     1.0000 0.75466  0.28156  0.47390  Biso   1.000  Cu
  Cu11     1.0000 0.75466  0.46844  0.27610  Biso   1.000  Cu
  Cu12     1.0000 0.99534  0.28156  0.27610  Biso   1.000  Cu
  Cu13     1.0000 0.99534  0.96844  0.97390  Biso   1.000  Cu
  Cu14     1.0000 0.75466  0.78156  0.97390  Biso   1.000  Cu
  Cu15     1.0000 0.75466  0.96844  0.77610  Biso   1.000  Cu
  Cu16     1.0000 0.99534  0.78156  0.77610  Biso   1.000  Cu
  Cu17     1.0000 0.50466  0.53156  0.02610  Biso   1.000  Cu
  Cu18     1.0000 0.24534  0.21844  0.02610  Biso   1.000  Cu
  Cu19     1.0000 0.24534  0.53156  0.72390  Biso   1.000  Cu
  Cu20     1.0000 0.50466  0.21844  0.72390  Biso   1.000  Cu
  Cu21     1.0000 0.50466  0.03156  0.52610  Biso   1.000  Cu
  Cu22     1.0000 0.24534  0.71844  0.52610  Biso   1.000  Cu
  Cu23     1.0000 0.24534  0.03156  0.22390  Biso   1.000  Cu
  Cu24     1.0000 0.50466  0.71844  0.22390  Biso   1.000  Cu
  Cu25     1.0000 0.00466  0.53156  0.52610  Biso   1.000  Cu
  Cu26     1.0000 0.74534  0.21844  0.52610  Biso   1.000  Cu
  Cu27     1.0000 0.74534  0.53156  0.22390  Biso   1.000  Cu
  Cu28     1.0000 0.00466  0.21844  0.22390  Biso   1.000  Cu
  Cu29     1.0000 0.00466  0.03156  0.02610  Biso   1.000  Cu
  Cu30     1.0000 0.74534  0.71844  0.02610  Biso   1.000  Cu
  Cu31     1.0000 0.74534  0.03156  0.72390  Biso   1.000  Cu
  Cu32     1.0000 0.00466  0.71844  0.72390  Biso   1.000  Cu
  N33      1.0000 0.87500  0.60418  0.87500  Biso   1.000  N
  N34      1.0000 0.87500  0.14582  0.87500  Biso   1.000  N
  N35      1.0000 0.87500  0.10418  0.37500  Biso   1.000  N
  N36      1.0000 0.87500  0.64582  0.37500  Biso   1.000  N
  N37      1.0000 0.37500  0.60418  0.37500  Biso   1.000  N
  N38      1.0000 0.37500  0.14582  0.37500  Biso   1.000  N
  N39      1.0000 0.37500  0.10418  0.87500  Biso   1.000  N
  N40      1.0000 0.37500  0.64582  0.87500  Biso   1.000  N
  N41      1.0000 0.12500  0.39582  0.12500  Biso   1.000  N
  N42      1.0000 0.62500  0.35418  0.12500  Biso   1.000  N
  N43      1.0000 0.62500  0.39582  0.62500  Biso   1.000  N
  N44      1.0000 0.12500  0.35418  0.62500  Biso   1.000  N
  N45      1.0000 0.12500  0.89582  0.62500  Biso   1.000  N
  N46      1.0000 0.62500  0.85418  0.62500  Biso   1.000  N
  N47      1.0000 0.62500  0.89582  0.12500  Biso   1.000  N
  N48      1.0000 0.12500  0.85418  0.12500  Biso   1.000  N
  H481     1.0000 0.87500  0.63190  0.87500  Biso   1.000  H
  H482     1.0000 0.87500  0.11810  0.87500  Biso   1.000  H
  H483     1.0000 0.87500  0.13190  0.37500  Biso   1.000  H
  H484     1.0000 0.87500  0.61810  0.37500  Biso   1.000  H
  H485     1.0000 0.37500  0.63190  0.37500  Biso   1.000  H
  H486     1.0000 0.37500  0.11810  0.37500  Biso   1.000  H
  H487     1.0000 0.37500  0.13190  0.87500  Biso   1.000  H
  H488     1.0000 0.37500  0.61810  0.87500  Biso   1.000  H
  H489     1.0000 0.12500  0.36810  0.12500  Biso   1.000  H
  H490     1.0000 0.62500  0.38190  0.12500  Biso   1.000  H
  H491     1.0000 0.62500  0.36810  0.62500  Biso   1.000  H
  H492     1.0000 0.12500  0.38190  0.62500  Biso   1.000  H
  H493     1.0000 0.12500  0.86810  0.62500  Biso   1.000  H
  H494     1.0000 0.62500  0.88190  0.62500  Biso   1.000  H
  H495     1.0000 0.62500  0.86810  0.12500  Biso   1.000  H
  H496     1.0000 0.12500  0.88190  0.12500  Biso   1.000  H
  N49      1.0000 0.87500  0.37500  0.10868  Biso   1.000  N
  N50      1.0000 0.87500  0.37500  0.64132  Biso   1.000  N
  N51      1.0000 0.87500  0.87500  0.60868  Biso   1.000  N
  N52      1.0000 0.87500  0.87500  0.14132  Biso   1.000  N
  N53      1.0000 0.37500  0.37500  0.60868  Biso   1.000  N
  N54      1.0000 0.37500  0.37500  0.14132  Biso   1.000  N
  N55      1.0000 0.37500  0.87500  0.10868  Biso   1.000  N
  N56      1.0000 0.37500  0.87500  0.64132  Biso   1.000  N
  N57      1.0000 0.12500  0.62500  0.89132  Biso   1.000  N
  N58      1.0000 0.62500  0.12500  0.89132  Biso   1.000  N
  N59      1.0000 0.62500  0.62500  0.85868  Biso   1.000  N
  N60      1.0000 0.12500  0.12500  0.85868  Biso   1.000  N
  N61      1.0000 0.12500  0.12500  0.39132  Biso   1.000  N
  N62      1.0000 0.62500  0.62500  0.39132  Biso   1.000  N
  N63      1.0000 0.62500  0.12500  0.35868  Biso   1.000  N
  N64      1.0000 0.12500  0.62500  0.35868  Biso   1.000  N
  H497     1.0000 0.87500  0.37500  0.13430  Biso   1.000  H
  H498     1.0000 0.87500  0.37500  0.61570  Biso   1.000  H
  H499     1.0000 0.87500  0.87500  0.63430  Biso   1.000  H
  H500     1.0000 0.87500  0.87500  0.11570  Biso   1.000  H
  H501     1.0000 0.37500  0.37500  0.63430  Biso   1.000  H
  H502     1.0000 0.37500  0.37500  0.11570  Biso   1.000  H
  H503     1.0000 0.37500  0.87500  0.13430  Biso   1.000  H
  H504     1.0000 0.37500  0.87500  0.61570  Biso   1.000  H
  H505     1.0000 0.12500  0.62500  0.86570  Biso   1.000  H
  H506     1.0000 0.62500  0.12500  0.86570  Biso   1.000  H
  H507     1.0000 0.62500  0.62500  0.88430  Biso   1.000  H
  H508     1.0000 0.12500  0.12500  0.88430  Biso   1.000  H
  H509     1.0000 0.12500  0.12500  0.36570  Biso   1.000  H
  H510     1.0000 0.62500  0.62500  0.36570  Biso   1.000  H
  H511     1.0000 0.62500  0.12500  0.38430  Biso   1.000  H
  H512     1.0000 0.12500  0.62500  0.38430  Biso   1.000  H
  O129     1.0000 0.58700  0.49779  0.05417  Biso   1.000  O
  O130     1.0000 0.16300  0.25221  0.05417  Biso   1.000  O
  O131     1.0000 0.16300  0.49779  0.69583  Biso   1.000  O
  O132     1.0000 0.58700  0.25221  0.69583  Biso   1.000  O
  O133     1.0000 0.58700  0.99779  0.55417  Biso   1.000  O
  O134     1.0000 0.16300  0.75221  0.55417  Biso   1.000  O
  O135     1.0000 0.16300  0.99779  0.19583  Biso   1.000  O
  O136     1.0000 0.58700  0.75221  0.19583  Biso   1.000  O
  O137     1.0000 0.08700  0.49779  0.55417  Biso   1.000  O
  O138     1.0000 0.66300  0.25221  0.55417  Biso   1.000  O
  O139     1.0000 0.66300  0.49779  0.19583  Biso   1.000  O
  O140     1.0000 0.08700  0.25221  0.19583  Biso   1.000  O
  O141     1.0000 0.08700  0.99779  0.05417  Biso   1.000  O
  O142     1.0000 0.66300  0.75221  0.05417  Biso   1.000  O
  O143     1.0000 0.66300  0.99779  0.69583  Biso   1.000  O
  O144     1.0000 0.08700  0.75221  0.69583  Biso   1.000  O
  O145     1.0000 0.41300  0.50221  0.94583  Biso   1.000  O
  O146     1.0000 0.33700  0.24779  0.94583  Biso   1.000  O
  O147     1.0000 0.33700  0.50221  0.80417  Biso   1.000  O
  O148     1.0000 0.41300  0.24779  0.80417  Biso   1.000  O
  O149     1.0000 0.41300  0.00221  0.44583  Biso   1.000  O
  O150     1.0000 0.33700  0.74779  0.44583  Biso   1.000  O
  O151     1.0000 0.33700  0.00221  0.30417  Biso   1.000  O
  O152     1.0000 0.41300  0.74779  0.30417  Biso   1.000  O
  O153     1.0000 0.91300  0.50221  0.44583  Biso   1.000  O
  O154     1.0000 0.83700  0.24779  0.44583  Biso   1.000  O
  O155     1.0000 0.83700  0.50221  0.30417  Biso   1.000  O
  O156     1.0000 0.91300  0.24779  0.30417  Biso   1.000  O
  O157     1.0000 0.91300  0.00221  0.94583  Biso   1.000  O
  O158     1.0000 0.83700  0.74779  0.94583  Biso   1.000  O
  O159     1.0000 0.83700  0.00221  0.80417  Biso   1.000  O
  O160     1.0000 0.91300  0.74779  0.80417  Biso   1.000  O
  C545     1.0000 0.47630  0.62310  0.04620  Biso   1.000  C
  C546     1.0000 0.27370  0.12690  0.04620  Biso   1.000  C
  C547     1.0000 0.27370  0.62310  0.70380  Biso   1.000  C
  C548     1.0000 0.47630  0.12690  0.70380  Biso   1.000  C
  C549     1.0000 0.47630  0.12310  0.54620  Biso   1.000  C
  C550     1.0000 0.27370  0.62690  0.54620  Biso   1.000  C
  C551     1.0000 0.27370  0.12310  0.20380  Biso   1.000  C
  C552     1.0000 0.47630  0.62690  0.20380  Biso   1.000  C
  C553     1.0000 0.97630  0.62310  0.54620  Biso   1.000  C
  C554     1.0000 0.77370  0.12690  0.54620  Biso   1.000  C
  C555     1.0000 0.77370  0.62310  0.20380  Biso   1.000  C
  C556     1.0000 0.97630  0.12690  0.20380  Biso   1.000  C
  C557     1.0000 0.97630  0.12310  0.04620  Biso   1.000  C
  C558     1.0000 0.77370  0.62690  0.04620  Biso   1.000  C
  C559     1.0000 0.77370  0.12310  0.70380  Biso   1.000  C
  C560     1.0000 0.97630  0.62690  0.70380  Biso   1.000  C
  C561     1.0000 0.52370  0.37690  0.95380  Biso   1.000  C
  C562     1.0000 0.22630  0.37310  0.95380  Biso   1.000  C
  C563     1.0000 0.22630  0.37690  0.79620  Biso   1.000  C
  C564     1.0000 0.52370  0.37310  0.79620  Biso   1.000  C
  C565     1.0000 0.52370  0.87690  0.45380  Biso   1.000  C
  C566     1.0000 0.22630  0.87310  0.45380  Biso   1.000  C
  C567     1.0000 0.22630  0.87690  0.29620  Biso   1.000  C
  C568     1.0000 0.52370  0.87310  0.29620  Biso   1.000  C
  C569     1.0000 0.02370  0.37690  0.45380  Biso   1.000  C
  C570     1.0000 0.72630  0.37310  0.45380  Biso   1.000  C
  C571     1.0000 0.72630  0.37690  0.29620  Biso   1.000  C
  C572     1.0000 0.02370  0.37310  0.29620  Biso   1.000  C
  C573     1.0000 0.02370  0.87690  0.95380  Biso   1.000  C
  C574     1.0000 0.72630  0.87310  0.95380  Biso   1.000  C
  C575     1.0000 0.72630  0.87690  0.79620  Biso   1.000  C
  C576     1.0000 0.02370  0.87310  0.79620  Biso   1.000  C
  C577     1.0000 0.53600  0.67670  0.07740  Biso   1.000  C
  C578     1.0000 0.21400  0.07330  0.07740  Biso   1.000  C
  C579     1.0000 0.21400  0.67670  0.67260  Biso   1.000  C
  C580     1.0000 0.53600  0.07330  0.67260  Biso   1.000  C
  C581     1.0000 0.53600  0.17670  0.57740  Biso   1.000  C
  C582     1.0000 0.21400  0.57330  0.57740  Biso   1.000  C
  C583     1.0000 0.21400  0.17670  0.17260  Biso   1.000  C
  C584     1.0000 0.53600  0.57330  0.17260  Biso   1.000  C
  C585     1.0000 0.03600  0.67670  0.57740  Biso   1.000  C
  C586     1.0000 0.71400  0.07330  0.57740  Biso   1.000  C
  C587     1.0000 0.71400  0.67670  0.17260  Biso   1.000  C
  C588     1.0000 0.03600  0.07330  0.17260  Biso   1.000  C
  C589     1.0000 0.03600  0.17670  0.07740  Biso   1.000  C
  C590     1.0000 0.71400  0.57330  0.07740  Biso   1.000  C
  C591     1.0000 0.71400  0.17670  0.67260  Biso   1.000  C
  C592     1.0000 0.03600  0.57330  0.67260  Biso   1.000  C
  C593     1.0000 0.46400  0.32330  0.92260  Biso   1.000  C
  C594     1.0000 0.28600  0.42670  0.92260  Biso   1.000  C
  C595     1.0000 0.28600  0.32330  0.82740  Biso   1.000  C
  C596     1.0000 0.46400  0.42670  0.82740  Biso   1.000  C
  C597     1.0000 0.46400  0.82330  0.42260  Biso   1.000  C
  C598     1.0000 0.28600  0.92670  0.42260  Biso   1.000  C
  C599     1.0000 0.28600  0.82330  0.32740  Biso   1.000  C
  C600     1.0000 0.46400  0.92670  0.32740  Biso   1.000  C
  C601     1.0000 0.96400  0.32330  0.42260  Biso   1.000  C
  C602     1.0000 0.78600  0.42670  0.42260  Biso   1.000  C
  C603     1.0000 0.78600  0.32330  0.32740  Biso   1.000  C
  C604     1.0000 0.96400  0.42670  0.32740  Biso   1.000  C
  C605     1.0000 0.96400  0.82330  0.92260  Biso   1.000  C
  C606     1.0000 0.78600  0.92670  0.92260  Biso   1.000  C
  C607     1.0000 0.78600  0.82330  0.82740  Biso   1.000  C
  C608     1.0000 0.96400  0.92670  0.82740  Biso   1.000  C
  C609     1.0000 0.39180  0.67470  0.09800  Biso   1.000  C
  C610     1.0000 0.35820  0.07530  0.09800  Biso   1.000  C
  C611     1.0000 0.35820  0.67470  0.65200  Biso   1.000  C
  C612     1.0000 0.39180  0.07530  0.65200  Biso   1.000  C
  C613     1.0000 0.39180  0.17470  0.59800  Biso   1.000  C
  C614     1.0000 0.35820  0.57530  0.59800  Biso   1.000  C
  C615     1.0000 0.35820  0.17470  0.15200  Biso   1.000  C
  C616     1.0000 0.39180  0.57530  0.15200  Biso   1.000  C
  C617     1.0000 0.89180  0.67470  0.59800  Biso   1.000  C
  C618     1.0000 0.85820  0.07530  0.59800  Biso   1.000  C
  C619     1.0000 0.85820  0.67470  0.15200  Biso   1.000  C
  C620     1.0000 0.89180  0.07530  0.15200  Biso   1.000  C
  C621     1.0000 0.89180  0.17470  0.09800  Biso   1.000  C
  C622     1.0000 0.85820  0.57530  0.09800  Biso   1.000  C
  C623     1.0000 0.85820  0.17470  0.65200  Biso   1.000  C
  C624     1.0000 0.89180  0.57530  0.65200  Biso   1.000  C
  C625     1.0000 0.60820  0.32530  0.90200  Biso   1.000  C
  C626     1.0000 0.14180  0.42470  0.90200  Biso   1.000  C
  C627     1.0000 0.14180  0.32530  0.84800  Biso   1.000  C
  C628     1.0000 0.60820  0.42470  0.84800  Biso   1.000  C
  C629     1.0000 0.60820  0.82530  0.40200  Biso   1.000  C
  C630     1.0000 0.14180  0.92470  0.40200  Biso   1.000  C
  C631     1.0000 0.14180  0.82530  0.34800  Biso   1.000  C
  C632     1.0000 0.60820  0.92470  0.34800  Biso   1.000  C
  C633     1.0000 0.10820  0.32530  0.40200  Biso   1.000  C
  C634     1.0000 0.64180  0.42470  0.40200  Biso   1.000  C
  C635     1.0000 0.64180  0.32530  0.34800  Biso   1.000  C
  C636     1.0000 0.10820  0.42470  0.34800  Biso   1.000  C
  C637     1.0000 0.10820  0.82530  0.90200  Biso   1.000  C
  C638     1.0000 0.64180  0.92470  0.90200  Biso   1.000  C
  C639     1.0000 0.64180  0.82530  0.84800  Biso   1.000  C
  C640     1.0000 0.10820  0.92470  0.84800  Biso   1.000  C
  H513     1.0000 0.46370  0.62840  0.01970  Biso   1.000  H
  H514     1.0000 0.28630  0.12160  0.01970  Biso   1.000  H
  H515     1.0000 0.28630  0.62840  0.73030  Biso   1.000  H
  H516     1.0000 0.46370  0.12160  0.73030  Biso   1.000  H
  H517     1.0000 0.46370  0.12840  0.51970  Biso   1.000  H
  H518     1.0000 0.28630  0.62160  0.51970  Biso   1.000  H
  H519     1.0000 0.28630  0.12840  0.23030  Biso   1.000  H
  H520     1.0000 0.46370  0.62160  0.23030  Biso   1.000  H
  H521     1.0000 0.96370  0.62840  0.51970  Biso   1.000  H
  H522     1.0000 0.78630  0.12160  0.51970  Biso   1.000  H
  H523     1.0000 0.78630  0.62840  0.23030  Biso   1.000  H
  H524     1.0000 0.96370  0.12160  0.23030  Biso   1.000  H
  H525     1.0000 0.96370  0.12840  0.01970  Biso   1.000  H
  H526     1.0000 0.78630  0.62160  0.01970  Biso   1.000  H
  H527     1.0000 0.78630  0.12840  0.73030  Biso   1.000  H
  H528     1.0000 0.96370  0.62160  0.73030  Biso   1.000  H
  H529     1.0000 0.53630  0.37160  0.98030  Biso   1.000  H
  H530     1.0000 0.21370  0.37840  0.98030  Biso   1.000  H
  H531     1.0000 0.21370  0.37160  0.76970  Biso   1.000  H
  H532     1.0000 0.53630  0.37840  0.76970  Biso   1.000  H
  H533     1.0000 0.53630  0.87160  0.48030  Biso   1.000  H
  H534     1.0000 0.21370  0.87840  0.48030  Biso   1.000  H
  H535     1.0000 0.21370  0.87160  0.26970  Biso   1.000  H
  H536     1.0000 0.53630  0.87840  0.26970  Biso   1.000  H
  H537     1.0000 0.03630  0.37160  0.48030  Biso   1.000  H
  H538     1.0000 0.71370  0.37840  0.48030  Biso   1.000  H
  H539     1.0000 0.71370  0.37160  0.26970  Biso   1.000  H
  H540     1.0000 0.03630  0.37840  0.26970  Biso   1.000  H
  H541     1.0000 0.03630  0.87160  0.98030  Biso   1.000  H
  H542     1.0000 0.71370  0.87840  0.98030  Biso   1.000  H
  H543     1.0000 0.71370  0.87160  0.76970  Biso   1.000  H
  H544     1.0000 0.03630  0.87840  0.76970  Biso   1.000  H
  H545     1.0000 0.57970  0.65670  0.07540  Biso   1.000  H
  H546     1.0000 0.17030  0.09330  0.07540  Biso   1.000  H
  H547     1.0000 0.17030  0.65670  0.67460  Biso   1.000  H
  H548     1.0000 0.57970  0.09330  0.67460  Biso   1.000  H
  H549     1.0000 0.57970  0.15670  0.57540  Biso   1.000  H
  H550     1.0000 0.17030  0.59330  0.57540  Biso   1.000  H
  H551     1.0000 0.17030  0.15670  0.17460  Biso   1.000  H
  H552     1.0000 0.57970  0.59330  0.17460  Biso   1.000  H
  H553     1.0000 0.07970  0.65670  0.57540  Biso   1.000  H
  H554     1.0000 0.67030  0.09330  0.57540  Biso   1.000  H
  H555     1.0000 0.67030  0.65670  0.17460  Biso   1.000  H
  H556     1.0000 0.07970  0.09330  0.17460  Biso   1.000  H
  H557     1.0000 0.07970  0.15670  0.07540  Biso   1.000  H
  H558     1.0000 0.67030  0.59330  0.07540  Biso   1.000  H
  H559     1.0000 0.67030  0.15670  0.67460  Biso   1.000  H
  H560     1.0000 0.07970  0.59330  0.67460  Biso   1.000  H
  H561     1.0000 0.42030  0.34330  0.92460  Biso   1.000  H
  H562     1.0000 0.32970  0.40670  0.92460  Biso   1.000  H
  H563     1.0000 0.32970  0.34330  0.82540  Biso   1.000  H
  H564     1.0000 0.42030  0.40670  0.82540  Biso   1.000  H
  H565     1.0000 0.42030  0.84330  0.42460  Biso   1.000  H
  H566     1.0000 0.32970  0.90670  0.42460  Biso   1.000  H
  H567     1.0000 0.32970  0.84330  0.32540  Biso   1.000  H
  H568     1.0000 0.42030  0.90670  0.32540  Biso   1.000  H
  H569     1.0000 0.92030  0.34330  0.42460  Biso   1.000  H
  H570     1.0000 0.82970  0.40670  0.42460  Biso   1.000  H
  H571     1.0000 0.82970  0.34330  0.32540  Biso   1.000  H
  H572     1.0000 0.92030  0.40670  0.32540  Biso   1.000  H
  H573     1.0000 0.92030  0.84330  0.92460  Biso   1.000  H
  H574     1.0000 0.82970  0.90670  0.92460  Biso   1.000  H
  H575     1.0000 0.82970  0.84330  0.82540  Biso   1.000  H
  H576     1.0000 0.92030  0.90670  0.82540  Biso   1.000  H
  H577     1.0000 0.54410  0.69530  0.09990  Biso   1.000  H
  H578     1.0000 0.20590  0.05470  0.09990  Biso   1.000  H
  H579     1.0000 0.20590  0.69530  0.65010  Biso   1.000  H
  H580     1.0000 0.54410  0.05470  0.65010  Biso   1.000  H
  H581     1.0000 0.54410  0.19530  0.59990  Biso   1.000  H
  H582     1.0000 0.20590  0.55470  0.59990  Biso   1.000  H
  H583     1.0000 0.20590  0.19530  0.15010  Biso   1.000  H
  H584     1.0000 0.54410  0.55470  0.15010  Biso   1.000  H
  H585     1.0000 0.04410  0.69530  0.59990  Biso   1.000  H
  H586     1.0000 0.70590  0.05470  0.59990  Biso   1.000  H
  H587     1.0000 0.70590  0.69530  0.15010  Biso   1.000  H
  H588     1.0000 0.04410  0.05470  0.15010  Biso   1.000  H
  H589     1.0000 0.04410  0.19530  0.09990  Biso   1.000  H
  H590     1.0000 0.70590  0.55470  0.09990  Biso   1.000  H
  H591     1.0000 0.70590  0.19530  0.65010  Biso   1.000  H
  H592     1.0000 0.04410  0.55470  0.65010  Biso   1.000  H
  H593     1.0000 0.45590  0.30470  0.90010  Biso   1.000  H
  H594     1.0000 0.29410  0.44530  0.90010  Biso   1.000  H
  H595     1.0000 0.29410  0.30470  0.84990  Biso   1.000  H
  H596     1.0000 0.45590  0.44530  0.84990  Biso   1.000  H
  H597     1.0000 0.45590  0.80470  0.40010  Biso   1.000  H
  H598     1.0000 0.29410  0.94530  0.40010  Biso   1.000  H
  H599     1.0000 0.29410  0.80470  0.34990  Biso   1.000  H
  H600     1.0000 0.45590  0.94530  0.34990  Biso   1.000  H
  H601     1.0000 0.95590  0.30470  0.40010  Biso   1.000  H
  H602     1.0000 0.79410  0.44530  0.40010  Biso   1.000  H
  H603     1.0000 0.79410  0.30470  0.34990  Biso   1.000  H
  H604     1.0000 0.95590  0.44530  0.34990  Biso   1.000  H
  H605     1.0000 0.95590  0.80470  0.90010  Biso   1.000  H
  H606     1.0000 0.79410  0.94530  0.90010  Biso   1.000  H
  H607     1.0000 0.79410  0.80470  0.84990  Biso   1.000  H
  H608     1.0000 0.95590  0.94530  0.84990  Biso   1.000  H
  H609     1.0000 0.53330  0.69380  0.05350  Biso   1.000  H
  H610     1.0000 0.21670  0.05620  0.05350  Biso   1.000  H
  H611     1.0000 0.21670  0.69380  0.69650  Biso   1.000  H
  H612     1.0000 0.53330  0.05620  0.69650  Biso   1.000  H
  H613     1.0000 0.53330  0.19380  0.55350  Biso   1.000  H
  H614     1.0000 0.21670  0.55620  0.55350  Biso   1.000  H
  H615     1.0000 0.21670  0.19380  0.19650  Biso   1.000  H
  H616     1.0000 0.53330  0.55620  0.19650  Biso   1.000  H
  H617     1.0000 0.03330  0.69380  0.55350  Biso   1.000  H
  H618     1.0000 0.71670  0.05620  0.55350  Biso   1.000  H
  H619     1.0000 0.71670  0.69380  0.19650  Biso   1.000  H
  H620     1.0000 0.03330  0.05620  0.19650  Biso   1.000  H
  H621     1.0000 0.03330  0.19380  0.05350  Biso   1.000  H
  H622     1.0000 0.71670  0.55620  0.05350  Biso   1.000  H
  H623     1.0000 0.71670  0.19380  0.69650  Biso   1.000  H
  H624     1.0000 0.03330  0.55620  0.69650  Biso   1.000  H
  H625     1.0000 0.46670  0.30620  0.94650  Biso   1.000  H
  H626     1.0000 0.28330  0.44380  0.94650  Biso   1.000  H
  H627     1.0000 0.28330  0.30620  0.80350  Biso   1.000  H
  H628     1.0000 0.46670  0.44380  0.80350  Biso   1.000  H
  H629     1.0000 0.46670  0.80620  0.44650  Biso   1.000  H
  H630     1.0000 0.28330  0.94380  0.44650  Biso   1.000  H
  H631     1.0000 0.28330  0.80620  0.30350  Biso   1.000  H
  H632     1.0000 0.46670  0.94380  0.30350  Biso   1.000  H
  H633     1.0000 0.96670  0.30620  0.44650  Biso   1.000  H
  H634     1.0000 0.78330  0.44380  0.44650  Biso   1.000  H
  H635     1.0000 0.78330  0.30620  0.30350  Biso   1.000  H
  H636     1.0000 0.96670  0.44380  0.30350  Biso   1.000  H
  H637     1.0000 0.96670  0.80620  0.94650  Biso   1.000  H
  H638     1.0000 0.78330  0.94380  0.94650  Biso   1.000  H
  H639     1.0000 0.78330  0.80620  0.80350  Biso   1.000  H
  H640     1.0000 0.96670  0.94380  0.80350  Biso   1.000  H
  H641     1.0000 0.34750  0.65490  0.09890  Biso   1.000  H
  H642     1.0000 0.40250  0.09510  0.09890  Biso   1.000  H
  H643     1.0000 0.40250  0.65490  0.65110  Biso   1.000  H
  H644     1.0000 0.34750  0.09510  0.65110  Biso   1.000  H
  H645     1.0000 0.34750  0.15490  0.59890  Biso   1.000  H
  H646     1.0000 0.40250  0.59510  0.59890  Biso   1.000  H
  H647     1.0000 0.40250  0.15490  0.15110  Biso   1.000  H
  H648     1.0000 0.34750  0.59510  0.15110  Biso   1.000  H
  H649     1.0000 0.84750  0.65490  0.59890  Biso   1.000  H
  H650     1.0000 0.90250  0.09510  0.59890  Biso   1.000  H
  H651     1.0000 0.90250  0.65490  0.15110  Biso   1.000  H
  H652     1.0000 0.84750  0.09510  0.15110  Biso   1.000  H
  H653     1.0000 0.84750  0.15490  0.09890  Biso   1.000  H
  H654     1.0000 0.90250  0.59510  0.09890  Biso   1.000  H
  H655     1.0000 0.90250  0.15490  0.65110  Biso   1.000  H
  H656     1.0000 0.84750  0.59510  0.65110  Biso   1.000  H
  H657     1.0000 0.65250  0.34510  0.90110  Biso   1.000  H
  H658     1.0000 0.09750  0.40490  0.90110  Biso   1.000  H
  H659     1.0000 0.09750  0.34510  0.84890  Biso   1.000  H
  H660     1.0000 0.65250  0.40490  0.84890  Biso   1.000  H
  H661     1.0000 0.65250  0.84510  0.40110  Biso   1.000  H
  H662     1.0000 0.09750  0.90490  0.40110  Biso   1.000  H
  H663     1.0000 0.09750  0.84510  0.34890  Biso   1.000  H
  H664     1.0000 0.65250  0.90490  0.34890  Biso   1.000  H
  H665     1.0000 0.15250  0.34510  0.40110  Biso   1.000  H
  H666     1.0000 0.59750  0.40490  0.40110  Biso   1.000  H
  H667     1.0000 0.59750  0.34510  0.34890  Biso   1.000  H
  H668     1.0000 0.15250  0.40490  0.34890  Biso   1.000  H
  H669     1.0000 0.15250  0.84510  0.90110  Biso   1.000  H
  H670     1.0000 0.59750  0.90490  0.90110  Biso   1.000  H
  H671     1.0000 0.59750  0.84510  0.84890  Biso   1.000  H
  H672     1.0000 0.15250  0.90490  0.84890  Biso   1.000  H
  H673     1.0000 0.37840  0.69870  0.08120  Biso   1.000  H
  H674     1.0000 0.37160  0.05130  0.08120  Biso   1.000  H
  H675     1.0000 0.37160  0.69870  0.66880  Biso   1.000  H
  H676     1.0000 0.37840  0.05130  0.66880  Biso   1.000  H
  H677     1.0000 0.37840  0.19870  0.58120  Biso   1.000  H
  H678     1.0000 0.37160  0.55130  0.58120  Biso   1.000  H
  H679     1.0000 0.37160  0.19870  0.16880  Biso   1.000  H
  H680     1.0000 0.37840  0.55130  0.16880  Biso   1.000  H
  H681     1.0000 0.87840  0.69870  0.58120  Biso   1.000  H
  H682     1.0000 0.87160  0.05130  0.58120  Biso   1.000  H
  H683     1.0000 0.87160  0.69870  0.16880  Biso   1.000  H
  H684     1.0000 0.87840  0.05130  0.16880  Biso   1.000  H
  H685     1.0000 0.87840  0.19870  0.08120  Biso   1.000  H
  H686     1.0000 0.87160  0.55130  0.08120  Biso   1.000  H
  H687     1.0000 0.87160  0.19870  0.66880  Biso   1.000  H
  H688     1.0000 0.87840  0.55130  0.66880  Biso   1.000  H
  H689     1.0000 0.62160  0.30130  0.91880  Biso   1.000  H
  H690     1.0000 0.12840  0.44870  0.91880  Biso   1.000  H
  H691     1.0000 0.12840  0.30130  0.83120  Biso   1.000  H
  H692     1.0000 0.62160  0.44870  0.83120  Biso   1.000  H
  H693     1.0000 0.62160  0.80130  0.41880  Biso   1.000  H
  H694     1.0000 0.12840  0.94870  0.41880  Biso   1.000  H
  H695     1.0000 0.12840  0.80130  0.33120  Biso   1.000  H
  H696     1.0000 0.62160  0.94870  0.33120  Biso   1.000  H
  H697     1.0000 0.12160  0.30130  0.41880  Biso   1.000  H
  H698     1.0000 0.62840  0.44870  0.41880  Biso   1.000  H
  H699     1.0000 0.62840  0.30130  0.33120  Biso   1.000  H
  H700     1.0000 0.12160  0.44870  0.33120  Biso   1.000  H
  H701     1.0000 0.12160  0.80130  0.91880  Biso   1.000  H
  H702     1.0000 0.62840  0.94870  0.91880  Biso   1.000  H
  H703     1.0000 0.62840  0.80130  0.83120  Biso   1.000  H
  H704     1.0000 0.12160  0.94870  0.83120  Biso   1.000  H
  H705     1.0000 0.40320  0.68490  0.12440  Biso   1.000  H
  H706     1.0000 0.34680  0.06510  0.12440  Biso   1.000  H
  H707     1.0000 0.34680  0.68490  0.62560  Biso   1.000  H
  H708     1.0000 0.40320  0.06510  0.62560  Biso   1.000  H
  H709     1.0000 0.40320  0.18490  0.62440  Biso   1.000  H
  H710     1.0000 0.34680  0.56510  0.62440  Biso   1.000  H
  H711     1.0000 0.34680  0.18490  0.12560  Biso   1.000  H
  H712     1.0000 0.40320  0.56510  0.12560  Biso   1.000  H
  H713     1.0000 0.90320  0.68490  0.62440  Biso   1.000  H
  H714     1.0000 0.84680  0.06510  0.62440  Biso   1.000  H
  H715     1.0000 0.84680  0.68490  0.12560  Biso   1.000  H
  H716     1.0000 0.90320  0.06510  0.12560  Biso   1.000  H
  H717     1.0000 0.90320  0.18490  0.12440  Biso   1.000  H
  H718     1.0000 0.84680  0.56510  0.12440  Biso   1.000  H
  H719     1.0000 0.84680  0.18490  0.62560  Biso   1.000  H
  H720     1.0000 0.90320  0.56510  0.62560  Biso   1.000  H
  H721     1.0000 0.59680  0.31510  0.87560  Biso   1.000  H
  H722     1.0000 0.15320  0.43490  0.87560  Biso   1.000  H
  H723     1.0000 0.15320  0.31510  0.87440  Biso   1.000  H
  H724     1.0000 0.59680  0.43490  0.87440  Biso   1.000  H
  H725     1.0000 0.59680  0.81510  0.37560  Biso   1.000  H
  H726     1.0000 0.15320  0.93490  0.37560  Biso   1.000  H
  H727     1.0000 0.15320  0.81510  0.37440  Biso   1.000  H
  H728     1.0000 0.59680  0.93490  0.37440  Biso   1.000  H
  H729     1.0000 0.09680  0.31510  0.37560  Biso   1.000  H
  H730     1.0000 0.65320  0.43490  0.37560  Biso   1.000  H
  H731     1.0000 0.65320  0.31510  0.37440  Biso   1.000  H
  H732     1.0000 0.09680  0.43490  0.37440  Biso   1.000  H
  H733     1.0000 0.09680  0.81510  0.87560  Biso   1.000  H
  H734     1.0000 0.65320  0.93490  0.87560  Biso   1.000  H
  H735     1.0000 0.65320  0.81510  0.87440  Biso   1.000  H
  H736     1.0000 0.09680  0.93490  0.87440  Biso   1.000  H
  N65      1.0000 0.46110  0.65300  0.08230  Biso   1.000  N
  N66      1.0000 0.28890  0.09700  0.08230  Biso   1.000  N
  N67      1.0000 0.28890  0.65300  0.66770  Biso   1.000  N
  N68      1.0000 0.46110  0.09700  0.66770  Biso   1.000  N
  N69      1.0000 0.46110  0.15300  0.58230  Biso   1.000  N
  N70      1.0000 0.28890  0.59700  0.58230  Biso   1.000  N
  N71      1.0000 0.28890  0.15300  0.16770  Biso   1.000  N
  N72      1.0000 0.46110  0.59700  0.16770  Biso   1.000  N
  N73      1.0000 0.96110  0.65300  0.58230  Biso   1.000  N
  N74      1.0000 0.78890  0.09700  0.58230  Biso   1.000  N
  N75      1.0000 0.78890  0.65300  0.16770  Biso   1.000  N
  N76      1.0000 0.96110  0.09700  0.16770  Biso   1.000  N
  N77      1.0000 0.96110  0.15300  0.08230  Biso   1.000  N
  N78      1.0000 0.78890  0.59700  0.08230  Biso   1.000  N
  N79      1.0000 0.78890  0.15300  0.66770  Biso   1.000  N
  N80      1.0000 0.96110  0.59700  0.66770  Biso   1.000  N
  N81      1.0000 0.53890  0.34700  0.91770  Biso   1.000  N
  N82      1.0000 0.21110  0.40300  0.91770  Biso   1.000  N
  N83      1.0000 0.21110  0.34700  0.83230  Biso   1.000  N
  N84      1.0000 0.53890  0.40300  0.83230  Biso   1.000  N
  N85      1.0000 0.53890  0.84700  0.41770  Biso   1.000  N
  N86      1.0000 0.21110  0.90300  0.41770  Biso   1.000  N
  N87      1.0000 0.21110  0.84700  0.33230  Biso   1.000  N
  N88      1.0000 0.53890  0.90300  0.33230  Biso   1.000  N
  N89      1.0000 0.03890  0.34700  0.41770  Biso   1.000  N
  N90      1.0000 0.71110  0.40300  0.41770  Biso   1.000  N
  N91      1.0000 0.71110  0.34700  0.33230  Biso   1.000  N
  N92      1.0000 0.03890  0.40300  0.33230  Biso   1.000  N
  N93      1.0000 0.03890  0.84700  0.91770  Biso   1.000  N
  N94      1.0000 0.71110  0.90300  0.91770  Biso   1.000  N
  N95      1.0000 0.71110  0.84700  0.83230  Biso   1.000  N
  N96      1.0000 0.03890  0.90300  0.83230  Biso   1.000  N
