data_image0
_cell_length_a       19.0611
_cell_length_b       23.7425
_cell_length_c       27.1964
_cell_angle_alpha    90
_cell_angle_beta     90
_cell_angle_gamma    90

_symmetry_space_group_name_H-M    "P 1"
_symmetry_int_tables_number       1

loop_
  _symmetry_equiv_pos_as_xyz
  'x, y, z'

loop_
  _atom_site_label
  _atom_site_occupancy
  _atom_site_fract_x
  _atom_site_fract_y
  _atom_site_fract_z
  _atom_site_thermal_displace_type
  _atom_site_B_iso_or_equiv
  _atom_site_type_symbol
  Cu1      1.0000 0.62429  0.37500  0.37500  Biso   1.000  Cu
  Cu2      1.0000 0.62571  0.87500  0.37500  Biso   1.000  Cu
  Cu3      1.0000 0.62429  0.87500  0.87500  Biso   1.000  Cu
  Cu4      1.0000 0.62571  0.37500  0.87500  Biso   1.000  Cu
  Cu5      1.0000 0.12429  0.37500  0.87500  Biso   1.000  Cu
  Cu6      1.0000 0.12571  0.87500  0.87500  Biso   1.000  Cu
  Cu7      1.0000 0.12429  0.87500  0.37500  Biso   1.000  Cu
  Cu8      1.0000 0.12571  0.37500  0.37500  Biso   1.000  Cu
  Cu9      1.0000 0.37571  0.62500  0.62500  Biso   1.000  Cu
  Cu10     1.0000 0.87429  0.62500  0.62500  Biso   1.000  Cu
  Cu11     1.0000 0.37571  0.12500  0.12500  Biso   1.000  Cu
  Cu12     1.0000 0.87429  0.12500  0.12500  Biso   1.000  Cu
  Cu13     1.0000 0.87571  0.62500  0.12500  Biso   1.000  Cu
  Cu14     1.0000 0.37429  0.62500  0.12500  Biso   1.000  Cu
  Cu15     1.0000 0.87571  0.12500  0.62500  Biso   1.000  Cu
  Cu16     1.0000 0.37429  0.12500  0.62500  Biso   1.000  Cu
  C1       1.0000 0.66600  0.48313  0.32750  Biso   1.000  C
  C2       1.0000 0.58400  0.76687  0.32750  Biso   1.000  C
  C3       1.0000 0.66600  0.76687  0.92250  Biso   1.000  C
  C4       1.0000 0.58400  0.48313  0.92250  Biso   1.000  C
  C5       1.0000 0.66600  0.98313  0.82750  Biso   1.000  C
  C6       1.0000 0.58400  0.26687  0.82750  Biso   1.000  C
  C7       1.0000 0.66600  0.26687  0.42250  Biso   1.000  C
  C8       1.0000 0.58400  0.98313  0.42250  Biso   1.000  C
  C9       1.0000 0.16600  0.48313  0.82750  Biso   1.000  C
  C10      1.0000 0.08400  0.76687  0.82750  Biso   1.000  C
  C11      1.0000 0.16600  0.76687  0.42250  Biso   1.000  C
  C12      1.0000 0.08400  0.48313  0.42250  Biso   1.000  C
  C13      1.0000 0.16600  0.98313  0.32750  Biso   1.000  C
  C14      1.0000 0.08400  0.26687  0.32750  Biso   1.000  C
  C15      1.0000 0.16600  0.26687  0.92250  Biso   1.000  C
  C16      1.0000 0.08400  0.98313  0.92250  Biso   1.000  C
  C17      1.0000 0.33400  0.51687  0.67250  Biso   1.000  C
  C18      1.0000 0.91600  0.73313  0.67250  Biso   1.000  C
  C19      1.0000 0.33400  0.73313  0.57750  Biso   1.000  C
  C20      1.0000 0.91600  0.51687  0.57750  Biso   1.000  C
  C21      1.0000 0.33400  0.01687  0.17250  Biso   1.000  C
  C22      1.0000 0.91600  0.23313  0.17250  Biso   1.000  C
  C23      1.0000 0.33400  0.23313  0.07750  Biso   1.000  C
  C24      1.0000 0.91600  0.01687  0.07750  Biso   1.000  C
  C25      1.0000 0.83400  0.51687  0.17250  Biso   1.000  C
  C26      1.0000 0.41600  0.73313  0.17250  Biso   1.000  C
  C27      1.0000 0.83400  0.73313  0.07750  Biso   1.000  C
  C28      1.0000 0.41600  0.51687  0.07750  Biso   1.000  C
  C29      1.0000 0.83400  0.01687  0.67250  Biso   1.000  C
  C30      1.0000 0.41600  0.23313  0.67250  Biso   1.000  C
  C31      1.0000 0.83400  0.23313  0.57750  Biso   1.000  C
  C32      1.0000 0.41600  0.01687  0.57750  Biso   1.000  C
  H1       1.0000 0.69760  0.49110  0.35260  Biso   1.000  H
  H2       1.0000 0.55240  0.75890  0.35260  Biso   1.000  H
  H3       1.0000 0.69760  0.75890  0.89740  Biso   1.000  H
  H4       1.0000 0.55240  0.49110  0.89740  Biso   1.000  H
  H5       1.0000 0.69760  0.99110  0.85260  Biso   1.000  H
  H6       1.0000 0.55240  0.25890  0.85260  Biso   1.000  H
  H7       1.0000 0.69760  0.25890  0.39740  Biso   1.000  H
  H8       1.0000 0.55240  0.99110  0.39740  Biso   1.000  H
  H9       1.0000 0.19760  0.49110  0.85260  Biso   1.000  H
  H10      1.0000 0.05240  0.75890  0.85260  Biso   1.000  H
  H11      1.0000 0.19760  0.75890  0.39740  Biso   1.000  H
  H12      1.0000 0.05240  0.49110  0.39740  Biso   1.000  H
  H13      1.0000 0.19760  0.99110  0.35260  Biso   1.000  H
  H14      1.0000 0.05240  0.25890  0.35260  Biso   1.000  H
  H15      1.0000 0.19760  0.25890  0.89740  Biso   1.000  H
  H16      1.0000 0.05240  0.99110  0.89740  Biso   1.000  H
  H17      1.0000 0.30240  0.50890  0.64740  Biso   1.000  H
  H18      1.0000 0.94760  0.74110  0.64740  Biso   1.000  H
  H19      1.0000 0.30240  0.74110  0.60260  Biso   1.000  H
  H20      1.0000 0.94760  0.50890  0.60260  Biso   1.000  H
  H21      1.0000 0.30240  0.00890  0.14740  Biso   1.000  H
  H22      1.0000 0.94760  0.24110  0.14740  Biso   1.000  H
  H23      1.0000 0.30240  0.24110  0.10260  Biso   1.000  H
  H24      1.0000 0.94760  0.00890  0.10260  Biso   1.000  H
  H25      1.0000 0.80240  0.50890  0.14740  Biso   1.000  H
  H26      1.0000 0.44760  0.74110  0.14740  Biso   1.000  H
  H27      1.0000 0.80240  0.74110  0.10260  Biso   1.000  H
  H28      1.0000 0.44760  0.50890  0.10260  Biso   1.000  H
  H29      1.0000 0.80240  0.00890  0.64740  Biso   1.000  H
  H30      1.0000 0.44760  0.24110  0.64740  Biso   1.000  H
  H31      1.0000 0.80240  0.24110  0.60260  Biso   1.000  H
  H32      1.0000 0.44760  0.00890  0.60260  Biso   1.000  H
  C33      1.0000 0.60680  0.49010  0.25960  Biso   1.000  C
  C34      1.0000 0.64320  0.75990  0.25960  Biso   1.000  C
  C35      1.0000 0.60680  0.75990  0.99040  Biso   1.000  C
  C36      1.0000 0.64320  0.49010  0.99040  Biso   1.000  C
  C37      1.0000 0.60680  0.99010  0.75960  Biso   1.000  C
  C38      1.0000 0.64320  0.25990  0.75960  Biso   1.000  C
  C39      1.0000 0.60680  0.25990  0.49040  Biso   1.000  C
  C40      1.0000 0.64320  0.99010  0.49040  Biso   1.000  C
  C41      1.0000 0.10680  0.49010  0.75960  Biso   1.000  C
  C42      1.0000 0.14320  0.75990  0.75960  Biso   1.000  C
  C43      1.0000 0.10680  0.75990  0.49040  Biso   1.000  C
  C44      1.0000 0.14320  0.49010  0.49040  Biso   1.000  C
  C45      1.0000 0.10680  0.99010  0.25960  Biso   1.000  C
  C46      1.0000 0.14320  0.25990  0.25960  Biso   1.000  C
  C47      1.0000 0.10680  0.25990  0.99040  Biso   1.000  C
  C48      1.0000 0.14320  0.99010  0.99040  Biso   1.000  C
  C49      1.0000 0.39320  0.50990  0.74040  Biso   1.000  C
  C50      1.0000 0.85680  0.74010  0.74040  Biso   1.000  C
  C51      1.0000 0.39320  0.74010  0.50960  Biso   1.000  C
  C52      1.0000 0.85680  0.50990  0.50960  Biso   1.000  C
  C53      1.0000 0.39320  0.00990  0.24040  Biso   1.000  C
  C54      1.0000 0.85680  0.24010  0.24040  Biso   1.000  C
  C55      1.0000 0.39320  0.24010  0.00960  Biso   1.000  C
  C56      1.0000 0.85680  0.00990  0.00960  Biso   1.000  C
  C57      1.0000 0.89320  0.50990  0.24040  Biso   1.000  C
  C58      1.0000 0.35680  0.74010  0.24040  Biso   1.000  C
  C59      1.0000 0.89320  0.74010  0.00960  Biso   1.000  C
  C60      1.0000 0.35680  0.50990  0.00960  Biso   1.000  C
  C61      1.0000 0.89320  0.00990  0.74040  Biso   1.000  C
  C62      1.0000 0.35680  0.24010  0.74040  Biso   1.000  C
  C63      1.0000 0.89320  0.24010  0.50960  Biso   1.000  C
  C64      1.0000 0.35680  0.00990  0.50960  Biso   1.000  C
  H33      1.0000 0.58960  0.50270  0.22960  Biso   1.000  H
  H34      1.0000 0.66040  0.74730  0.22960  Biso   1.000  H
  H35      1.0000 0.58960  0.74730  0.02040  Biso   1.000  H
  H36      1.0000 0.66040  0.50270  0.02040  Biso   1.000  H
  H37      1.0000 0.58960  0.00270  0.72960  Biso   1.000  H
  H38      1.0000 0.66040  0.24730  0.72960  Biso   1.000  H
  H39      1.0000 0.58960  0.24730  0.52040  Biso   1.000  H
  H40      1.0000 0.66040  0.00270  0.52040  Biso   1.000  H
  H41      1.0000 0.08960  0.50270  0.72960  Biso   1.000  H
  H42      1.0000 0.16040  0.74730  0.72960  Biso   1.000  H
  H43      1.0000 0.08960  0.74730  0.52040  Biso   1.000  H
  H44      1.0000 0.16040  0.50270  0.52040  Biso   1.000  H
  H45      1.0000 0.08960  0.00270  0.22960  Biso   1.000  H
  H46      1.0000 0.16040  0.24730  0.22960  Biso   1.000  H
  H47      1.0000 0.08960  0.24730  0.02040  Biso   1.000  H
  H48      1.0000 0.16040  0.00270  0.02040  Biso   1.000  H
  H49      1.0000 0.41040  0.49730  0.77040  Biso   1.000  H
  H50      1.0000 0.83960  0.75270  0.77040  Biso   1.000  H
  H51      1.0000 0.41040  0.75270  0.47960  Biso   1.000  H
  H52      1.0000 0.83960  0.49730  0.47960  Biso   1.000  H
  H53      1.0000 0.41040  0.99730  0.27040  Biso   1.000  H
  H54      1.0000 0.83960  0.25270  0.27040  Biso   1.000  H
  H55      1.0000 0.41040  0.25270  0.97960  Biso   1.000  H
  H56      1.0000 0.83960  0.99730  0.97960  Biso   1.000  H
  H57      1.0000 0.91040  0.49730  0.27040  Biso   1.000  H
  H58      1.0000 0.33960  0.75270  0.27040  Biso   1.000  H
  H59      1.0000 0.91040  0.75270  0.97960  Biso   1.000  H
  H60      1.0000 0.33960  0.49730  0.97960  Biso   1.000  H
  H61      1.0000 0.91040  0.99730  0.77040  Biso   1.000  H
  H62      1.0000 0.33960  0.25270  0.77040  Biso   1.000  H
  H63      1.0000 0.91040  0.25270  0.47960  Biso   1.000  H
  H64      1.0000 0.33960  0.99730  0.47960  Biso   1.000  H
  C65      1.0000 0.58740  0.44340  0.28431  Biso   1.000  C
  C66      1.0000 0.66260  0.80660  0.28431  Biso   1.000  C
  C67      1.0000 0.58740  0.80660  0.96569  Biso   1.000  C
  C68      1.0000 0.66260  0.44340  0.96569  Biso   1.000  C
  C69      1.0000 0.58740  0.94340  0.78431  Biso   1.000  C
  C70      1.0000 0.66260  0.30660  0.78431  Biso   1.000  C
  C71      1.0000 0.58740  0.30660  0.46569  Biso   1.000  C
  C72      1.0000 0.66260  0.94340  0.46569  Biso   1.000  C
  C73      1.0000 0.08740  0.44340  0.78431  Biso   1.000  C
  C74      1.0000 0.16260  0.80660  0.78431  Biso   1.000  C
  C75      1.0000 0.08740  0.80660  0.46569  Biso   1.000  C
  C76      1.0000 0.16260  0.44340  0.46569  Biso   1.000  C
  C77      1.0000 0.08740  0.94340  0.28431  Biso   1.000  C
  C78      1.0000 0.16260  0.30660  0.28431  Biso   1.000  C
  C79      1.0000 0.08740  0.30660  0.96569  Biso   1.000  C
  C80      1.0000 0.16260  0.94340  0.96569  Biso   1.000  C
  C81      1.0000 0.41260  0.55660  0.71569  Biso   1.000  C
  C82      1.0000 0.83740  0.69340  0.71569  Biso   1.000  C
  C83      1.0000 0.41260  0.69340  0.53431  Biso   1.000  C
  C84      1.0000 0.83740  0.55660  0.53431  Biso   1.000  C
  C85      1.0000 0.41260  0.05660  0.21569  Biso   1.000  C
  C86      1.0000 0.83740  0.19340  0.21569  Biso   1.000  C
  C87      1.0000 0.41260  0.19340  0.03431  Biso   1.000  C
  C88      1.0000 0.83740  0.05660  0.03431  Biso   1.000  C
  C89      1.0000 0.91260  0.55660  0.21569  Biso   1.000  C
  C90      1.0000 0.33740  0.69340  0.21569  Biso   1.000  C
  C91      1.0000 0.91260  0.69340  0.03431  Biso   1.000  C
  C92      1.0000 0.33740  0.55660  0.03431  Biso   1.000  C
  C93      1.0000 0.91260  0.05660  0.71569  Biso   1.000  C
  C94      1.0000 0.33740  0.19340  0.71569  Biso   1.000  C
  C95      1.0000 0.91260  0.19340  0.53431  Biso   1.000  C
  C96      1.0000 0.33740  0.05660  0.53431  Biso   1.000  C
  H65      1.0000 0.55350  0.41790  0.27380  Biso   1.000  H
  H66      1.0000 0.69650  0.83210  0.27380  Biso   1.000  H
  H67      1.0000 0.55350  0.83210  0.97620  Biso   1.000  H
  H68      1.0000 0.69650  0.41790  0.97620  Biso   1.000  H
  H69      1.0000 0.55350  0.91790  0.77380  Biso   1.000  H
  H70      1.0000 0.69650  0.33210  0.77380  Biso   1.000  H
  H71      1.0000 0.55350  0.33210  0.47620  Biso   1.000  H
  H72      1.0000 0.69650  0.91790  0.47620  Biso   1.000  H
  H73      1.0000 0.05350  0.41790  0.77380  Biso   1.000  H
  H74      1.0000 0.19650  0.83210  0.77380  Biso   1.000  H
  H75      1.0000 0.05350  0.83210  0.47620  Biso   1.000  H
  H76      1.0000 0.19650  0.41790  0.47620  Biso   1.000  H
  H77      1.0000 0.05350  0.91790  0.27380  Biso   1.000  H
  H78      1.0000 0.19650  0.33210  0.27380  Biso   1.000  H
  H79      1.0000 0.05350  0.33210  0.97620  Biso   1.000  H
  H80      1.0000 0.19650  0.91790  0.97620  Biso   1.000  H
  H81      1.0000 0.44650  0.58210  0.72620  Biso   1.000  H
  H82      1.0000 0.80350  0.66790  0.72620  Biso   1.000  H
  H83      1.0000 0.44650  0.66790  0.52380  Biso   1.000  H
  H84      1.0000 0.80350  0.58210  0.52380  Biso   1.000  H
  H85      1.0000 0.44650  0.08210  0.22620  Biso   1.000  H
  H86      1.0000 0.80350  0.16790  0.22620  Biso   1.000  H
  H87      1.0000 0.44650  0.16790  0.02380  Biso   1.000  H
  H88      1.0000 0.80350  0.08210  0.02380  Biso   1.000  H
  H89      1.0000 0.94650  0.58210  0.22620  Biso   1.000  H
  H90      1.0000 0.30350  0.66790  0.22620  Biso   1.000  H
  H91      1.0000 0.94650  0.66790  0.02380  Biso   1.000  H
  H92      1.0000 0.30350  0.58210  0.02380  Biso   1.000  H
  H93      1.0000 0.94650  0.08210  0.72620  Biso   1.000  H
  H94      1.0000 0.30350  0.16790  0.72620  Biso   1.000  H
  H95      1.0000 0.94650  0.16790  0.52380  Biso   1.000  H
  H96      1.0000 0.30350  0.08210  0.52380  Biso   1.000  H
  C97      1.0000 0.69590  0.56730  0.27760  Biso   1.000  C
  C98      1.0000 0.55410  0.68270  0.27760  Biso   1.000  C
  C99      1.0000 0.69590  0.68270  0.97240  Biso   1.000  C
  C100     1.0000 0.55410  0.56730  0.97240  Biso   1.000  C
  C101     1.0000 0.69590  0.06730  0.77760  Biso   1.000  C
  C102     1.0000 0.55410  0.18270  0.77760  Biso   1.000  C
  C103     1.0000 0.69590  0.18270  0.47240  Biso   1.000  C
  C104     1.0000 0.55410  0.06730  0.47240  Biso   1.000  C
  C105     1.0000 0.19590  0.56730  0.77760  Biso   1.000  C
  C106     1.0000 0.05410  0.68270  0.77760  Biso   1.000  C
  C107     1.0000 0.19590  0.68270  0.47240  Biso   1.000  C
  C108     1.0000 0.05410  0.56730  0.47240  Biso   1.000  C
  C109     1.0000 0.19590  0.06730  0.27760  Biso   1.000  C
  C110     1.0000 0.05410  0.18270  0.27760  Biso   1.000  C
  C111     1.0000 0.19590  0.18270  0.97240  Biso   1.000  C
  C112     1.0000 0.05410  0.06730  0.97240  Biso   1.000  C
  C113     1.0000 0.30410  0.43270  0.72240  Biso   1.000  C
  C114     1.0000 0.94590  0.81730  0.72240  Biso   1.000  C
  C115     1.0000 0.30410  0.81730  0.52760  Biso   1.000  C
  C116     1.0000 0.94590  0.43270  0.52760  Biso   1.000  C
  C117     1.0000 0.30410  0.93270  0.22240  Biso   1.000  C
  C118     1.0000 0.94590  0.31730  0.22240  Biso   1.000  C
  C119     1.0000 0.30410  0.31730  0.02760  Biso   1.000  C
  C120     1.0000 0.94590  0.93270  0.02760  Biso   1.000  C
  C121     1.0000 0.80410  0.43270  0.22240  Biso   1.000  C
  C122     1.0000 0.44590  0.81730  0.22240  Biso   1.000  C
  C123     1.0000 0.80410  0.81730  0.02760  Biso   1.000  C
  C124     1.0000 0.44590  0.43270  0.02760  Biso   1.000  C
  C125     1.0000 0.80410  0.93270  0.72240  Biso   1.000  C
  C126     1.0000 0.44590  0.31730  0.72240  Biso   1.000  C
  C127     1.0000 0.80410  0.31730  0.52760  Biso   1.000  C
  C128     1.0000 0.44590  0.93270  0.52760  Biso   1.000  C
  H97      1.0000 0.74000  0.56630  0.29540  Biso   1.000  H
  H98      1.0000 0.51000  0.68370  0.29540  Biso   1.000  H
  H99      1.0000 0.74000  0.68370  0.95460  Biso   1.000  H
  H100     1.0000 0.51000  0.56630  0.95460  Biso   1.000  H
  H101     1.0000 0.74000  0.06630  0.79540  Biso   1.000  H
  H102     1.0000 0.51000  0.18370  0.79540  Biso   1.000  H
  H103     1.0000 0.74000  0.18370  0.45460  Biso   1.000  H
  H104     1.0000 0.51000  0.06630  0.45460  Biso   1.000  H
  H105     1.0000 0.24000  0.56630  0.79540  Biso   1.000  H
  H106     1.0000 0.01000  0.68370  0.79540  Biso   1.000  H
  H107     1.0000 0.24000  0.68370  0.45460  Biso   1.000  H
  H108     1.0000 0.01000  0.56630  0.45460  Biso   1.000  H
  H109     1.0000 0.24000  0.06630  0.29540  Biso   1.000  H
  H110     1.0000 0.01000  0.18370  0.29540  Biso   1.000  H
  H111     1.0000 0.24000  0.18370  0.95460  Biso   1.000  H
  H112     1.0000 0.01000  0.06630  0.95460  Biso   1.000  H
  H113     1.0000 0.26000  0.43370  0.70460  Biso   1.000  H
  H114     1.0000 0.99000  0.81630  0.70460  Biso   1.000  H
  H115     1.0000 0.26000  0.81630  0.54540  Biso   1.000  H
  H116     1.0000 0.99000  0.43370  0.54540  Biso   1.000  H
  H117     1.0000 0.26000  0.93370  0.20460  Biso   1.000  H
  H118     1.0000 0.99000  0.31630  0.20460  Biso   1.000  H
  H119     1.0000 0.26000  0.31630  0.04540  Biso   1.000  H
  H120     1.0000 0.99000  0.93370  0.04540  Biso   1.000  H
  H121     1.0000 0.76000  0.43370  0.20460  Biso   1.000  H
  H122     1.0000 0.49000  0.81630  0.20460  Biso   1.000  H
  H123     1.0000 0.76000  0.81630  0.04540  Biso   1.000  H
  H124     1.0000 0.49000  0.43370  0.04540  Biso   1.000  H
  H125     1.0000 0.76000  0.93370  0.70460  Biso   1.000  H
  H126     1.0000 0.49000  0.31630  0.70460  Biso   1.000  H
  H127     1.0000 0.76000  0.31630  0.54540  Biso   1.000  H
  H128     1.0000 0.49000  0.93370  0.54540  Biso   1.000  H
  H129     1.0000 0.70680  0.56830  0.24280  Biso   1.000  H
  H130     1.0000 0.54320  0.68170  0.24280  Biso   1.000  H
  H131     1.0000 0.70680  0.68170  0.00720  Biso   1.000  H
  H132     1.0000 0.54320  0.56830  0.00720  Biso   1.000  H
  H133     1.0000 0.70680  0.06830  0.74280  Biso   1.000  H
  H134     1.0000 0.54320  0.18170  0.74280  Biso   1.000  H
  H135     1.0000 0.70680  0.18170  0.50720  Biso   1.000  H
  H136     1.0000 0.54320  0.06830  0.50720  Biso   1.000  H
  H137     1.0000 0.20680  0.56830  0.74280  Biso   1.000  H
  H138     1.0000 0.04320  0.68170  0.74280  Biso   1.000  H
  H139     1.0000 0.20680  0.68170  0.50720  Biso   1.000  H
  H140     1.0000 0.04320  0.56830  0.50720  Biso   1.000  H
  H141     1.0000 0.20680  0.06830  0.24280  Biso   1.000  H
  H142     1.0000 0.04320  0.18170  0.24280  Biso   1.000  H
  H143     1.0000 0.20680  0.18170  0.00720  Biso   1.000  H
  H144     1.0000 0.04320  0.06830  0.00720  Biso   1.000  H
  H145     1.0000 0.29320  0.43170  0.75720  Biso   1.000  H
  H146     1.0000 0.95680  0.81830  0.75720  Biso   1.000  H
  H147     1.0000 0.29320  0.81830  0.49280  Biso   1.000  H
  H148     1.0000 0.95680  0.43170  0.49280  Biso   1.000  H
  H149     1.0000 0.29320  0.93170  0.25720  Biso   1.000  H
  H150     1.0000 0.95680  0.31830  0.25720  Biso   1.000  H
  H151     1.0000 0.29320  0.31830  0.99280  Biso   1.000  H
  H152     1.0000 0.95680  0.93170  0.99280  Biso   1.000  H
  H153     1.0000 0.79320  0.43170  0.25720  Biso   1.000  H
  H154     1.0000 0.45680  0.81830  0.25720  Biso   1.000  H
  H155     1.0000 0.79320  0.81830  0.99280  Biso   1.000  H
  H156     1.0000 0.45680  0.43170  0.99280  Biso   1.000  H
  H157     1.0000 0.79320  0.93170  0.75720  Biso   1.000  H
  H158     1.0000 0.45680  0.31830  0.75720  Biso   1.000  H
  H159     1.0000 0.79320  0.31830  0.49280  Biso   1.000  H
  H160     1.0000 0.45680  0.93170  0.49280  Biso   1.000  H
  C129     1.0000 0.66000  0.61760  0.29010  Biso   1.000  C
  C130     1.0000 0.59000  0.63240  0.29010  Biso   1.000  C
  C131     1.0000 0.66000  0.63240  0.95990  Biso   1.000  C
  C132     1.0000 0.59000  0.61760  0.95990  Biso   1.000  C
  C133     1.0000 0.66000  0.11760  0.79010  Biso   1.000  C
  C134     1.0000 0.59000  0.13240  0.79010  Biso   1.000  C
  C135     1.0000 0.66000  0.13240  0.45990  Biso   1.000  C
  C136     1.0000 0.59000  0.11760  0.45990  Biso   1.000  C
  C137     1.0000 0.16000  0.61760  0.79010  Biso   1.000  C
  C138     1.0000 0.09000  0.63240  0.79010  Biso   1.000  C
  C139     1.0000 0.16000  0.63240  0.45990  Biso   1.000  C
  C140     1.0000 0.09000  0.61760  0.45990  Biso   1.000  C
  C141     1.0000 0.16000  0.11760  0.29010  Biso   1.000  C
  C142     1.0000 0.09000  0.13240  0.29010  Biso   1.000  C
  C143     1.0000 0.16000  0.13240  0.95990  Biso   1.000  C
  C144     1.0000 0.09000  0.11760  0.95990  Biso   1.000  C
  C145     1.0000 0.34000  0.38240  0.70990  Biso   1.000  C
  C146     1.0000 0.91000  0.86760  0.70990  Biso   1.000  C
  C147     1.0000 0.34000  0.86760  0.54010  Biso   1.000  C
  C148     1.0000 0.91000  0.38240  0.54010  Biso   1.000  C
  C149     1.0000 0.34000  0.88240  0.20990  Biso   1.000  C
  C150     1.0000 0.91000  0.36760  0.20990  Biso   1.000  C
  C151     1.0000 0.34000  0.36760  0.04010  Biso   1.000  C
  C152     1.0000 0.91000  0.88240  0.04010  Biso   1.000  C
  C153     1.0000 0.84000  0.38240  0.20990  Biso   1.000  C
  C154     1.0000 0.41000  0.86760  0.20990  Biso   1.000  C
  C155     1.0000 0.84000  0.86760  0.04010  Biso   1.000  C
  C156     1.0000 0.41000  0.38240  0.04010  Biso   1.000  C
  C157     1.0000 0.84000  0.88240  0.70990  Biso   1.000  C
  C158     1.0000 0.41000  0.36760  0.70990  Biso   1.000  C
  C159     1.0000 0.84000  0.36760  0.54010  Biso   1.000  C
  C160     1.0000 0.41000  0.88240  0.54010  Biso   1.000  C
  H161     1.0000 0.67530  0.62550  0.32340  Biso   1.000  H
  H162     1.0000 0.57470  0.62450  0.32340  Biso   1.000  H
  H163     1.0000 0.67530  0.62450  0.92660  Biso   1.000  H
  H164     1.0000 0.57470  0.62550  0.92660  Biso   1.000  H
  H165     1.0000 0.67530  0.12550  0.82340  Biso   1.000  H
  H166     1.0000 0.57470  0.12450  0.82340  Biso   1.000  H
  H167     1.0000 0.67530  0.12450  0.42660  Biso   1.000  H
  H168     1.0000 0.57470  0.12550  0.42660  Biso   1.000  H
  H169     1.0000 0.17530  0.62550  0.82340  Biso   1.000  H
  H170     1.0000 0.07470  0.62450  0.82340  Biso   1.000  H
  H171     1.0000 0.17530  0.62450  0.42660  Biso   1.000  H
  H172     1.0000 0.07470  0.62550  0.42660  Biso   1.000  H
  H173     1.0000 0.17530  0.12550  0.32340  Biso   1.000  H
  H174     1.0000 0.07470  0.12450  0.32340  Biso   1.000  H
  H175     1.0000 0.17530  0.12450  0.92660  Biso   1.000  H
  H176     1.0000 0.07470  0.12550  0.92660  Biso   1.000  H
  H177     1.0000 0.32470  0.37450  0.67660  Biso   1.000  H
  H178     1.0000 0.92530  0.87550  0.67660  Biso   1.000  H
  H179     1.0000 0.32470  0.87550  0.57340  Biso   1.000  H
  H180     1.0000 0.92530  0.37450  0.57340  Biso   1.000  H
  H181     1.0000 0.32470  0.87450  0.17660  Biso   1.000  H
  H182     1.0000 0.92530  0.37550  0.17660  Biso   1.000  H
  H183     1.0000 0.32470  0.37550  0.07340  Biso   1.000  H
  H184     1.0000 0.92530  0.87450  0.07340  Biso   1.000  H
  H185     1.0000 0.82470  0.37450  0.17660  Biso   1.000  H
  H186     1.0000 0.42530  0.87550  0.17660  Biso   1.000  H
  H187     1.0000 0.82470  0.87550  0.07340  Biso   1.000  H
  H188     1.0000 0.42530  0.37450  0.07340  Biso   1.000  H
  H189     1.0000 0.82470  0.87450  0.67660  Biso   1.000  H
  H190     1.0000 0.42530  0.37550  0.67660  Biso   1.000  H
  H191     1.0000 0.82470  0.37550  0.57340  Biso   1.000  H
  H192     1.0000 0.42530  0.87450  0.57340  Biso   1.000  H
  H193     1.0000 0.68210  0.64620  0.26980  Biso   1.000  H
  H194     1.0000 0.56790  0.60380  0.26980  Biso   1.000  H
  H195     1.0000 0.68210  0.60380  0.98020  Biso   1.000  H
  H196     1.0000 0.56790  0.64620  0.98020  Biso   1.000  H
  H197     1.0000 0.68210  0.14620  0.76980  Biso   1.000  H
  H198     1.0000 0.56790  0.10380  0.76980  Biso   1.000  H
  H199     1.0000 0.68210  0.10380  0.48020  Biso   1.000  H
  H200     1.0000 0.56790  0.14620  0.48020  Biso   1.000  H
  H201     1.0000 0.18210  0.64620  0.76980  Biso   1.000  H
  H202     1.0000 0.06790  0.60380  0.76980  Biso   1.000  H
  H203     1.0000 0.18210  0.60380  0.48020  Biso   1.000  H
  H204     1.0000 0.06790  0.64620  0.48020  Biso   1.000  H
  H205     1.0000 0.18210  0.14620  0.26980  Biso   1.000  H
  H206     1.0000 0.06790  0.10380  0.26980  Biso   1.000  H
  H207     1.0000 0.18210  0.10380  0.98020  Biso   1.000  H
  H208     1.0000 0.06790  0.14620  0.98020  Biso   1.000  H
  H209     1.0000 0.31790  0.35380  0.73020  Biso   1.000  H
  H210     1.0000 0.93210  0.89620  0.73020  Biso   1.000  H
  H211     1.0000 0.31790  0.89620  0.51980  Biso   1.000  H
  H212     1.0000 0.93210  0.35380  0.51980  Biso   1.000  H
  H213     1.0000 0.31790  0.85380  0.23020  Biso   1.000  H
  H214     1.0000 0.93210  0.39620  0.23020  Biso   1.000  H
  H215     1.0000 0.31790  0.39620  0.01980  Biso   1.000  H
  H216     1.0000 0.93210  0.85380  0.01980  Biso   1.000  H
  H217     1.0000 0.81790  0.35380  0.23020  Biso   1.000  H
  H218     1.0000 0.43210  0.89620  0.23020  Biso   1.000  H
  H219     1.0000 0.81790  0.89620  0.01980  Biso   1.000  H
  H220     1.0000 0.43210  0.35380  0.01980  Biso   1.000  H
  H221     1.0000 0.81790  0.85380  0.73020  Biso   1.000  H
  H222     1.0000 0.43210  0.39620  0.73020  Biso   1.000  H
  H223     1.0000 0.81790  0.39620  0.51980  Biso   1.000  H
  H224     1.0000 0.43210  0.85380  0.51980  Biso   1.000  H
  C161     1.0000 0.59180  0.47311  0.44131  Biso   1.000  C
  C162     1.0000 0.65820  0.77689  0.44131  Biso   1.000  C
  C163     1.0000 0.59180  0.77689  0.80869  Biso   1.000  C
  C164     1.0000 0.65820  0.47311  0.80869  Biso   1.000  C
  C165     1.0000 0.59180  0.97311  0.94131  Biso   1.000  C
  C166     1.0000 0.65820  0.27689  0.94131  Biso   1.000  C
  C167     1.0000 0.59180  0.27689  0.30869  Biso   1.000  C
  C168     1.0000 0.65820  0.97311  0.30869  Biso   1.000  C
  C169     1.0000 0.09180  0.47311  0.94131  Biso   1.000  C
  C170     1.0000 0.15820  0.77689  0.94131  Biso   1.000  C
  C171     1.0000 0.09180  0.77689  0.30869  Biso   1.000  C
  C172     1.0000 0.15820  0.47311  0.30869  Biso   1.000  C
  C173     1.0000 0.09180  0.97311  0.44131  Biso   1.000  C
  C174     1.0000 0.15820  0.27689  0.44131  Biso   1.000  C
  C175     1.0000 0.09180  0.27689  0.80869  Biso   1.000  C
  C176     1.0000 0.15820  0.97311  0.80869  Biso   1.000  C
  C177     1.0000 0.40820  0.52689  0.55869  Biso   1.000  C
  C178     1.0000 0.84180  0.72311  0.55869  Biso   1.000  C
  C179     1.0000 0.40820  0.72311  0.69131  Biso   1.000  C
  C180     1.0000 0.84180  0.52689  0.69131  Biso   1.000  C
  C181     1.0000 0.40820  0.02689  0.05869  Biso   1.000  C
  C182     1.0000 0.84180  0.22311  0.05869  Biso   1.000  C
  C183     1.0000 0.40820  0.22311  0.19131  Biso   1.000  C
  C184     1.0000 0.84180  0.02689  0.19131  Biso   1.000  C
  C185     1.0000 0.90820  0.52689  0.05869  Biso   1.000  C
  C186     1.0000 0.34180  0.72311  0.05869  Biso   1.000  C
  C187     1.0000 0.90820  0.72311  0.19131  Biso   1.000  C
  C188     1.0000 0.34180  0.52689  0.19131  Biso   1.000  C
  C189     1.0000 0.90820  0.02689  0.55869  Biso   1.000  C
  C190     1.0000 0.34180  0.22311  0.55869  Biso   1.000  C
  C191     1.0000 0.90820  0.22311  0.69131  Biso   1.000  C
  C192     1.0000 0.34180  0.02689  0.69131  Biso   1.000  C
  H225     1.0000 0.55430  0.48510  0.42220  Biso   1.000  H
  H226     1.0000 0.69570  0.76490  0.42220  Biso   1.000  H
  H227     1.0000 0.55430  0.76490  0.82780  Biso   1.000  H
  H228     1.0000 0.69570  0.48510  0.82780  Biso   1.000  H
  H229     1.0000 0.55430  0.98510  0.92220  Biso   1.000  H
  H230     1.0000 0.69570  0.26490  0.92220  Biso   1.000  H
  H231     1.0000 0.55430  0.26490  0.32780  Biso   1.000  H
  H232     1.0000 0.69570  0.98510  0.32780  Biso   1.000  H
  H233     1.0000 0.05430  0.48510  0.92220  Biso   1.000  H
  H234     1.0000 0.19570  0.76490  0.92220  Biso   1.000  H
  H235     1.0000 0.05430  0.76490  0.32780  Biso   1.000  H
  H236     1.0000 0.19570  0.48510  0.32780  Biso   1.000  H
  H237     1.0000 0.05430  0.98510  0.42220  Biso   1.000  H
  H238     1.0000 0.19570  0.26490  0.42220  Biso   1.000  H
  H239     1.0000 0.05430  0.26490  0.82780  Biso   1.000  H
  H240     1.0000 0.19570  0.98510  0.82780  Biso   1.000  H
  H241     1.0000 0.44570  0.51490  0.57780  Biso   1.000  H
  H242     1.0000 0.80430  0.73510  0.57780  Biso   1.000  H
  H243     1.0000 0.44570  0.73510  0.67220  Biso   1.000  H
  H244     1.0000 0.80430  0.51490  0.67220  Biso   1.000  H
  H245     1.0000 0.44570  0.01490  0.07780  Biso   1.000  H
  H246     1.0000 0.80430  0.23510  0.07780  Biso   1.000  H
  H247     1.0000 0.44570  0.23510  0.17220  Biso   1.000  H
  H248     1.0000 0.80430  0.01490  0.17220  Biso   1.000  H
  H249     1.0000 0.94570  0.51490  0.07780  Biso   1.000  H
  H250     1.0000 0.30430  0.73510  0.07780  Biso   1.000  H
  H251     1.0000 0.94570  0.73510  0.17220  Biso   1.000  H
  H252     1.0000 0.30430  0.51490  0.17220  Biso   1.000  H
  H253     1.0000 0.94570  0.01490  0.57780  Biso   1.000  H
  H254     1.0000 0.30430  0.23510  0.57780  Biso   1.000  H
  H255     1.0000 0.94570  0.23510  0.67220  Biso   1.000  H
  H256     1.0000 0.30430  0.01490  0.67220  Biso   1.000  H
  C193     1.0000 0.68020  0.42670  0.46799  Biso   1.000  C
  C194     1.0000 0.56980  0.82330  0.46799  Biso   1.000  C
  C195     1.0000 0.68020  0.82330  0.78201  Biso   1.000  C
  C196     1.0000 0.56980  0.42670  0.78201  Biso   1.000  C
  C197     1.0000 0.68020  0.92670  0.96799  Biso   1.000  C
  C198     1.0000 0.56980  0.32330  0.96799  Biso   1.000  C
  C199     1.0000 0.68020  0.32330  0.28201  Biso   1.000  C
  C200     1.0000 0.56980  0.92670  0.28201  Biso   1.000  C
  C201     1.0000 0.18020  0.42670  0.96799  Biso   1.000  C
  C202     1.0000 0.06980  0.82330  0.96799  Biso   1.000  C
  C203     1.0000 0.18020  0.82330  0.28201  Biso   1.000  C
  C204     1.0000 0.06980  0.42670  0.28201  Biso   1.000  C
  C205     1.0000 0.18020  0.92670  0.46799  Biso   1.000  C
  C206     1.0000 0.06980  0.32330  0.46799  Biso   1.000  C
  C207     1.0000 0.18020  0.32330  0.78201  Biso   1.000  C
  C208     1.0000 0.06980  0.92670  0.78201  Biso   1.000  C
  C209     1.0000 0.31980  0.57330  0.53201  Biso   1.000  C
  C210     1.0000 0.93020  0.67670  0.53201  Biso   1.000  C
  C211     1.0000 0.31980  0.67670  0.71799  Biso   1.000  C
  C212     1.0000 0.93020  0.57330  0.71799  Biso   1.000  C
  C213     1.0000 0.31980  0.07330  0.03201  Biso   1.000  C
  C214     1.0000 0.93020  0.17670  0.03201  Biso   1.000  C
  C215     1.0000 0.31980  0.17670  0.21799  Biso   1.000  C
  C216     1.0000 0.93020  0.07330  0.21799  Biso   1.000  C
  C217     1.0000 0.81980  0.57330  0.03201  Biso   1.000  C
  C218     1.0000 0.43020  0.67670  0.03201  Biso   1.000  C
  C219     1.0000 0.81980  0.67670  0.21799  Biso   1.000  C
  C220     1.0000 0.43020  0.57330  0.21799  Biso   1.000  C
  C221     1.0000 0.81980  0.07330  0.53201  Biso   1.000  C
  C222     1.0000 0.43020  0.17670  0.53201  Biso   1.000  C
  C223     1.0000 0.81980  0.17670  0.71799  Biso   1.000  C
  C224     1.0000 0.43020  0.07330  0.71799  Biso   1.000  C
  H257     1.0000 0.71560  0.39990  0.47020  Biso   1.000  H
  H258     1.0000 0.53440  0.85010  0.47020  Biso   1.000  H
  H259     1.0000 0.71560  0.85010  0.77980  Biso   1.000  H
  H260     1.0000 0.53440  0.39990  0.77980  Biso   1.000  H
  H261     1.0000 0.71560  0.89990  0.97020  Biso   1.000  H
  H262     1.0000 0.53440  0.35010  0.97020  Biso   1.000  H
  H263     1.0000 0.71560  0.35010  0.27980  Biso   1.000  H
  H264     1.0000 0.53440  0.89990  0.27980  Biso   1.000  H
  H265     1.0000 0.21560  0.39990  0.97020  Biso   1.000  H
  H266     1.0000 0.03440  0.85010  0.97020  Biso   1.000  H
  H267     1.0000 0.21560  0.85010  0.27980  Biso   1.000  H
  H268     1.0000 0.03440  0.39990  0.27980  Biso   1.000  H
  H269     1.0000 0.21560  0.89990  0.47020  Biso   1.000  H
  H270     1.0000 0.03440  0.35010  0.47020  Biso   1.000  H
  H271     1.0000 0.21560  0.35010  0.77980  Biso   1.000  H
  H272     1.0000 0.03440  0.89990  0.77980  Biso   1.000  H
  H273     1.0000 0.28440  0.60010  0.52980  Biso   1.000  H
  H274     1.0000 0.96560  0.64990  0.52980  Biso   1.000  H
  H275     1.0000 0.28440  0.64990  0.72020  Biso   1.000  H
  H276     1.0000 0.96560  0.60010  0.72020  Biso   1.000  H
  H277     1.0000 0.28440  0.10010  0.02980  Biso   1.000  H
  H278     1.0000 0.96560  0.14990  0.02980  Biso   1.000  H
  H279     1.0000 0.28440  0.14990  0.22020  Biso   1.000  H
  H280     1.0000 0.96560  0.10010  0.22020  Biso   1.000  H
  H281     1.0000 0.78440  0.60010  0.02980  Biso   1.000  H
  H282     1.0000 0.46560  0.64990  0.02980  Biso   1.000  H
  H283     1.0000 0.78440  0.64990  0.22020  Biso   1.000  H
  H284     1.0000 0.46560  0.60010  0.22020  Biso   1.000  H
  H285     1.0000 0.78440  0.10010  0.52980  Biso   1.000  H
  H286     1.0000 0.46560  0.14990  0.52980  Biso   1.000  H
  H287     1.0000 0.78440  0.14990  0.72020  Biso   1.000  H
  H288     1.0000 0.46560  0.10010  0.72020  Biso   1.000  H
  C225     1.0000 0.66990  0.46910  0.50034  Biso   1.000  C
  C226     1.0000 0.58010  0.78090  0.50034  Biso   1.000  C
  C227     1.0000 0.66990  0.78090  0.74966  Biso   1.000  C
  C228     1.0000 0.58010  0.46910  0.74966  Biso   1.000  C
  C229     1.0000 0.66990  0.96910  0.00034  Biso   1.000  C
  C230     1.0000 0.58010  0.28090  0.00034  Biso   1.000  C
  C231     1.0000 0.66990  0.28090  0.24966  Biso   1.000  C
  C232     1.0000 0.58010  0.96910  0.24966  Biso   1.000  C
  C233     1.0000 0.16990  0.46910  0.00034  Biso   1.000  C
  C234     1.0000 0.08010  0.78090  0.00034  Biso   1.000  C
  C235     1.0000 0.16990  0.78090  0.24966  Biso   1.000  C
  C236     1.0000 0.08010  0.46910  0.24966  Biso   1.000  C
  C237     1.0000 0.16990  0.96910  0.50034  Biso   1.000  C
  C238     1.0000 0.08010  0.28090  0.50034  Biso   1.000  C
  C239     1.0000 0.16990  0.28090  0.74966  Biso   1.000  C
  C240     1.0000 0.08010  0.96910  0.74966  Biso   1.000  C
  C241     1.0000 0.33010  0.53090  0.49966  Biso   1.000  C
  C242     1.0000 0.91990  0.71910  0.49966  Biso   1.000  C
  C243     1.0000 0.33010  0.71910  0.75034  Biso   1.000  C
  C244     1.0000 0.91990  0.53090  0.75034  Biso   1.000  C
  C245     1.0000 0.33010  0.03090  0.99966  Biso   1.000  C
  C246     1.0000 0.91990  0.21910  0.99966  Biso   1.000  C
  C247     1.0000 0.33010  0.21910  0.25034  Biso   1.000  C
  C248     1.0000 0.91990  0.03090  0.25034  Biso   1.000  C
  C249     1.0000 0.83010  0.53090  0.99966  Biso   1.000  C
  C250     1.0000 0.41990  0.71910  0.99966  Biso   1.000  C
  C251     1.0000 0.83010  0.71910  0.25034  Biso   1.000  C
  C252     1.0000 0.41990  0.53090  0.25034  Biso   1.000  C
  C253     1.0000 0.83010  0.03090  0.49966  Biso   1.000  C
  C254     1.0000 0.41990  0.21910  0.49966  Biso   1.000  C
  C255     1.0000 0.83010  0.21910  0.75034  Biso   1.000  C
  C256     1.0000 0.41990  0.03090  0.75034  Biso   1.000  C
  H289     1.0000 0.69570  0.47670  0.52860  Biso   1.000  H
  H290     1.0000 0.55430  0.77330  0.52860  Biso   1.000  H
  H291     1.0000 0.69570  0.77330  0.72140  Biso   1.000  H
  H292     1.0000 0.55430  0.47670  0.72140  Biso   1.000  H
  H293     1.0000 0.69570  0.97670  0.02860  Biso   1.000  H
  H294     1.0000 0.55430  0.27330  0.02860  Biso   1.000  H
  H295     1.0000 0.69570  0.27330  0.22140  Biso   1.000  H
  H296     1.0000 0.55430  0.97670  0.22140  Biso   1.000  H
  H297     1.0000 0.19570  0.47670  0.02860  Biso   1.000  H
  H298     1.0000 0.05430  0.77330  0.02860  Biso   1.000  H
  H299     1.0000 0.19570  0.77330  0.22140  Biso   1.000  H
  H300     1.0000 0.05430  0.47670  0.22140  Biso   1.000  H
  H301     1.0000 0.19570  0.97670  0.52860  Biso   1.000  H
  H302     1.0000 0.05430  0.27330  0.52860  Biso   1.000  H
  H303     1.0000 0.19570  0.27330  0.72140  Biso   1.000  H
  H304     1.0000 0.05430  0.97670  0.72140  Biso   1.000  H
  H305     1.0000 0.30430  0.52330  0.47140  Biso   1.000  H
  H306     1.0000 0.94570  0.72670  0.47140  Biso   1.000  H
  H307     1.0000 0.30430  0.72670  0.77860  Biso   1.000  H
  H308     1.0000 0.94570  0.52330  0.77860  Biso   1.000  H
  H309     1.0000 0.30430  0.02330  0.97140  Biso   1.000  H
  H310     1.0000 0.94570  0.22670  0.97140  Biso   1.000  H
  H311     1.0000 0.30430  0.22670  0.27860  Biso   1.000  H
  H312     1.0000 0.94570  0.02330  0.27860  Biso   1.000  H
  H313     1.0000 0.80430  0.52330  0.97140  Biso   1.000  H
  H314     1.0000 0.44570  0.72670  0.97140  Biso   1.000  H
  H315     1.0000 0.80430  0.72670  0.27860  Biso   1.000  H
  H316     1.0000 0.44570  0.52330  0.27860  Biso   1.000  H
  H317     1.0000 0.80430  0.02330  0.47140  Biso   1.000  H
  H318     1.0000 0.44570  0.22670  0.47140  Biso   1.000  H
  H319     1.0000 0.80430  0.22670  0.77860  Biso   1.000  H
  H320     1.0000 0.44570  0.02330  0.77860  Biso   1.000  H
  C257     1.0000 0.58520  0.55029  0.50437  Biso   1.000  C
  C258     1.0000 0.66480  0.69971  0.50437  Biso   1.000  C
  C259     1.0000 0.58520  0.69971  0.74563  Biso   1.000  C
  C260     1.0000 0.66480  0.55029  0.74563  Biso   1.000  C
  C261     1.0000 0.58520  0.05029  0.00437  Biso   1.000  C
  C262     1.0000 0.66480  0.19971  0.00437  Biso   1.000  C
  C263     1.0000 0.58520  0.19971  0.24563  Biso   1.000  C
  C264     1.0000 0.66480  0.05029  0.24563  Biso   1.000  C
  C265     1.0000 0.08520  0.55029  0.00437  Biso   1.000  C
  C266     1.0000 0.16480  0.69971  0.00437  Biso   1.000  C
  C267     1.0000 0.08520  0.69971  0.24563  Biso   1.000  C
  C268     1.0000 0.16480  0.55029  0.24563  Biso   1.000  C
  C269     1.0000 0.08520  0.05029  0.50437  Biso   1.000  C
  C270     1.0000 0.16480  0.19971  0.50437  Biso   1.000  C
  C271     1.0000 0.08520  0.19971  0.74563  Biso   1.000  C
  C272     1.0000 0.16480  0.05029  0.74563  Biso   1.000  C
  C273     1.0000 0.41480  0.44971  0.49563  Biso   1.000  C
  C274     1.0000 0.83520  0.80029  0.49563  Biso   1.000  C
  C275     1.0000 0.41480  0.80029  0.75437  Biso   1.000  C
  C276     1.0000 0.83520  0.44971  0.75437  Biso   1.000  C
  C277     1.0000 0.41480  0.94971  0.99563  Biso   1.000  C
  C278     1.0000 0.83520  0.30029  0.99563  Biso   1.000  C
  C279     1.0000 0.41480  0.30029  0.25437  Biso   1.000  C
  C280     1.0000 0.83520  0.94971  0.25437  Biso   1.000  C
  C281     1.0000 0.91480  0.44971  0.99563  Biso   1.000  C
  C282     1.0000 0.33520  0.80029  0.99563  Biso   1.000  C
  C283     1.0000 0.91480  0.80029  0.25437  Biso   1.000  C
  C284     1.0000 0.33520  0.44971  0.25437  Biso   1.000  C
  C285     1.0000 0.91480  0.94971  0.49563  Biso   1.000  C
  C286     1.0000 0.33520  0.30029  0.49563  Biso   1.000  C
  C287     1.0000 0.91480  0.30029  0.75437  Biso   1.000  C
  C288     1.0000 0.33520  0.94971  0.75437  Biso   1.000  C
  H321     1.0000 0.57230  0.54360  0.53840  Biso   1.000  H
  H322     1.0000 0.67770  0.70640  0.53840  Biso   1.000  H
  H323     1.0000 0.57230  0.70640  0.71160  Biso   1.000  H
  H324     1.0000 0.67770  0.54360  0.71160  Biso   1.000  H
  H325     1.0000 0.57230  0.04360  0.03840  Biso   1.000  H
  H326     1.0000 0.67770  0.20640  0.03840  Biso   1.000  H
  H327     1.0000 0.57230  0.20640  0.21160  Biso   1.000  H
  H328     1.0000 0.67770  0.04360  0.21160  Biso   1.000  H
  H329     1.0000 0.07230  0.54360  0.03840  Biso   1.000  H
  H330     1.0000 0.17770  0.70640  0.03840  Biso   1.000  H
  H331     1.0000 0.07230  0.70640  0.21160  Biso   1.000  H
  H332     1.0000 0.17770  0.54360  0.21160  Biso   1.000  H
  H333     1.0000 0.07230  0.04360  0.53840  Biso   1.000  H
  H334     1.0000 0.17770  0.20640  0.53840  Biso   1.000  H
  H335     1.0000 0.07230  0.20640  0.71160  Biso   1.000  H
  H336     1.0000 0.17770  0.04360  0.71160  Biso   1.000  H
  H337     1.0000 0.42770  0.45640  0.46160  Biso   1.000  H
  H338     1.0000 0.82230  0.79360  0.46160  Biso   1.000  H
  H339     1.0000 0.42770  0.79360  0.78840  Biso   1.000  H
  H340     1.0000 0.82230  0.45640  0.78840  Biso   1.000  H
  H341     1.0000 0.42770  0.95640  0.96160  Biso   1.000  H
  H342     1.0000 0.82230  0.29360  0.96160  Biso   1.000  H
  H343     1.0000 0.42770  0.29360  0.28840  Biso   1.000  H
  H344     1.0000 0.82230  0.95640  0.28840  Biso   1.000  H
  H345     1.0000 0.92770  0.45640  0.96160  Biso   1.000  H
  H346     1.0000 0.32230  0.79360  0.96160  Biso   1.000  H
  H347     1.0000 0.92770  0.79360  0.28840  Biso   1.000  H
  H348     1.0000 0.32230  0.45640  0.28840  Biso   1.000  H
  H349     1.0000 0.92770  0.95640  0.46160  Biso   1.000  H
  H350     1.0000 0.32230  0.29360  0.46160  Biso   1.000  H
  H351     1.0000 0.92770  0.29360  0.78840  Biso   1.000  H
  H352     1.0000 0.32230  0.95640  0.78840  Biso   1.000  H
  H353     1.0000 0.54350  0.56180  0.48660  Biso   1.000  H
  H354     1.0000 0.70650  0.68820  0.48660  Biso   1.000  H
  H355     1.0000 0.54350  0.68820  0.76340  Biso   1.000  H
  H356     1.0000 0.70650  0.56180  0.76340  Biso   1.000  H
  H357     1.0000 0.54350  0.06180  0.98660  Biso   1.000  H
  H358     1.0000 0.70650  0.18820  0.98660  Biso   1.000  H
  H359     1.0000 0.54350  0.18820  0.26340  Biso   1.000  H
  H360     1.0000 0.70650  0.06180  0.26340  Biso   1.000  H
  H361     1.0000 0.04350  0.56180  0.98660  Biso   1.000  H
  H362     1.0000 0.20650  0.68820  0.98660  Biso   1.000  H
  H363     1.0000 0.04350  0.68820  0.26340  Biso   1.000  H
  H364     1.0000 0.20650  0.56180  0.26340  Biso   1.000  H
  H365     1.0000 0.04350  0.06180  0.48660  Biso   1.000  H
  H366     1.0000 0.20650  0.18820  0.48660  Biso   1.000  H
  H367     1.0000 0.04350  0.18820  0.76340  Biso   1.000  H
  H368     1.0000 0.20650  0.06180  0.76340  Biso   1.000  H
  H369     1.0000 0.45650  0.43820  0.51340  Biso   1.000  H
  H370     1.0000 0.79350  0.81180  0.51340  Biso   1.000  H
  H371     1.0000 0.45650  0.81180  0.73660  Biso   1.000  H
  H372     1.0000 0.79350  0.43820  0.73660  Biso   1.000  H
  H373     1.0000 0.45650  0.93820  0.01340  Biso   1.000  H
  H374     1.0000 0.79350  0.31180  0.01340  Biso   1.000  H
  H375     1.0000 0.45650  0.31180  0.23660  Biso   1.000  H
  H376     1.0000 0.79350  0.93820  0.23660  Biso   1.000  H
  H377     1.0000 0.95650  0.43820  0.01340  Biso   1.000  H
  H378     1.0000 0.29350  0.81180  0.01340  Biso   1.000  H
  H379     1.0000 0.95650  0.81180  0.23660  Biso   1.000  H
  H380     1.0000 0.29350  0.43820  0.23660  Biso   1.000  H
  H381     1.0000 0.95650  0.93820  0.51340  Biso   1.000  H
  H382     1.0000 0.29350  0.31180  0.51340  Biso   1.000  H
  H383     1.0000 0.95650  0.31180  0.73660  Biso   1.000  H
  H384     1.0000 0.29350  0.93820  0.73660  Biso   1.000  H
  C289     1.0000 0.63970  0.59610  0.50180  Biso   1.000  C
  C290     1.0000 0.61030  0.65390  0.50180  Biso   1.000  C
  C291     1.0000 0.63970  0.65390  0.74820  Biso   1.000  C
  C292     1.0000 0.61030  0.59610  0.74820  Biso   1.000  C
  C293     1.0000 0.63970  0.09610  0.00180  Biso   1.000  C
  C294     1.0000 0.61030  0.15390  0.00180  Biso   1.000  C
  C295     1.0000 0.63970  0.15390  0.24820  Biso   1.000  C
  C296     1.0000 0.61030  0.09610  0.24820  Biso   1.000  C
  C297     1.0000 0.13970  0.59610  0.00180  Biso   1.000  C
  C298     1.0000 0.11030  0.65390  0.00180  Biso   1.000  C
  C299     1.0000 0.13970  0.65390  0.24820  Biso   1.000  C
  C300     1.0000 0.11030  0.59610  0.24820  Biso   1.000  C
  C301     1.0000 0.13970  0.09610  0.50180  Biso   1.000  C
  C302     1.0000 0.11030  0.15390  0.50180  Biso   1.000  C
  C303     1.0000 0.13970  0.15390  0.74820  Biso   1.000  C
  C304     1.0000 0.11030  0.09610  0.74820  Biso   1.000  C
  C305     1.0000 0.36030  0.40390  0.49820  Biso   1.000  C
  C306     1.0000 0.88970  0.84610  0.49820  Biso   1.000  C
  C307     1.0000 0.36030  0.84610  0.75180  Biso   1.000  C
  C308     1.0000 0.88970  0.40390  0.75180  Biso   1.000  C
  C309     1.0000 0.36030  0.90390  0.99820  Biso   1.000  C
  C310     1.0000 0.88970  0.34610  0.99820  Biso   1.000  C
  C311     1.0000 0.36030  0.34610  0.25180  Biso   1.000  C
  C312     1.0000 0.88970  0.90390  0.25180  Biso   1.000  C
  C313     1.0000 0.86030  0.40390  0.99820  Biso   1.000  C
  C314     1.0000 0.38970  0.84610  0.99820  Biso   1.000  C
  C315     1.0000 0.86030  0.84610  0.25180  Biso   1.000  C
  C316     1.0000 0.38970  0.40390  0.25180  Biso   1.000  C
  C317     1.0000 0.86030  0.90390  0.49820  Biso   1.000  C
  C318     1.0000 0.38970  0.34610  0.49820  Biso   1.000  C
  C319     1.0000 0.86030  0.34610  0.75180  Biso   1.000  C
  C320     1.0000 0.38970  0.90390  0.75180  Biso   1.000  C
  H385     1.0000 0.67110  0.59220  0.52970  Biso   1.000  H
  H386     1.0000 0.57890  0.65780  0.52970  Biso   1.000  H
  H387     1.0000 0.67110  0.65780  0.72030  Biso   1.000  H
  H388     1.0000 0.57890  0.59220  0.72030  Biso   1.000  H
  H389     1.0000 0.67110  0.09220  0.02970  Biso   1.000  H
  H390     1.0000 0.57890  0.15780  0.02970  Biso   1.000  H
  H391     1.0000 0.67110  0.15780  0.22030  Biso   1.000  H
  H392     1.0000 0.57890  0.09220  0.22030  Biso   1.000  H
  H393     1.0000 0.17110  0.59220  0.02970  Biso   1.000  H
  H394     1.0000 0.07890  0.65780  0.02970  Biso   1.000  H
  H395     1.0000 0.17110  0.65780  0.22030  Biso   1.000  H
  H396     1.0000 0.07890  0.59220  0.22030  Biso   1.000  H
  H397     1.0000 0.17110  0.09220  0.52970  Biso   1.000  H
  H398     1.0000 0.07890  0.15780  0.52970  Biso   1.000  H
  H399     1.0000 0.17110  0.15780  0.72030  Biso   1.000  H
  H400     1.0000 0.07890  0.09220  0.72030  Biso   1.000  H
  H401     1.0000 0.32890  0.40780  0.47030  Biso   1.000  H
  H402     1.0000 0.92110  0.84220  0.47030  Biso   1.000  H
  H403     1.0000 0.32890  0.84220  0.77970  Biso   1.000  H
  H404     1.0000 0.92110  0.40780  0.77970  Biso   1.000  H
  H405     1.0000 0.32890  0.90780  0.97030  Biso   1.000  H
  H406     1.0000 0.92110  0.34220  0.97030  Biso   1.000  H
  H407     1.0000 0.32890  0.34220  0.27970  Biso   1.000  H
  H408     1.0000 0.92110  0.90780  0.27970  Biso   1.000  H
  H409     1.0000 0.82890  0.40780  0.97030  Biso   1.000  H
  H410     1.0000 0.42110  0.84220  0.97030  Biso   1.000  H
  H411     1.0000 0.82890  0.84220  0.27970  Biso   1.000  H
  H412     1.0000 0.42110  0.40780  0.27970  Biso   1.000  H
  H413     1.0000 0.82890  0.90780  0.47030  Biso   1.000  H
  H414     1.0000 0.42110  0.34220  0.47030  Biso   1.000  H
  H415     1.0000 0.82890  0.34220  0.77970  Biso   1.000  H
  H416     1.0000 0.42110  0.90780  0.77970  Biso   1.000  H
  H417     1.0000 0.66720  0.59100  0.47220  Biso   1.000  H
  H418     1.0000 0.58280  0.65900  0.47220  Biso   1.000  H
  H419     1.0000 0.66720  0.65900  0.77780  Biso   1.000  H
  H420     1.0000 0.58280  0.59100  0.77780  Biso   1.000  H
  H421     1.0000 0.66720  0.09100  0.97220  Biso   1.000  H
  H422     1.0000 0.58280  0.15900  0.97220  Biso   1.000  H
  H423     1.0000 0.66720  0.15900  0.27780  Biso   1.000  H
  H424     1.0000 0.58280  0.09100  0.27780  Biso   1.000  H
  H425     1.0000 0.16720  0.59100  0.97220  Biso   1.000  H
  H426     1.0000 0.08280  0.65900  0.97220  Biso   1.000  H
  H427     1.0000 0.16720  0.65900  0.27780  Biso   1.000  H
  H428     1.0000 0.08280  0.59100  0.27780  Biso   1.000  H
  H429     1.0000 0.16720  0.09100  0.47220  Biso   1.000  H
  H430     1.0000 0.08280  0.15900  0.47220  Biso   1.000  H
  H431     1.0000 0.16720  0.15900  0.77780  Biso   1.000  H
  H432     1.0000 0.08280  0.09100  0.77780  Biso   1.000  H
  H433     1.0000 0.33280  0.40900  0.52780  Biso   1.000  H
  H434     1.0000 0.91720  0.84100  0.52780  Biso   1.000  H
  H435     1.0000 0.33280  0.84100  0.72220  Biso   1.000  H
  H436     1.0000 0.91720  0.40900  0.72220  Biso   1.000  H
  H437     1.0000 0.33280  0.90900  0.02780  Biso   1.000  H
  H438     1.0000 0.91720  0.34100  0.02780  Biso   1.000  H
  H439     1.0000 0.33280  0.34100  0.22220  Biso   1.000  H
  H440     1.0000 0.91720  0.90900  0.22220  Biso   1.000  H
  H441     1.0000 0.83280  0.40900  0.02780  Biso   1.000  H
  H442     1.0000 0.41720  0.84100  0.02780  Biso   1.000  H
  H443     1.0000 0.83280  0.84100  0.22220  Biso   1.000  H
  H444     1.0000 0.41720  0.40900  0.22220  Biso   1.000  H
  H445     1.0000 0.83280  0.90900  0.52780  Biso   1.000  H
  H446     1.0000 0.41720  0.34100  0.52780  Biso   1.000  H
  H447     1.0000 0.83280  0.34100  0.72220  Biso   1.000  H
  H448     1.0000 0.41720  0.90900  0.72220  Biso   1.000  H
  N1       1.0000 0.62467  0.43879  0.32691  Biso   1.000  N
  N2       1.0000 0.62533  0.81121  0.32691  Biso   1.000  N
  N3       1.0000 0.62467  0.81121  0.92309  Biso   1.000  N
  N4       1.0000 0.62533  0.43879  0.92309  Biso   1.000  N
  N5       1.0000 0.62467  0.93879  0.82691  Biso   1.000  N
  N6       1.0000 0.62533  0.31121  0.82691  Biso   1.000  N
  N7       1.0000 0.62467  0.31121  0.42309  Biso   1.000  N
  N8       1.0000 0.62533  0.93879  0.42309  Biso   1.000  N
  N9       1.0000 0.12467  0.43879  0.82691  Biso   1.000  N
  N10      1.0000 0.12533  0.81121  0.82691  Biso   1.000  N
  N11      1.0000 0.12467  0.81121  0.42309  Biso   1.000  N
  N12      1.0000 0.12533  0.43879  0.42309  Biso   1.000  N
  N13      1.0000 0.12467  0.93879  0.32691  Biso   1.000  N
  N14      1.0000 0.12533  0.31121  0.32691  Biso   1.000  N
  N15      1.0000 0.12467  0.31121  0.92309  Biso   1.000  N
  N16      1.0000 0.12533  0.93879  0.92309  Biso   1.000  N
  N17      1.0000 0.37533  0.56121  0.67309  Biso   1.000  N
  N18      1.0000 0.87467  0.68879  0.67309  Biso   1.000  N
  N19      1.0000 0.37533  0.68879  0.57691  Biso   1.000  N
  N20      1.0000 0.87467  0.56121  0.57691  Biso   1.000  N
  N21      1.0000 0.37533  0.06121  0.17309  Biso   1.000  N
  N22      1.0000 0.87467  0.18879  0.17309  Biso   1.000  N
  N23      1.0000 0.37533  0.18879  0.07691  Biso   1.000  N
  N24      1.0000 0.87467  0.06121  0.07691  Biso   1.000  N
  N25      1.0000 0.87533  0.56121  0.17309  Biso   1.000  N
  N26      1.0000 0.37467  0.68879  0.17309  Biso   1.000  N
  N27      1.0000 0.87533  0.68879  0.07691  Biso   1.000  N
  N28      1.0000 0.37467  0.56121  0.07691  Biso   1.000  N
  N29      1.0000 0.87533  0.06121  0.67309  Biso   1.000  N
  N30      1.0000 0.37467  0.18879  0.67309  Biso   1.000  N
  N31      1.0000 0.87533  0.18879  0.57691  Biso   1.000  N
  N32      1.0000 0.37467  0.06121  0.57691  Biso   1.000  N
  N33      1.0000 0.65720  0.51509  0.28809  Biso   1.000  N
  N34      1.0000 0.59280  0.73491  0.28809  Biso   1.000  N
  N35      1.0000 0.65720  0.73491  0.96191  Biso   1.000  N
  N36      1.0000 0.59280  0.51509  0.96191  Biso   1.000  N
  N37      1.0000 0.65720  0.01509  0.78809  Biso   1.000  N
  N38      1.0000 0.59280  0.23491  0.78809  Biso   1.000  N
  N39      1.0000 0.65720  0.23491  0.46191  Biso   1.000  N
  N40      1.0000 0.59280  0.01509  0.46191  Biso   1.000  N
  N41      1.0000 0.15720  0.51509  0.78809  Biso   1.000  N
  N42      1.0000 0.09280  0.73491  0.78809  Biso   1.000  N
  N43      1.0000 0.15720  0.73491  0.46191  Biso   1.000  N
  N44      1.0000 0.09280  0.51509  0.46191  Biso   1.000  N
  N45      1.0000 0.15720  0.01509  0.28809  Biso   1.000  N
  N46      1.0000 0.09280  0.23491  0.28809  Biso   1.000  N
  N47      1.0000 0.15720  0.23491  0.96191  Biso   1.000  N
  N48      1.0000 0.09280  0.01509  0.96191  Biso   1.000  N
  N49      1.0000 0.34280  0.48491  0.71191  Biso   1.000  N
  N50      1.0000 0.90720  0.76509  0.71191  Biso   1.000  N
  N51      1.0000 0.34280  0.76509  0.53809  Biso   1.000  N
  N52      1.0000 0.90720  0.48491  0.53809  Biso   1.000  N
  N53      1.0000 0.34280  0.98491  0.21191  Biso   1.000  N
  N54      1.0000 0.90720  0.26509  0.21191  Biso   1.000  N
  N55      1.0000 0.34280  0.26509  0.03809  Biso   1.000  N
  N56      1.0000 0.90720  0.98491  0.03809  Biso   1.000  N
  N57      1.0000 0.84280  0.48491  0.21191  Biso   1.000  N
  N58      1.0000 0.40720  0.76509  0.21191  Biso   1.000  N
  N59      1.0000 0.84280  0.76509  0.03809  Biso   1.000  N
  N60      1.0000 0.40720  0.48491  0.03809  Biso   1.000  N
  N61      1.0000 0.84280  0.98491  0.71191  Biso   1.000  N
  N62      1.0000 0.40720  0.26509  0.71191  Biso   1.000  N
  N63      1.0000 0.84280  0.26509  0.53809  Biso   1.000  N
  N64      1.0000 0.40720  0.98491  0.53809  Biso   1.000  N
  N65      1.0000 0.63090  0.42901  0.43147  Biso   1.000  N
  N66      1.0000 0.61910  0.82099  0.43147  Biso   1.000  N
  N67      1.0000 0.63090  0.82099  0.81853  Biso   1.000  N
  N68      1.0000 0.61910  0.42901  0.81853  Biso   1.000  N
  N69      1.0000 0.63090  0.92901  0.93147  Biso   1.000  N
  N70      1.0000 0.61910  0.32099  0.93147  Biso   1.000  N
  N71      1.0000 0.63090  0.32099  0.31853  Biso   1.000  N
  N72      1.0000 0.61910  0.92901  0.31853  Biso   1.000  N
  N73      1.0000 0.13090  0.42901  0.93147  Biso   1.000  N
  N74      1.0000 0.11910  0.82099  0.93147  Biso   1.000  N
  N75      1.0000 0.13090  0.82099  0.31853  Biso   1.000  N
  N76      1.0000 0.11910  0.42901  0.31853  Biso   1.000  N
  N77      1.0000 0.13090  0.92901  0.43147  Biso   1.000  N
  N78      1.0000 0.11910  0.32099  0.43147  Biso   1.000  N
  N79      1.0000 0.13090  0.32099  0.81853  Biso   1.000  N
  N80      1.0000 0.11910  0.92901  0.81853  Biso   1.000  N
  N81      1.0000 0.36910  0.57099  0.56853  Biso   1.000  N
  N82      1.0000 0.88090  0.67901  0.56853  Biso   1.000  N
  N83      1.0000 0.36910  0.67901  0.68147  Biso   1.000  N
  N84      1.0000 0.88090  0.57099  0.68147  Biso   1.000  N
  N85      1.0000 0.36910  0.07099  0.06853  Biso   1.000  N
  N86      1.0000 0.88090  0.17901  0.06853  Biso   1.000  N
  N87      1.0000 0.36910  0.17901  0.18147  Biso   1.000  N
  N88      1.0000 0.88090  0.07099  0.18147  Biso   1.000  N
  N89      1.0000 0.86910  0.57099  0.06853  Biso   1.000  N
  N90      1.0000 0.38090  0.67901  0.06853  Biso   1.000  N
  N91      1.0000 0.86910  0.67901  0.18147  Biso   1.000  N
  N92      1.0000 0.38090  0.57099  0.18147  Biso   1.000  N
  N93      1.0000 0.86910  0.07099  0.56853  Biso   1.000  N
  N94      1.0000 0.38090  0.17901  0.56853  Biso   1.000  N
  N95      1.0000 0.86910  0.17901  0.68147  Biso   1.000  N
  N96      1.0000 0.38090  0.07099  0.68147  Biso   1.000  N
  N97      1.0000 0.61340  0.49856  0.48281  Biso   1.000  N
  N98      1.0000 0.63660  0.75144  0.48281  Biso   1.000  N
  N99      1.0000 0.61340  0.75144  0.76719  Biso   1.000  N
  N100     1.0000 0.63660  0.49856  0.76719  Biso   1.000  N
  N101     1.0000 0.61340  0.99856  0.98281  Biso   1.000  N
  N102     1.0000 0.63660  0.25144  0.98281  Biso   1.000  N
  N103     1.0000 0.61340  0.25144  0.26719  Biso   1.000  N
  N104     1.0000 0.63660  0.99856  0.26719  Biso   1.000  N
  N105     1.0000 0.11340  0.49856  0.98281  Biso   1.000  N
  N106     1.0000 0.13660  0.75144  0.98281  Biso   1.000  N
  N107     1.0000 0.11340  0.75144  0.26719  Biso   1.000  N
  N108     1.0000 0.13660  0.49856  0.26719  Biso   1.000  N
  N109     1.0000 0.11340  0.99856  0.48281  Biso   1.000  N
  N110     1.0000 0.13660  0.25144  0.48281  Biso   1.000  N
  N111     1.0000 0.11340  0.25144  0.76719  Biso   1.000  N
  N112     1.0000 0.13660  0.99856  0.76719  Biso   1.000  N
  N113     1.0000 0.38660  0.50144  0.51719  Biso   1.000  N
  N114     1.0000 0.86340  0.74856  0.51719  Biso   1.000  N
  N115     1.0000 0.38660  0.74856  0.73281  Biso   1.000  N
  N116     1.0000 0.86340  0.50144  0.73281  Biso   1.000  N
  N117     1.0000 0.38660  0.00144  0.01719  Biso   1.000  N
  N118     1.0000 0.86340  0.24856  0.01719  Biso   1.000  N
  N119     1.0000 0.38660  0.24856  0.23281  Biso   1.000  N
  N120     1.0000 0.86340  0.00144  0.23281  Biso   1.000  N
  N121     1.0000 0.88660  0.50144  0.01719  Biso   1.000  N
  N122     1.0000 0.36340  0.74856  0.01719  Biso   1.000  N
  N123     1.0000 0.88660  0.74856  0.23281  Biso   1.000  N
  N124     1.0000 0.36340  0.50144  0.23281  Biso   1.000  N
  N125     1.0000 0.88660  0.00144  0.51719  Biso   1.000  N
  N126     1.0000 0.36340  0.24856  0.51719  Biso   1.000  N
  N127     1.0000 0.88660  0.24856  0.73281  Biso   1.000  N
  N128     1.0000 0.36340  0.00144  0.73281  Biso   1.000  N
  O1       1.0000 0.49590  0.37500  0.37500  Biso   1.000  O
  O2       1.0000 0.75410  0.87500  0.37500  Biso   1.000  O
  O3       1.0000 0.49590  0.87500  0.87500  Biso   1.000  O
  O4       1.0000 0.75410  0.37500  0.87500  Biso   1.000  O
  O5       1.0000 0.99590  0.37500  0.87500  Biso   1.000  O
  O6       1.0000 0.25410  0.87500  0.87500  Biso   1.000  O
  O7       1.0000 0.99590  0.87500  0.37500  Biso   1.000  O
  O8       1.0000 0.25410  0.37500  0.37500  Biso   1.000  O
  O9       1.0000 0.50410  0.62500  0.62500  Biso   1.000  O
  O10      1.0000 0.74590  0.62500  0.62500  Biso   1.000  O
  O11      1.0000 0.50410  0.12500  0.12500  Biso   1.000  O
  O12      1.0000 0.74590  0.12500  0.12500  Biso   1.000  O
  O13      1.0000 0.00410  0.62500  0.12500  Biso   1.000  O
  O14      1.0000 0.24590  0.62500  0.12500  Biso   1.000  O
  O15      1.0000 0.00410  0.12500  0.62500  Biso   1.000  O
  O16      1.0000 0.24590  0.12500  0.62500  Biso   1.000  O
  H449     1.0000 0.46400  0.40000  0.37310  Biso   1.000  H
  H450     1.0000 0.78600  0.85000  0.37310  Biso   1.000  H
  H451     1.0000 0.46400  0.85000  0.87690  Biso   1.000  H
  H452     1.0000 0.78600  0.40000  0.87690  Biso   1.000  H
  H453     1.0000 0.46400  0.90000  0.87310  Biso   1.000  H
  H454     1.0000 0.78600  0.35000  0.87310  Biso   1.000  H
  H455     1.0000 0.46400  0.35000  0.37690  Biso   1.000  H
  H456     1.0000 0.78600  0.90000  0.37690  Biso   1.000  H
  H457     1.0000 0.96400  0.40000  0.87310  Biso   1.000  H
  H458     1.0000 0.28600  0.85000  0.87310  Biso   1.000  H
  H459     1.0000 0.96400  0.85000  0.37690  Biso   1.000  H
  H460     1.0000 0.28600  0.40000  0.37690  Biso   1.000  H
  H461     1.0000 0.96400  0.90000  0.37310  Biso   1.000  H
  H462     1.0000 0.28600  0.35000  0.37310  Biso   1.000  H
  H463     1.0000 0.96400  0.35000  0.87690  Biso   1.000  H
  H464     1.0000 0.28600  0.90000  0.87690  Biso   1.000  H
  H465     1.0000 0.53600  0.60000  0.62690  Biso   1.000  H
  H466     1.0000 0.71400  0.65000  0.62690  Biso   1.000  H
  H467     1.0000 0.53600  0.65000  0.62310  Biso   1.000  H
  H468     1.0000 0.71400  0.60000  0.62310  Biso   1.000  H
  H469     1.0000 0.53600  0.10000  0.12690  Biso   1.000  H
  H470     1.0000 0.71400  0.15000  0.12690  Biso   1.000  H
  H471     1.0000 0.53600  0.15000  0.12310  Biso   1.000  H
  H472     1.0000 0.71400  0.10000  0.12310  Biso   1.000  H
  H473     1.0000 0.03600  0.60000  0.12690  Biso   1.000  H
  H474     1.0000 0.21400  0.65000  0.12690  Biso   1.000  H
  H475     1.0000 0.03600  0.65000  0.12310  Biso   1.000  H
  H476     1.0000 0.21400  0.60000  0.12310  Biso   1.000  H
  H477     1.0000 0.03600  0.10000  0.62690  Biso   1.000  H
  H478     1.0000 0.21400  0.15000  0.62690  Biso   1.000  H
  H479     1.0000 0.03600  0.15000  0.62310  Biso   1.000  H
  H480     1.0000 0.21400  0.10000  0.62310  Biso   1.000  H
  O17      1.0000 0.76200  0.37500  0.37500  Biso   1.000  O
  O18      1.0000 0.48800  0.87500  0.37500  Biso   1.000  O
  O19      1.0000 0.76200  0.87500  0.87500  Biso   1.000  O
  O20      1.0000 0.48800  0.37500  0.87500  Biso   1.000  O
  O21      1.0000 0.26200  0.37500  0.87500  Biso   1.000  O
  O22      1.0000 0.98800  0.87500  0.87500  Biso   1.000  O
  O23      1.0000 0.26200  0.87500  0.37500  Biso   1.000  O
  O24      1.0000 0.98800  0.37500  0.37500  Biso   1.000  O
  O25      1.0000 0.23800  0.62500  0.62500  Biso   1.000  O
  O26      1.0000 0.01200  0.62500  0.62500  Biso   1.000  O
  O27      1.0000 0.23800  0.12500  0.12500  Biso   1.000  O
  O28      1.0000 0.01200  0.12500  0.12500  Biso   1.000  O
  O29      1.0000 0.73800  0.62500  0.12500  Biso   1.000  O
  O30      1.0000 0.51200  0.62500  0.12500  Biso   1.000  O
  O31      1.0000 0.73800  0.12500  0.62500  Biso   1.000  O
  O32      1.0000 0.51200  0.12500  0.62500  Biso   1.000  O
  H481     1.0000 0.78740  0.38840  0.35220  Biso   1.000  H
  H482     1.0000 0.46260  0.86160  0.35220  Biso   1.000  H
  H483     1.0000 0.78740  0.86160  0.89780  Biso   1.000  H
  H484     1.0000 0.46260  0.38840  0.89780  Biso   1.000  H
  H485     1.0000 0.78740  0.88840  0.85220  Biso   1.000  H
  H486     1.0000 0.46260  0.36160  0.85220  Biso   1.000  H
  H487     1.0000 0.78740  0.36160  0.39780  Biso   1.000  H
  H488     1.0000 0.46260  0.88840  0.39780  Biso   1.000  H
  H489     1.0000 0.28740  0.38840  0.85220  Biso   1.000  H
  H490     1.0000 0.96260  0.86160  0.85220  Biso   1.000  H
  H491     1.0000 0.28740  0.86160  0.39780  Biso   1.000  H
  H492     1.0000 0.96260  0.38840  0.39780  Biso   1.000  H
  H493     1.0000 0.28740  0.88840  0.35220  Biso   1.000  H
  H494     1.0000 0.96260  0.36160  0.35220  Biso   1.000  H
  H495     1.0000 0.28740  0.36160  0.89780  Biso   1.000  H
  H496     1.0000 0.96260  0.88840  0.89780  Biso   1.000  H
  H497     1.0000 0.21260  0.61160  0.64780  Biso   1.000  H
  H498     1.0000 0.03740  0.63840  0.64780  Biso   1.000  H
  H499     1.0000 0.21260  0.63840  0.60220  Biso   1.000  H
  H500     1.0000 0.03740  0.61160  0.60220  Biso   1.000  H
  H501     1.0000 0.21260  0.11160  0.14780  Biso   1.000  H
  H502     1.0000 0.03740  0.13840  0.14780  Biso   1.000  H
  H503     1.0000 0.21260  0.13840  0.10220  Biso   1.000  H
  H504     1.0000 0.03740  0.11160  0.10220  Biso   1.000  H
  H505     1.0000 0.71260  0.61160  0.14780  Biso   1.000  H
  H506     1.0000 0.53740  0.63840  0.14780  Biso   1.000  H
  H507     1.0000 0.71260  0.63840  0.10220  Biso   1.000  H
  H508     1.0000 0.53740  0.61160  0.10220  Biso   1.000  H
  H509     1.0000 0.71260  0.11160  0.64780  Biso   1.000  H
  H510     1.0000 0.53740  0.13840  0.64780  Biso   1.000  H
  H511     1.0000 0.71260  0.13840  0.60220  Biso   1.000  H
  H512     1.0000 0.53740  0.11160  0.60220  Biso   1.000  H
  F1       1.0000 0.76141  0.67658  0.40959  Biso   1.000  F
  F2       1.0000 0.48859  0.57342  0.40959  Biso   1.000  F
  F3       1.0000 0.76141  0.57342  0.84041  Biso   1.000  F
  F4       1.0000 0.48859  0.67658  0.84041  Biso   1.000  F
  F5       1.0000 0.76141  0.17658  0.90959  Biso   1.000  F
  F6       1.0000 0.48859  0.07342  0.90959  Biso   1.000  F
  F7       1.0000 0.76141  0.07342  0.34041  Biso   1.000  F
  F8       1.0000 0.48859  0.17658  0.34041  Biso   1.000  F
  F9       1.0000 0.26141  0.67658  0.90959  Biso   1.000  F
  F10      1.0000 0.98859  0.57342  0.90959  Biso   1.000  F
  F11      1.0000 0.26141  0.57342  0.34041  Biso   1.000  F
  F12      1.0000 0.98859  0.67658  0.34041  Biso   1.000  F
  F13      1.0000 0.26141  0.17658  0.40959  Biso   1.000  F
  F14      1.0000 0.98859  0.07342  0.40959  Biso   1.000  F
  F15      1.0000 0.26141  0.07342  0.84041  Biso   1.000  F
  F16      1.0000 0.98859  0.17658  0.84041  Biso   1.000  F
  F17      1.0000 0.23859  0.32342  0.59041  Biso   1.000  F
  F18      1.0000 0.01141  0.92658  0.59041  Biso   1.000  F
  F19      1.0000 0.23859  0.92658  0.65959  Biso   1.000  F
  F20      1.0000 0.01141  0.32342  0.65959  Biso   1.000  F
  F21      1.0000 0.23859  0.82342  0.09041  Biso   1.000  F
  F22      1.0000 0.01141  0.42658  0.09041  Biso   1.000  F
  F23      1.0000 0.23859  0.42658  0.15959  Biso   1.000  F
  F24      1.0000 0.01141  0.82342  0.15959  Biso   1.000  F
  F25      1.0000 0.73859  0.32342  0.09041  Biso   1.000  F
  F26      1.0000 0.51141  0.92658  0.09041  Biso   1.000  F
  F27      1.0000 0.73859  0.92658  0.15959  Biso   1.000  F
  F28      1.0000 0.51141  0.32342  0.15959  Biso   1.000  F
  F29      1.0000 0.73859  0.82342  0.59041  Biso   1.000  F
  F30      1.0000 0.51141  0.42658  0.59041  Biso   1.000  F
  F31      1.0000 0.73859  0.42658  0.65959  Biso   1.000  F
  F32      1.0000 0.51141  0.82342  0.65959  Biso   1.000  F
  F33      1.0000 0.76253  0.56673  0.41038  Biso   1.000  F
  F34      1.0000 0.48747  0.68327  0.41038  Biso   1.000  F
  F35      1.0000 0.76253  0.68327  0.83962  Biso   1.000  F
  F36      1.0000 0.48747  0.56673  0.83962  Biso   1.000  F
  F37      1.0000 0.76253  0.06673  0.91038  Biso   1.000  F
  F38      1.0000 0.48747  0.18327  0.91038  Biso   1.000  F
  F39      1.0000 0.76253  0.18327  0.33962  Biso   1.000  F
  F40      1.0000 0.48747  0.06673  0.33962  Biso   1.000  F
  F41      1.0000 0.26253  0.56673  0.91038  Biso   1.000  F
  F42      1.0000 0.98747  0.68327  0.91038  Biso   1.000  F
  F43      1.0000 0.26253  0.68327  0.33962  Biso   1.000  F
  F44      1.0000 0.98747  0.56673  0.33962  Biso   1.000  F
  F45      1.0000 0.26253  0.06673  0.41038  Biso   1.000  F
  F46      1.0000 0.98747  0.18327  0.41038  Biso   1.000  F
  F47      1.0000 0.26253  0.18327  0.83962  Biso   1.000  F
  F48      1.0000 0.98747  0.06673  0.83962  Biso   1.000  F
  F49      1.0000 0.23747  0.43327  0.58962  Biso   1.000  F
  F50      1.0000 0.01253  0.81673  0.58962  Biso   1.000  F
  F51      1.0000 0.23747  0.81673  0.66038  Biso   1.000  F
  F52      1.0000 0.01253  0.43327  0.66038  Biso   1.000  F
  F53      1.0000 0.23747  0.93327  0.08962  Biso   1.000  F
  F54      1.0000 0.01253  0.31673  0.08962  Biso   1.000  F
  F55      1.0000 0.23747  0.31673  0.16038  Biso   1.000  F
  F56      1.0000 0.01253  0.93327  0.16038  Biso   1.000  F
  F57      1.0000 0.73747  0.43327  0.08962  Biso   1.000  F
  F58      1.0000 0.51253  0.81673  0.08962  Biso   1.000  F
  F59      1.0000 0.73747  0.81673  0.16038  Biso   1.000  F
  F60      1.0000 0.51253  0.43327  0.16038  Biso   1.000  F
  F61      1.0000 0.73747  0.93327  0.58962  Biso   1.000  F
  F62      1.0000 0.51253  0.31673  0.58962  Biso   1.000  F
  F63      1.0000 0.73747  0.31673  0.66038  Biso   1.000  F
  F64      1.0000 0.51253  0.93327  0.66038  Biso   1.000  F
  C321     1.0000 0.87500  0.74770  0.37500  Biso   1.000  C
  C322     1.0000 0.37500  0.50230  0.37500  Biso   1.000  C
  C323     1.0000 0.87500  0.50230  0.87500  Biso   1.000  C
  C324     1.0000 0.37500  0.74770  0.87500  Biso   1.000  C
  C325     1.0000 0.87500  0.24770  0.87500  Biso   1.000  C
  C326     1.0000 0.37500  0.00230  0.87500  Biso   1.000  C
  C327     1.0000 0.87500  0.00230  0.37500  Biso   1.000  C
  C328     1.0000 0.37500  0.24770  0.37500  Biso   1.000  C
  C329     1.0000 0.12500  0.25230  0.62500  Biso   1.000  C
  C330     1.0000 0.12500  0.99770  0.62500  Biso   1.000  C
  C331     1.0000 0.12500  0.75230  0.12500  Biso   1.000  C
  C332     1.0000 0.12500  0.49770  0.12500  Biso   1.000  C
  C333     1.0000 0.62500  0.25230  0.12500  Biso   1.000  C
  C334     1.0000 0.62500  0.99770  0.12500  Biso   1.000  C
  C335     1.0000 0.62500  0.75230  0.62500  Biso   1.000  C
  C336     1.0000 0.62500  0.49770  0.62500  Biso   1.000  C
  C337     1.0000 0.87500  0.68300  0.37500  Biso   1.000  C
  C338     1.0000 0.37500  0.56700  0.37500  Biso   1.000  C
  C339     1.0000 0.87500  0.56700  0.87500  Biso   1.000  C
  C340     1.0000 0.37500  0.68300  0.87500  Biso   1.000  C
  C341     1.0000 0.87500  0.18300  0.87500  Biso   1.000  C
  C342     1.0000 0.37500  0.06700  0.87500  Biso   1.000  C
  C343     1.0000 0.87500  0.06700  0.37500  Biso   1.000  C
  C344     1.0000 0.37500  0.18300  0.37500  Biso   1.000  C
  C345     1.0000 0.12500  0.31700  0.62500  Biso   1.000  C
  C346     1.0000 0.12500  0.93300  0.62500  Biso   1.000  C
  C347     1.0000 0.12500  0.81700  0.12500  Biso   1.000  C
  C348     1.0000 0.12500  0.43300  0.12500  Biso   1.000  C
  C349     1.0000 0.62500  0.31700  0.12500  Biso   1.000  C
  C350     1.0000 0.62500  0.93300  0.12500  Biso   1.000  C
  C351     1.0000 0.62500  0.81700  0.62500  Biso   1.000  C
  C352     1.0000 0.62500  0.43300  0.62500  Biso   1.000  C
  C353     1.0000 0.81920  0.65160  0.39160  Biso   1.000  C
  C354     1.0000 0.43080  0.59840  0.39160  Biso   1.000  C
  C355     1.0000 0.81920  0.59840  0.85840  Biso   1.000  C
  C356     1.0000 0.43080  0.65160  0.85840  Biso   1.000  C
  C357     1.0000 0.81920  0.15160  0.89160  Biso   1.000  C
  C358     1.0000 0.43080  0.09840  0.89160  Biso   1.000  C
  C359     1.0000 0.81920  0.09840  0.35840  Biso   1.000  C
  C360     1.0000 0.43080  0.15160  0.35840  Biso   1.000  C
  C361     1.0000 0.31920  0.65160  0.89160  Biso   1.000  C
  C362     1.0000 0.93080  0.59840  0.89160  Biso   1.000  C
  C363     1.0000 0.31920  0.59840  0.35840  Biso   1.000  C
  C364     1.0000 0.93080  0.65160  0.35840  Biso   1.000  C
  C365     1.0000 0.31920  0.15160  0.39160  Biso   1.000  C
  C366     1.0000 0.93080  0.09840  0.39160  Biso   1.000  C
  C367     1.0000 0.31920  0.09840  0.85840  Biso   1.000  C
  C368     1.0000 0.93080  0.15160  0.85840  Biso   1.000  C
  C369     1.0000 0.18080  0.34840  0.60840  Biso   1.000  C
  C370     1.0000 0.06920  0.90160  0.60840  Biso   1.000  C
  C371     1.0000 0.18080  0.90160  0.64160  Biso   1.000  C
  C372     1.0000 0.06920  0.34840  0.64160  Biso   1.000  C
  C373     1.0000 0.18080  0.84840  0.10840  Biso   1.000  C
  C374     1.0000 0.06920  0.40160  0.10840  Biso   1.000  C
  C375     1.0000 0.18080  0.40160  0.14160  Biso   1.000  C
  C376     1.0000 0.06920  0.84840  0.14160  Biso   1.000  C
  C377     1.0000 0.68080  0.34840  0.10840  Biso   1.000  C
  C378     1.0000 0.56920  0.90160  0.10840  Biso   1.000  C
  C379     1.0000 0.68080  0.90160  0.14160  Biso   1.000  C
  C380     1.0000 0.56920  0.34840  0.14160  Biso   1.000  C
  C381     1.0000 0.68080  0.84840  0.60840  Biso   1.000  C
  C382     1.0000 0.56920  0.40160  0.60840  Biso   1.000  C
  C383     1.0000 0.68080  0.40160  0.64160  Biso   1.000  C
  C384     1.0000 0.56920  0.84840  0.64160  Biso   1.000  C
  C385     1.0000 0.81920  0.59350  0.39196  Biso   1.000  C
  C386     1.0000 0.43080  0.65650  0.39196  Biso   1.000  C
  C387     1.0000 0.81920  0.65650  0.85804  Biso   1.000  C
  C388     1.0000 0.43080  0.59350  0.85804  Biso   1.000  C
  C389     1.0000 0.81920  0.09350  0.89196  Biso   1.000  C
  C390     1.0000 0.43080  0.15650  0.89196  Biso   1.000  C
  C391     1.0000 0.81920  0.15650  0.35804  Biso   1.000  C
  C392     1.0000 0.43080  0.09350  0.35804  Biso   1.000  C
  C393     1.0000 0.31920  0.59350  0.89196  Biso   1.000  C
  C394     1.0000 0.93080  0.65650  0.89196  Biso   1.000  C
  C395     1.0000 0.31920  0.65650  0.35804  Biso   1.000  C
  C396     1.0000 0.93080  0.59350  0.35804  Biso   1.000  C
  C397     1.0000 0.31920  0.09350  0.39196  Biso   1.000  C
  C398     1.0000 0.93080  0.15650  0.39196  Biso   1.000  C
  C399     1.0000 0.31920  0.15650  0.85804  Biso   1.000  C
  C400     1.0000 0.93080  0.09350  0.85804  Biso   1.000  C
  C401     1.0000 0.18080  0.40650  0.60804  Biso   1.000  C
  C402     1.0000 0.06920  0.84350  0.60804  Biso   1.000  C
  C403     1.0000 0.18080  0.84350  0.64196  Biso   1.000  C
  C404     1.0000 0.06920  0.40650  0.64196  Biso   1.000  C
  C405     1.0000 0.18080  0.90650  0.10804  Biso   1.000  C
  C406     1.0000 0.06920  0.34350  0.10804  Biso   1.000  C
  C407     1.0000 0.18080  0.34350  0.14196  Biso   1.000  C
  C408     1.0000 0.06920  0.90650  0.14196  Biso   1.000  C
  C409     1.0000 0.68080  0.40650  0.10804  Biso   1.000  C
  C410     1.0000 0.56920  0.84350  0.10804  Biso   1.000  C
  C411     1.0000 0.68080  0.84350  0.14196  Biso   1.000  C
  C412     1.0000 0.56920  0.40650  0.14196  Biso   1.000  C
  C413     1.0000 0.68080  0.90650  0.60804  Biso   1.000  C
  C414     1.0000 0.56920  0.34350  0.60804  Biso   1.000  C
  C415     1.0000 0.68080  0.34350  0.64196  Biso   1.000  C
  C416     1.0000 0.56920  0.90650  0.64196  Biso   1.000  C
  C417     1.0000 0.87500  0.56240  0.37500  Biso   1.000  C
  C418     1.0000 0.37500  0.68760  0.37500  Biso   1.000  C
  C419     1.0000 0.87500  0.68760  0.87500  Biso   1.000  C
  C420     1.0000 0.37500  0.56240  0.87500  Biso   1.000  C
  C421     1.0000 0.87500  0.06240  0.87500  Biso   1.000  C
  C422     1.0000 0.37500  0.18760  0.87500  Biso   1.000  C
  C423     1.0000 0.87500  0.18760  0.37500  Biso   1.000  C
  C424     1.0000 0.37500  0.06240  0.37500  Biso   1.000  C
  C425     1.0000 0.12500  0.43760  0.62500  Biso   1.000  C
  C426     1.0000 0.12500  0.81240  0.62500  Biso   1.000  C
  C427     1.0000 0.12500  0.93760  0.12500  Biso   1.000  C
  C428     1.0000 0.12500  0.31240  0.12500  Biso   1.000  C
  C429     1.0000 0.62500  0.43760  0.12500  Biso   1.000  C
  C430     1.0000 0.62500  0.81240  0.12500  Biso   1.000  C
  C431     1.0000 0.62500  0.93760  0.62500  Biso   1.000  C
  C432     1.0000 0.62500  0.31240  0.62500  Biso   1.000  C
  C433     1.0000 0.87500  0.49840  0.37500  Biso   1.000  C
  C434     1.0000 0.37500  0.75160  0.37500  Biso   1.000  C
  C435     1.0000 0.87500  0.75160  0.87500  Biso   1.000  C
  C436     1.0000 0.37500  0.49840  0.87500  Biso   1.000  C
  C437     1.0000 0.87500  0.99840  0.87500  Biso   1.000  C
  C438     1.0000 0.37500  0.25160  0.87500  Biso   1.000  C
  C439     1.0000 0.87500  0.25160  0.37500  Biso   1.000  C
  C440     1.0000 0.37500  0.99840  0.37500  Biso   1.000  C
  C441     1.0000 0.12500  0.50160  0.62500  Biso   1.000  C
  C442     1.0000 0.12500  0.74840  0.62500  Biso   1.000  C
  C443     1.0000 0.12500  0.00160  0.12500  Biso   1.000  C
  C444     1.0000 0.12500  0.24840  0.12500  Biso   1.000  C
  C445     1.0000 0.62500  0.50160  0.12500  Biso   1.000  C
  C446     1.0000 0.62500  0.74840  0.12500  Biso   1.000  C
  C447     1.0000 0.62500  0.00160  0.62500  Biso   1.000  C
  C448     1.0000 0.62500  0.24840  0.62500  Biso   1.000  C
  O33      1.0000 0.82870  0.47561  0.35000  Biso   1.000  O
  O34      1.0000 0.42130  0.77439  0.35000  Biso   1.000  O
  O35      1.0000 0.82870  0.77439  0.90000  Biso   1.000  O
  O36      1.0000 0.42130  0.47561  0.90000  Biso   1.000  O
  O37      1.0000 0.82870  0.97561  0.85000  Biso   1.000  O
  O38      1.0000 0.42130  0.27439  0.85000  Biso   1.000  O
  O39      1.0000 0.82870  0.27439  0.40000  Biso   1.000  O
  O40      1.0000 0.42130  0.97561  0.40000  Biso   1.000  O
  O41      1.0000 0.32870  0.47561  0.85000  Biso   1.000  O
  O42      1.0000 0.92130  0.77439  0.85000  Biso   1.000  O
  O43      1.0000 0.32870  0.77439  0.40000  Biso   1.000  O
  O44      1.0000 0.92130  0.47561  0.40000  Biso   1.000  O
  O45      1.0000 0.32870  0.97561  0.35000  Biso   1.000  O
  O46      1.0000 0.92130  0.27439  0.35000  Biso   1.000  O
  O47      1.0000 0.32870  0.27439  0.90000  Biso   1.000  O
  O48      1.0000 0.92130  0.97561  0.90000  Biso   1.000  O
  O49      1.0000 0.17130  0.52439  0.65000  Biso   1.000  O
  O50      1.0000 0.07870  0.72561  0.65000  Biso   1.000  O
  O51      1.0000 0.17130  0.72561  0.60000  Biso   1.000  O
  O52      1.0000 0.07870  0.52439  0.60000  Biso   1.000  O
  O53      1.0000 0.17130  0.02439  0.15000  Biso   1.000  O
  O54      1.0000 0.07870  0.22561  0.15000  Biso   1.000  O
  O55      1.0000 0.17130  0.22561  0.10000  Biso   1.000  O
  O56      1.0000 0.07870  0.02439  0.10000  Biso   1.000  O
  O57      1.0000 0.67130  0.52439  0.15000  Biso   1.000  O
  O58      1.0000 0.57870  0.72561  0.15000  Biso   1.000  O
  O59      1.0000 0.67130  0.72561  0.10000  Biso   1.000  O
  O60      1.0000 0.57870  0.52439  0.10000  Biso   1.000  O
  O61      1.0000 0.67130  0.02439  0.65000  Biso   1.000  O
  O62      1.0000 0.57870  0.22561  0.65000  Biso   1.000  O
  O63      1.0000 0.67130  0.22561  0.60000  Biso   1.000  O
  O64      1.0000 0.57870  0.02439  0.60000  Biso   1.000  O
  O65      1.0000 0.81830  0.76988  0.36499  Biso   1.000  O
  O66      1.0000 0.43170  0.48012  0.36499  Biso   1.000  O
  O67      1.0000 0.81830  0.48012  0.88501  Biso   1.000  O
  O68      1.0000 0.43170  0.76988  0.88501  Biso   1.000  O
  O69      1.0000 0.81830  0.26988  0.86499  Biso   1.000  O
  O70      1.0000 0.43170  0.98012  0.86499  Biso   1.000  O
  O71      1.0000 0.81830  0.98012  0.38501  Biso   1.000  O
  O72      1.0000 0.43170  0.26988  0.38501  Biso   1.000  O
  O73      1.0000 0.31830  0.76988  0.86499  Biso   1.000  O
  O74      1.0000 0.93170  0.48012  0.86499  Biso   1.000  O
  O75      1.0000 0.31830  0.48012  0.38501  Biso   1.000  O
  O76      1.0000 0.93170  0.76988  0.38501  Biso   1.000  O
  O77      1.0000 0.31830  0.26988  0.36499  Biso   1.000  O
  O78      1.0000 0.93170  0.98012  0.36499  Biso   1.000  O
  O79      1.0000 0.31830  0.98012  0.88501  Biso   1.000  O
  O80      1.0000 0.93170  0.26988  0.88501  Biso   1.000  O
  O81      1.0000 0.18170  0.23012  0.63501  Biso   1.000  O
  O82      1.0000 0.06830  0.01988  0.63501  Biso   1.000  O
  O83      1.0000 0.18170  0.01988  0.61499  Biso   1.000  O
  O84      1.0000 0.06830  0.23012  0.61499  Biso   1.000  O
  O85      1.0000 0.18170  0.73012  0.13501  Biso   1.000  O
  O86      1.0000 0.06830  0.51988  0.13501  Biso   1.000  O
  O87      1.0000 0.18170  0.51988  0.11499  Biso   1.000  O
  O88      1.0000 0.06830  0.73012  0.11499  Biso   1.000  O
  O89      1.0000 0.68170  0.23012  0.13501  Biso   1.000  O
  O90      1.0000 0.56830  0.01988  0.13501  Biso   1.000  O
  O91      1.0000 0.68170  0.01988  0.11499  Biso   1.000  O
  O92      1.0000 0.56830  0.23012  0.11499  Biso   1.000  O
  O93      1.0000 0.68170  0.73012  0.63501  Biso   1.000  O
  O94      1.0000 0.56830  0.51988  0.63501  Biso   1.000  O
  O95      1.0000 0.68170  0.51988  0.61499  Biso   1.000  O
  O96      1.0000 0.56830  0.73012  0.61499  Biso   1.000  O
