data_image0
_cell_length_a       36.332
_cell_length_b       36.332
_cell_length_c       15.208
_cell_angle_alpha    90
_cell_angle_beta     90
_cell_angle_gamma    90

_symmetry_space_group_name_H-M    "P 1"
_symmetry_int_tables_number       1

loop_
  _symmetry_equiv_pos_as_xyz
  'x, y, z'

loop_
  _atom_site_label
  _atom_site_occupancy
  _atom_site_fract_x
  _atom_site_fract_y
  _atom_site_fract_z
  _atom_site_thermal_displace_type
  _atom_site_B_iso_or_equiv
  _atom_site_type_symbol
  C1       1.0000 0.06980  0.35210  0.22260  Biso   1.000  C
  C2       1.0000 0.35210  0.06980  0.77740  Biso   1.000  C
  C3       1.0000 0.35210  0.93020  0.22260  Biso   1.000  C
  C4       1.0000 0.64790  0.06980  0.22260  Biso   1.000  C
  C5       1.0000 0.06980  0.64790  0.77740  Biso   1.000  C
  C6       1.0000 0.93020  0.64790  0.22260  Biso   1.000  C
  C7       1.0000 0.93020  0.35210  0.77740  Biso   1.000  C
  C8       1.0000 0.64790  0.93020  0.77740  Biso   1.000  C
  C9       1.0000 0.93020  0.64790  0.77740  Biso   1.000  C
  C10      1.0000 0.64790  0.93020  0.22260  Biso   1.000  C
  C11      1.0000 0.64790  0.06980  0.77740  Biso   1.000  C
  C12      1.0000 0.35210  0.93020  0.77740  Biso   1.000  C
  C13      1.0000 0.93020  0.35210  0.22260  Biso   1.000  C
  C14      1.0000 0.06980  0.35210  0.77740  Biso   1.000  C
  C15      1.0000 0.06980  0.64790  0.22260  Biso   1.000  C
  C16      1.0000 0.35210  0.06980  0.22260  Biso   1.000  C
  C17      1.0000 0.07370  0.32680  0.30160  Biso   1.000  C
  C18      1.0000 0.32680  0.07370  0.69840  Biso   1.000  C
  C19      1.0000 0.32680  0.92630  0.30160  Biso   1.000  C
  C20      1.0000 0.67320  0.07370  0.30160  Biso   1.000  C
  C21      1.0000 0.07370  0.67320  0.69840  Biso   1.000  C
  C22      1.0000 0.92630  0.67320  0.30160  Biso   1.000  C
  C23      1.0000 0.92630  0.32680  0.69840  Biso   1.000  C
  C24      1.0000 0.67320  0.92630  0.69840  Biso   1.000  C
  C25      1.0000 0.92630  0.67320  0.69840  Biso   1.000  C
  C26      1.0000 0.67320  0.92630  0.30160  Biso   1.000  C
  C27      1.0000 0.67320  0.07370  0.69840  Biso   1.000  C
  C28      1.0000 0.32680  0.92630  0.69840  Biso   1.000  C
  C29      1.0000 0.92630  0.32680  0.30160  Biso   1.000  C
  C30      1.0000 0.07370  0.32680  0.69840  Biso   1.000  C
  C31      1.0000 0.07370  0.67320  0.30160  Biso   1.000  C
  C32      1.0000 0.32680  0.07370  0.30160  Biso   1.000  C
  C33      1.0000 0.14570  0.42570  0.30380  Biso   1.000  C
  C34      1.0000 0.42570  0.14570  0.69620  Biso   1.000  C
  C35      1.0000 0.42570  0.85430  0.30380  Biso   1.000  C
  C36      1.0000 0.57430  0.14570  0.30380  Biso   1.000  C
  C37      1.0000 0.14570  0.57430  0.69620  Biso   1.000  C
  C38      1.0000 0.85430  0.57430  0.30380  Biso   1.000  C
  C39      1.0000 0.85430  0.42570  0.69620  Biso   1.000  C
  C40      1.0000 0.57430  0.85430  0.69620  Biso   1.000  C
  C41      1.0000 0.85430  0.57430  0.69620  Biso   1.000  C
  C42      1.0000 0.57430  0.85430  0.30380  Biso   1.000  C
  C43      1.0000 0.57430  0.14570  0.69620  Biso   1.000  C
  C44      1.0000 0.42570  0.85430  0.69620  Biso   1.000  C
  C45      1.0000 0.85430  0.42570  0.30380  Biso   1.000  C
  C46      1.0000 0.14570  0.42570  0.69620  Biso   1.000  C
  C47      1.0000 0.14570  0.57430  0.30380  Biso   1.000  C
  C48      1.0000 0.42570  0.14570  0.30380  Biso   1.000  C
  C49      1.0000 0.16320  0.43050  0.21350  Biso   1.000  C
  C50      1.0000 0.43050  0.16320  0.78650  Biso   1.000  C
  C51      1.0000 0.43050  0.83680  0.21350  Biso   1.000  C
  C52      1.0000 0.56950  0.16320  0.21350  Biso   1.000  C
  C53      1.0000 0.16320  0.56950  0.78650  Biso   1.000  C
  C54      1.0000 0.83680  0.56950  0.21350  Biso   1.000  C
  C55      1.0000 0.83680  0.43050  0.78650  Biso   1.000  C
  C56      1.0000 0.56950  0.83680  0.78650  Biso   1.000  C
  C57      1.0000 0.83680  0.56950  0.78650  Biso   1.000  C
  C58      1.0000 0.56950  0.83680  0.21350  Biso   1.000  C
  C59      1.0000 0.56950  0.16320  0.78650  Biso   1.000  C
  C60      1.0000 0.43050  0.83680  0.78650  Biso   1.000  C
  C61      1.0000 0.83680  0.43050  0.21350  Biso   1.000  C
  C62      1.0000 0.16320  0.43050  0.78650  Biso   1.000  C
  C63      1.0000 0.16320  0.56950  0.21350  Biso   1.000  C
  C64      1.0000 0.43050  0.16320  0.21350  Biso   1.000  C
  C65      1.0000 0.20600  0.30490  0.27970  Biso   1.000  C
  C66      1.0000 0.30490  0.20600  0.72030  Biso   1.000  C
  C67      1.0000 0.30490  0.79400  0.27970  Biso   1.000  C
  C68      1.0000 0.69510  0.20600  0.27970  Biso   1.000  C
  C69      1.0000 0.20600  0.69510  0.72030  Biso   1.000  C
  C70      1.0000 0.79400  0.69510  0.27970  Biso   1.000  C
  C71      1.0000 0.79400  0.30490  0.72030  Biso   1.000  C
  C72      1.0000 0.69510  0.79400  0.72030  Biso   1.000  C
  C73      1.0000 0.79400  0.69510  0.72030  Biso   1.000  C
  C74      1.0000 0.69510  0.79400  0.27970  Biso   1.000  C
  C75      1.0000 0.69510  0.20600  0.72030  Biso   1.000  C
  C76      1.0000 0.30490  0.79400  0.72030  Biso   1.000  C
  C77      1.0000 0.79400  0.30490  0.27970  Biso   1.000  C
  C78      1.0000 0.20600  0.30490  0.72030  Biso   1.000  C
  C79      1.0000 0.20600  0.69510  0.27970  Biso   1.000  C
  C80      1.0000 0.30490  0.20600  0.27970  Biso   1.000  C
  C81      1.0000 0.18760  0.29170  0.19230  Biso   1.000  C
  C82      1.0000 0.29170  0.18760  0.80770  Biso   1.000  C
  C83      1.0000 0.29170  0.81240  0.19230  Biso   1.000  C
  C84      1.0000 0.70830  0.18760  0.19230  Biso   1.000  C
  C85      1.0000 0.18760  0.70830  0.80770  Biso   1.000  C
  C86      1.0000 0.81240  0.70830  0.19230  Biso   1.000  C
  C87      1.0000 0.81240  0.29170  0.80770  Biso   1.000  C
  C88      1.0000 0.70830  0.81240  0.80770  Biso   1.000  C
  C89      1.0000 0.81240  0.70830  0.80770  Biso   1.000  C
  C90      1.0000 0.70830  0.81240  0.19230  Biso   1.000  C
  C91      1.0000 0.70830  0.18760  0.80770  Biso   1.000  C
  C92      1.0000 0.29170  0.81240  0.80770  Biso   1.000  C
  C93      1.0000 0.81240  0.29170  0.19230  Biso   1.000  C
  C94      1.0000 0.18760  0.29170  0.80770  Biso   1.000  C
  C95      1.0000 0.18760  0.70830  0.19230  Biso   1.000  C
  C96      1.0000 0.29170  0.18760  0.19230  Biso   1.000  C
  C97      1.0000 0.04560  0.29730  0.42180  Biso   1.000  C
  C98      1.0000 0.29730  0.04560  0.57820  Biso   1.000  C
  C99      1.0000 0.29730  0.95440  0.42180  Biso   1.000  C
  C100     1.0000 0.70270  0.04560  0.42180  Biso   1.000  C
  C101     1.0000 0.04560  0.70270  0.57820  Biso   1.000  C
  C102     1.0000 0.95440  0.70270  0.42180  Biso   1.000  C
  C103     1.0000 0.95440  0.29730  0.57820  Biso   1.000  C
  C104     1.0000 0.70270  0.95440  0.57820  Biso   1.000  C
  C105     1.0000 0.95440  0.70270  0.57820  Biso   1.000  C
  C106     1.0000 0.70270  0.95440  0.42180  Biso   1.000  C
  C107     1.0000 0.70270  0.04560  0.57820  Biso   1.000  C
  C108     1.0000 0.29730  0.95440  0.57820  Biso   1.000  C
  C109     1.0000 0.95440  0.29730  0.42180  Biso   1.000  C
  C110     1.0000 0.04560  0.29730  0.57820  Biso   1.000  C
  C111     1.0000 0.04560  0.70270  0.42180  Biso   1.000  C
  C112     1.0000 0.29730  0.04560  0.42180  Biso   1.000  C
  C113     1.0000 0.04660  0.31680  0.50000  Biso   1.000  C
  C114     1.0000 0.31680  0.04660  0.50000  Biso   1.000  C
  C115     1.0000 0.31680  0.95340  0.50000  Biso   1.000  C
  C116     1.0000 0.68320  0.04660  0.50000  Biso   1.000  C
  C117     1.0000 0.04660  0.68320  0.50000  Biso   1.000  C
  C118     1.0000 0.95340  0.68320  0.50000  Biso   1.000  C
  C119     1.0000 0.95340  0.31680  0.50000  Biso   1.000  C
  C120     1.0000 0.68320  0.95340  0.50000  Biso   1.000  C
  C121     1.0000 0.04730  0.25850  0.42010  Biso   1.000  C
  C122     1.0000 0.25850  0.04730  0.57990  Biso   1.000  C
  C123     1.0000 0.25850  0.95270  0.42010  Biso   1.000  C
  C124     1.0000 0.74150  0.04730  0.42010  Biso   1.000  C
  C125     1.0000 0.04730  0.74150  0.57990  Biso   1.000  C
  C126     1.0000 0.95270  0.74150  0.42010  Biso   1.000  C
  C127     1.0000 0.95270  0.25850  0.57990  Biso   1.000  C
  C128     1.0000 0.74150  0.95270  0.57990  Biso   1.000  C
  C129     1.0000 0.95270  0.74150  0.57990  Biso   1.000  C
  C130     1.0000 0.74150  0.95270  0.42010  Biso   1.000  C
  C131     1.0000 0.74150  0.04730  0.57990  Biso   1.000  C
  C132     1.0000 0.25850  0.95270  0.57990  Biso   1.000  C
  C133     1.0000 0.95270  0.25850  0.42010  Biso   1.000  C
  C134     1.0000 0.04730  0.25850  0.57990  Biso   1.000  C
  C135     1.0000 0.04730  0.74150  0.42010  Biso   1.000  C
  C136     1.0000 0.25850  0.04730  0.42010  Biso   1.000  C
  C137     1.0000 0.05000  0.23990  0.50000  Biso   1.000  C
  C138     1.0000 0.23990  0.05000  0.50000  Biso   1.000  C
  C139     1.0000 0.23990  0.95000  0.50000  Biso   1.000  C
  C140     1.0000 0.76010  0.05000  0.50000  Biso   1.000  C
  C141     1.0000 0.05000  0.76010  0.50000  Biso   1.000  C
  C142     1.0000 0.95000  0.76010  0.50000  Biso   1.000  C
  C143     1.0000 0.95000  0.23990  0.50000  Biso   1.000  C
  C144     1.0000 0.76010  0.95000  0.50000  Biso   1.000  C
  H1       1.0000 0.05350  0.21450  0.50000  Biso   1.000  H
  H2       1.0000 0.21450  0.05350  0.50000  Biso   1.000  H
  H3       1.0000 0.21450  0.94650  0.50000  Biso   1.000  H
  H4       1.0000 0.78550  0.05350  0.50000  Biso   1.000  H
  H5       1.0000 0.05350  0.78550  0.50000  Biso   1.000  H
  H6       1.0000 0.94650  0.78550  0.50000  Biso   1.000  H
  H7       1.0000 0.94650  0.21450  0.50000  Biso   1.000  H
  H8       1.0000 0.78550  0.94650  0.50000  Biso   1.000  H
  C145     1.0000 0.11610  0.45460  0.42240  Biso   1.000  C
  C146     1.0000 0.45460  0.11610  0.57760  Biso   1.000  C
  C147     1.0000 0.45460  0.88390  0.42240  Biso   1.000  C
  C148     1.0000 0.54540  0.11610  0.42240  Biso   1.000  C
  C149     1.0000 0.11610  0.54540  0.57760  Biso   1.000  C
  C150     1.0000 0.88390  0.54540  0.42240  Biso   1.000  C
  C151     1.0000 0.88390  0.45460  0.57760  Biso   1.000  C
  C152     1.0000 0.54540  0.88390  0.57760  Biso   1.000  C
  C153     1.0000 0.88390  0.54540  0.57760  Biso   1.000  C
  C154     1.0000 0.54540  0.88390  0.42240  Biso   1.000  C
  C155     1.0000 0.54540  0.11610  0.57760  Biso   1.000  C
  C156     1.0000 0.45460  0.88390  0.57760  Biso   1.000  C
  C157     1.0000 0.88390  0.45460  0.42240  Biso   1.000  C
  C158     1.0000 0.11610  0.45460  0.57760  Biso   1.000  C
  C159     1.0000 0.11610  0.54540  0.42240  Biso   1.000  C
  C160     1.0000 0.45460  0.11610  0.42240  Biso   1.000  C
  C161     1.0000 0.13730  0.45560  0.50000  Biso   1.000  C
  C162     1.0000 0.45560  0.13730  0.50000  Biso   1.000  C
  C163     1.0000 0.45560  0.86270  0.50000  Biso   1.000  C
  C164     1.0000 0.54440  0.13730  0.50000  Biso   1.000  C
  C165     1.0000 0.13730  0.54440  0.50000  Biso   1.000  C
  C166     1.0000 0.86270  0.54440  0.50000  Biso   1.000  C
  C167     1.0000 0.86270  0.45560  0.50000  Biso   1.000  C
  C168     1.0000 0.54440  0.86270  0.50000  Biso   1.000  C
  C169     1.0000 0.17830  0.45420  0.50000  Biso   1.000  C
  C170     1.0000 0.45420  0.17830  0.50000  Biso   1.000  C
  C171     1.0000 0.45420  0.82170  0.50000  Biso   1.000  C
  C172     1.0000 0.54580  0.17830  0.50000  Biso   1.000  C
  C173     1.0000 0.17830  0.54580  0.50000  Biso   1.000  C
  C174     1.0000 0.82170  0.54580  0.50000  Biso   1.000  C
  C175     1.0000 0.82170  0.45420  0.50000  Biso   1.000  C
  C176     1.0000 0.54580  0.82170  0.50000  Biso   1.000  C
  C177     1.0000 0.18500  0.24900  0.07840  Biso   1.000  C
  C178     1.0000 0.24900  0.18500  0.92160  Biso   1.000  C
  C179     1.0000 0.24900  0.81500  0.07840  Biso   1.000  C
  C180     1.0000 0.75100  0.18500  0.07840  Biso   1.000  C
  C181     1.0000 0.18500  0.75100  0.92160  Biso   1.000  C
  C182     1.0000 0.81500  0.75100  0.07840  Biso   1.000  C
  C183     1.0000 0.81500  0.24900  0.92160  Biso   1.000  C
  C184     1.0000 0.75100  0.81500  0.92160  Biso   1.000  C
  C185     1.0000 0.81500  0.75100  0.92160  Biso   1.000  C
  C186     1.0000 0.75100  0.81500  0.07840  Biso   1.000  C
  C187     1.0000 0.75100  0.18500  0.92160  Biso   1.000  C
  C188     1.0000 0.24900  0.81500  0.92160  Biso   1.000  C
  C189     1.0000 0.81500  0.24900  0.07840  Biso   1.000  C
  C190     1.0000 0.18500  0.24900  0.92160  Biso   1.000  C
  C191     1.0000 0.18500  0.75100  0.07840  Biso   1.000  C
  C192     1.0000 0.24900  0.18500  0.07840  Biso   1.000  C
  C193     1.0000 0.19980  0.26320  0.00000  Biso   1.000  C
  C194     1.0000 0.26320  0.19980  0.00000  Biso   1.000  C
  C195     1.0000 0.26320  0.80020  0.00000  Biso   1.000  C
  C196     1.0000 0.73680  0.19980  0.00000  Biso   1.000  C
  C197     1.0000 0.19980  0.73680  0.00000  Biso   1.000  C
  C198     1.0000 0.80020  0.73680  0.00000  Biso   1.000  C
  C199     1.0000 0.80020  0.26320  0.00000  Biso   1.000  C
  C200     1.0000 0.73680  0.80020  0.00000  Biso   1.000  C
  C201     1.0000 0.22840  0.29210  0.00000  Biso   1.000  C
  C202     1.0000 0.29210  0.22840  0.00000  Biso   1.000  C
  C203     1.0000 0.29210  0.77160  0.00000  Biso   1.000  C
  C204     1.0000 0.70790  0.22840  0.00000  Biso   1.000  C
  C205     1.0000 0.22840  0.70790  0.00000  Biso   1.000  C
  C206     1.0000 0.77160  0.70790  0.00000  Biso   1.000  C
  C207     1.0000 0.77160  0.29210  0.00000  Biso   1.000  C
  C208     1.0000 0.70790  0.77160  0.00000  Biso   1.000  C
  C209     1.0000 0.15720  0.22660  0.07930  Biso   1.000  C
  C210     1.0000 0.22660  0.15720  0.92070  Biso   1.000  C
  C211     1.0000 0.22660  0.84280  0.07930  Biso   1.000  C
  C212     1.0000 0.77340  0.15720  0.07930  Biso   1.000  C
  C213     1.0000 0.15720  0.77340  0.92070  Biso   1.000  C
  C214     1.0000 0.84280  0.77340  0.07930  Biso   1.000  C
  C215     1.0000 0.84280  0.22660  0.92070  Biso   1.000  C
  C216     1.0000 0.77340  0.84280  0.92070  Biso   1.000  C
  C217     1.0000 0.84280  0.77340  0.92070  Biso   1.000  C
  C218     1.0000 0.77340  0.84280  0.07930  Biso   1.000  C
  C219     1.0000 0.77340  0.15720  0.92070  Biso   1.000  C
  C220     1.0000 0.22660  0.84280  0.92070  Biso   1.000  C
  C221     1.0000 0.84280  0.22660  0.07930  Biso   1.000  C
  C222     1.0000 0.15720  0.22660  0.92070  Biso   1.000  C
  C223     1.0000 0.15720  0.77340  0.07930  Biso   1.000  C
  C224     1.0000 0.22660  0.15720  0.07930  Biso   1.000  C
  C225     1.0000 0.14240  0.21170  0.00000  Biso   1.000  C
  C226     1.0000 0.21170  0.14240  0.00000  Biso   1.000  C
  C227     1.0000 0.21170  0.85760  0.00000  Biso   1.000  C
  C228     1.0000 0.78830  0.14240  0.00000  Biso   1.000  C
  C229     1.0000 0.14240  0.78830  0.00000  Biso   1.000  C
  C230     1.0000 0.85760  0.78830  0.00000  Biso   1.000  C
  C231     1.0000 0.85760  0.21170  0.00000  Biso   1.000  C
  C232     1.0000 0.78830  0.85760  0.00000  Biso   1.000  C
  H9       1.0000 0.12430  0.19360  0.00000  Biso   1.000  H
  H10      1.0000 0.19360  0.12430  0.00000  Biso   1.000  H
  H11      1.0000 0.19360  0.87570  0.00000  Biso   1.000  H
  H12      1.0000 0.80640  0.12430  0.00000  Biso   1.000  H
  H13      1.0000 0.12430  0.80640  0.00000  Biso   1.000  H
  H14      1.0000 0.87570  0.80640  0.00000  Biso   1.000  H
  H15      1.0000 0.87570  0.19360  0.00000  Biso   1.000  H
  H16      1.0000 0.80640  0.87570  0.00000  Biso   1.000  H
  C233     1.0000 0.07810  0.45310  0.41940  Biso   1.000  C
  C234     1.0000 0.45310  0.07810  0.58060  Biso   1.000  C
  C235     1.0000 0.45310  0.92190  0.41940  Biso   1.000  C
  C236     1.0000 0.54690  0.07810  0.41940  Biso   1.000  C
  C237     1.0000 0.07810  0.54690  0.58060  Biso   1.000  C
  C238     1.0000 0.92190  0.54690  0.41940  Biso   1.000  C
  C239     1.0000 0.92190  0.45310  0.58060  Biso   1.000  C
  C240     1.0000 0.54690  0.92190  0.58060  Biso   1.000  C
  C241     1.0000 0.92190  0.54690  0.58060  Biso   1.000  C
  C242     1.0000 0.54690  0.92190  0.41940  Biso   1.000  C
  C243     1.0000 0.54690  0.07810  0.58060  Biso   1.000  C
  C244     1.0000 0.45310  0.92190  0.58060  Biso   1.000  C
  C245     1.0000 0.92190  0.45310  0.41940  Biso   1.000  C
  C246     1.0000 0.07810  0.45310  0.58060  Biso   1.000  C
  C247     1.0000 0.07810  0.54690  0.41940  Biso   1.000  C
  C248     1.0000 0.45310  0.07810  0.41940  Biso   1.000  C
  C249     1.0000 0.05710  0.44920  0.33530  Biso   1.000  C
  C250     1.0000 0.44920  0.05710  0.66470  Biso   1.000  C
  C251     1.0000 0.44920  0.94290  0.33530  Biso   1.000  C
  C252     1.0000 0.55080  0.05710  0.33530  Biso   1.000  C
  C253     1.0000 0.05710  0.55080  0.66470  Biso   1.000  C
  C254     1.0000 0.94290  0.55080  0.33530  Biso   1.000  C
  C255     1.0000 0.94290  0.44920  0.66470  Biso   1.000  C
  C256     1.0000 0.55080  0.94290  0.66470  Biso   1.000  C
  C257     1.0000 0.94290  0.55080  0.66470  Biso   1.000  C
  C258     1.0000 0.55080  0.94290  0.33530  Biso   1.000  C
  C259     1.0000 0.55080  0.05710  0.66470  Biso   1.000  C
  C260     1.0000 0.44920  0.94290  0.66470  Biso   1.000  C
  C261     1.0000 0.94290  0.44920  0.33530  Biso   1.000  C
  C262     1.0000 0.05710  0.44920  0.66470  Biso   1.000  C
  C263     1.0000 0.05710  0.55080  0.33530  Biso   1.000  C
  C264     1.0000 0.44920  0.05710  0.33530  Biso   1.000  C
  H17      1.0000 0.07380  0.45050  0.28650  Biso   1.000  H
  H18      1.0000 0.45050  0.07380  0.71350  Biso   1.000  H
  H19      1.0000 0.45050  0.92620  0.28650  Biso   1.000  H
  H20      1.0000 0.54950  0.07380  0.28650  Biso   1.000  H
  H21      1.0000 0.07380  0.54950  0.71350  Biso   1.000  H
  H22      1.0000 0.92620  0.54950  0.28650  Biso   1.000  H
  H23      1.0000 0.92620  0.45050  0.71350  Biso   1.000  H
  H24      1.0000 0.54950  0.92620  0.71350  Biso   1.000  H
  H25      1.0000 0.92620  0.54950  0.71350  Biso   1.000  H
  H26      1.0000 0.54950  0.92620  0.28650  Biso   1.000  H
  H27      1.0000 0.54950  0.07380  0.71350  Biso   1.000  H
  H28      1.0000 0.45050  0.92620  0.71350  Biso   1.000  H
  H29      1.0000 0.92620  0.45050  0.28650  Biso   1.000  H
  H30      1.0000 0.07380  0.45050  0.71350  Biso   1.000  H
  H31      1.0000 0.07380  0.54950  0.28650  Biso   1.000  H
  H32      1.0000 0.45050  0.07380  0.28650  Biso   1.000  H
  H33      1.0000 0.03930  0.46870  0.33090  Biso   1.000  H
  H34      1.0000 0.46870  0.03930  0.66910  Biso   1.000  H
  H35      1.0000 0.46870  0.96070  0.33090  Biso   1.000  H
  H36      1.0000 0.53130  0.03930  0.33090  Biso   1.000  H
  H37      1.0000 0.03930  0.53130  0.66910  Biso   1.000  H
  H38      1.0000 0.96070  0.53130  0.33090  Biso   1.000  H
  H39      1.0000 0.96070  0.46870  0.66910  Biso   1.000  H
  H40      1.0000 0.53130  0.96070  0.66910  Biso   1.000  H
  H41      1.0000 0.96070  0.53130  0.66910  Biso   1.000  H
  H42      1.0000 0.53130  0.96070  0.33090  Biso   1.000  H
  H43      1.0000 0.53130  0.03930  0.66910  Biso   1.000  H
  H44      1.0000 0.46870  0.96070  0.66910  Biso   1.000  H
  H45      1.0000 0.96070  0.46870  0.33090  Biso   1.000  H
  H46      1.0000 0.03930  0.46870  0.66910  Biso   1.000  H
  H47      1.0000 0.03930  0.53130  0.33090  Biso   1.000  H
  H48      1.0000 0.46870  0.03930  0.33090  Biso   1.000  H
  H49      1.0000 0.04460  0.42590  0.33460  Biso   1.000  H
  H50      1.0000 0.42590  0.04460  0.66540  Biso   1.000  H
  H51      1.0000 0.42590  0.95540  0.33460  Biso   1.000  H
  H52      1.0000 0.57410  0.04460  0.33460  Biso   1.000  H
  H53      1.0000 0.04460  0.57410  0.66540  Biso   1.000  H
  H54      1.0000 0.95540  0.57410  0.33460  Biso   1.000  H
  H55      1.0000 0.95540  0.42590  0.66540  Biso   1.000  H
  H56      1.0000 0.57410  0.95540  0.66540  Biso   1.000  H
  H57      1.0000 0.95540  0.57410  0.66540  Biso   1.000  H
  H58      1.0000 0.57410  0.95540  0.33460  Biso   1.000  H
  H59      1.0000 0.57410  0.04460  0.66540  Biso   1.000  H
  H60      1.0000 0.42590  0.95540  0.66540  Biso   1.000  H
  H61      1.0000 0.95540  0.42590  0.33460  Biso   1.000  H
  H62      1.0000 0.04460  0.42590  0.66540  Biso   1.000  H
  H63      1.0000 0.04460  0.57410  0.33460  Biso   1.000  H
  H64      1.0000 0.42590  0.04460  0.33460  Biso   1.000  H
  C265     1.0000 0.05990  0.45140  0.50000  Biso   1.000  C
  C266     1.0000 0.45140  0.05990  0.50000  Biso   1.000  C
  C267     1.0000 0.45140  0.94010  0.50000  Biso   1.000  C
  C268     1.0000 0.54860  0.05990  0.50000  Biso   1.000  C
  C269     1.0000 0.05990  0.54860  0.50000  Biso   1.000  C
  C270     1.0000 0.94010  0.54860  0.50000  Biso   1.000  C
  C271     1.0000 0.94010  0.45140  0.50000  Biso   1.000  C
  C272     1.0000 0.54860  0.94010  0.50000  Biso   1.000  C
  H65      1.0000 0.03440  0.44910  0.50000  Biso   1.000  H
  H66      1.0000 0.44910  0.03440  0.50000  Biso   1.000  H
  H67      1.0000 0.44910  0.96560  0.50000  Biso   1.000  H
  H68      1.0000 0.55090  0.03440  0.50000  Biso   1.000  H
  H69      1.0000 0.03440  0.55090  0.50000  Biso   1.000  H
  H70      1.0000 0.96560  0.55090  0.50000  Biso   1.000  H
  H71      1.0000 0.96560  0.44910  0.50000  Biso   1.000  H
  H72      1.0000 0.55090  0.96560  0.50000  Biso   1.000  H
  C273     1.0000 0.04650  0.35860  0.50000  Biso   1.000  C
  C274     1.0000 0.35860  0.04650  0.50000  Biso   1.000  C
  C275     1.0000 0.35860  0.95350  0.50000  Biso   1.000  C
  C276     1.0000 0.64140  0.04650  0.50000  Biso   1.000  C
  C277     1.0000 0.04650  0.64140  0.50000  Biso   1.000  C
  C278     1.0000 0.95350  0.64140  0.50000  Biso   1.000  C
  C279     1.0000 0.95350  0.35860  0.50000  Biso   1.000  C
  C280     1.0000 0.64140  0.95350  0.50000  Biso   1.000  C
  C281     1.0000 0.05170  0.23760  0.33530  Biso   1.000  C
  C282     1.0000 0.23760  0.05170  0.66470  Biso   1.000  C
  C283     1.0000 0.23760  0.94830  0.33530  Biso   1.000  C
  C284     1.0000 0.76240  0.05170  0.33530  Biso   1.000  C
  C285     1.0000 0.05170  0.76240  0.66470  Biso   1.000  C
  C286     1.0000 0.94830  0.76240  0.33530  Biso   1.000  C
  C287     1.0000 0.94830  0.23760  0.66470  Biso   1.000  C
  C288     1.0000 0.76240  0.94830  0.66470  Biso   1.000  C
  C289     1.0000 0.94830  0.76240  0.66470  Biso   1.000  C
  C290     1.0000 0.76240  0.94830  0.33530  Biso   1.000  C
  C291     1.0000 0.76240  0.05170  0.66470  Biso   1.000  C
  C292     1.0000 0.23760  0.94830  0.66470  Biso   1.000  C
  C293     1.0000 0.94830  0.23760  0.33530  Biso   1.000  C
  C294     1.0000 0.05170  0.23760  0.66470  Biso   1.000  C
  C295     1.0000 0.05170  0.76240  0.33530  Biso   1.000  C
  C296     1.0000 0.23760  0.05170  0.33530  Biso   1.000  C
  H73      1.0000 0.05070  0.25440  0.28670  Biso   1.000  H
  H74      1.0000 0.25440  0.05070  0.71330  Biso   1.000  H
  H75      1.0000 0.25440  0.94930  0.28670  Biso   1.000  H
  H76      1.0000 0.74560  0.05070  0.28670  Biso   1.000  H
  H77      1.0000 0.05070  0.74560  0.71330  Biso   1.000  H
  H78      1.0000 0.94930  0.74560  0.28670  Biso   1.000  H
  H79      1.0000 0.94930  0.25440  0.71330  Biso   1.000  H
  H80      1.0000 0.74560  0.94930  0.71330  Biso   1.000  H
  H81      1.0000 0.94930  0.74560  0.71330  Biso   1.000  H
  H82      1.0000 0.74560  0.94930  0.28670  Biso   1.000  H
  H83      1.0000 0.74560  0.05070  0.71330  Biso   1.000  H
  H84      1.0000 0.25440  0.94930  0.71330  Biso   1.000  H
  H85      1.0000 0.94930  0.25440  0.28670  Biso   1.000  H
  H86      1.0000 0.05070  0.25440  0.71330  Biso   1.000  H
  H87      1.0000 0.05070  0.74560  0.28670  Biso   1.000  H
  H88      1.0000 0.25440  0.05070  0.28670  Biso   1.000  H
  H89      1.0000 0.03210  0.21990  0.32990  Biso   1.000  H
  H90      1.0000 0.21990  0.03210  0.67010  Biso   1.000  H
  H91      1.0000 0.21990  0.96790  0.32990  Biso   1.000  H
  H92      1.0000 0.78010  0.03210  0.32990  Biso   1.000  H
  H93      1.0000 0.03210  0.78010  0.67010  Biso   1.000  H
  H94      1.0000 0.96790  0.78010  0.32990  Biso   1.000  H
  H95      1.0000 0.96790  0.21990  0.67010  Biso   1.000  H
  H96      1.0000 0.78010  0.96790  0.67010  Biso   1.000  H
  H97      1.0000 0.96790  0.78010  0.67010  Biso   1.000  H
  H98      1.0000 0.78010  0.96790  0.32990  Biso   1.000  H
  H99      1.0000 0.78010  0.03210  0.67010  Biso   1.000  H
  H100     1.0000 0.21990  0.96790  0.67010  Biso   1.000  H
  H101     1.0000 0.96790  0.21990  0.32990  Biso   1.000  H
  H102     1.0000 0.03210  0.21990  0.67010  Biso   1.000  H
  H103     1.0000 0.03210  0.78010  0.32990  Biso   1.000  H
  H104     1.0000 0.21990  0.03210  0.32990  Biso   1.000  H
  H105     1.0000 0.07490  0.22500  0.33510  Biso   1.000  H
  H106     1.0000 0.22500  0.07490  0.66490  Biso   1.000  H
  H107     1.0000 0.22500  0.92510  0.33510  Biso   1.000  H
  H108     1.0000 0.77500  0.07490  0.33510  Biso   1.000  H
  H109     1.0000 0.07490  0.77500  0.66490  Biso   1.000  H
  H110     1.0000 0.92510  0.77500  0.33510  Biso   1.000  H
  H111     1.0000 0.92510  0.22500  0.66490  Biso   1.000  H
  H112     1.0000 0.77500  0.92510  0.66490  Biso   1.000  H
  H113     1.0000 0.92510  0.77500  0.66490  Biso   1.000  H
  H114     1.0000 0.77500  0.92510  0.33510  Biso   1.000  H
  H115     1.0000 0.77500  0.07490  0.66490  Biso   1.000  H
  H116     1.0000 0.22500  0.92510  0.66490  Biso   1.000  H
  H117     1.0000 0.92510  0.22500  0.33510  Biso   1.000  H
  H118     1.0000 0.07490  0.22500  0.66490  Biso   1.000  H
  H119     1.0000 0.07490  0.77500  0.33510  Biso   1.000  H
  H120     1.0000 0.22500  0.07490  0.33510  Biso   1.000  H
  C297     1.0000 0.14170  0.20930  0.16340  Biso   1.000  C
  C298     1.0000 0.20930  0.14170  0.83660  Biso   1.000  C
  C299     1.0000 0.20930  0.85830  0.16340  Biso   1.000  C
  C300     1.0000 0.79070  0.14170  0.16340  Biso   1.000  C
  C301     1.0000 0.14170  0.79070  0.83660  Biso   1.000  C
  C302     1.0000 0.85830  0.79070  0.16340  Biso   1.000  C
  C303     1.0000 0.85830  0.20930  0.83660  Biso   1.000  C
  C304     1.0000 0.79070  0.85830  0.83660  Biso   1.000  C
  C305     1.0000 0.85830  0.79070  0.83660  Biso   1.000  C
  C306     1.0000 0.79070  0.85830  0.16340  Biso   1.000  C
  C307     1.0000 0.79070  0.14170  0.83660  Biso   1.000  C
  C308     1.0000 0.20930  0.85830  0.83660  Biso   1.000  C
  C309     1.0000 0.85830  0.20930  0.16340  Biso   1.000  C
  C310     1.0000 0.14170  0.20930  0.83660  Biso   1.000  C
  C311     1.0000 0.14170  0.79070  0.16340  Biso   1.000  C
  C312     1.0000 0.20930  0.14170  0.16340  Biso   1.000  C
  H121     1.0000 0.12100  0.19410  0.14890  Biso   1.000  H
  H122     1.0000 0.19410  0.12100  0.85110  Biso   1.000  H
  H123     1.0000 0.19410  0.87900  0.14890  Biso   1.000  H
  H124     1.0000 0.80590  0.12100  0.14890  Biso   1.000  H
  H125     1.0000 0.12100  0.80590  0.85110  Biso   1.000  H
  H126     1.0000 0.87900  0.80590  0.14890  Biso   1.000  H
  H127     1.0000 0.87900  0.19410  0.85110  Biso   1.000  H
  H128     1.0000 0.80590  0.87900  0.85110  Biso   1.000  H
  H129     1.0000 0.87900  0.80590  0.85110  Biso   1.000  H
  H130     1.0000 0.80590  0.87900  0.14890  Biso   1.000  H
  H131     1.0000 0.80590  0.12100  0.85110  Biso   1.000  H
  H132     1.0000 0.19410  0.87900  0.85110  Biso   1.000  H
  H133     1.0000 0.87900  0.19410  0.14890  Biso   1.000  H
  H134     1.0000 0.12100  0.19410  0.85110  Biso   1.000  H
  H135     1.0000 0.12100  0.80590  0.14890  Biso   1.000  H
  H136     1.0000 0.19410  0.12100  0.14890  Biso   1.000  H
  H137     1.0000 0.13400  0.22840  0.20300  Biso   1.000  H
  H138     1.0000 0.22840  0.13400  0.79700  Biso   1.000  H
  H139     1.0000 0.22840  0.86600  0.20300  Biso   1.000  H
  H140     1.0000 0.77160  0.13400  0.20300  Biso   1.000  H
  H141     1.0000 0.13400  0.77160  0.79700  Biso   1.000  H
  H142     1.0000 0.86600  0.77160  0.20300  Biso   1.000  H
  H143     1.0000 0.86600  0.22840  0.79700  Biso   1.000  H
  H144     1.0000 0.77160  0.86600  0.79700  Biso   1.000  H
  H145     1.0000 0.86600  0.77160  0.79700  Biso   1.000  H
  H146     1.0000 0.77160  0.86600  0.20300  Biso   1.000  H
  H147     1.0000 0.77160  0.13400  0.79700  Biso   1.000  H
  H148     1.0000 0.22840  0.86600  0.79700  Biso   1.000  H
  H149     1.0000 0.86600  0.22840  0.20300  Biso   1.000  H
  H150     1.0000 0.13400  0.22840  0.79700  Biso   1.000  H
  H151     1.0000 0.13400  0.77160  0.20300  Biso   1.000  H
  H152     1.0000 0.22840  0.13400  0.20300  Biso   1.000  H
  H153     1.0000 0.16030  0.19460  0.19100  Biso   1.000  H
  H154     1.0000 0.19460  0.16030  0.80900  Biso   1.000  H
  H155     1.0000 0.19460  0.83970  0.19100  Biso   1.000  H
  H156     1.0000 0.80540  0.16030  0.19100  Biso   1.000  H
  H157     1.0000 0.16030  0.80540  0.80900  Biso   1.000  H
  H158     1.0000 0.83970  0.80540  0.19100  Biso   1.000  H
  H159     1.0000 0.83970  0.19460  0.80900  Biso   1.000  H
  H160     1.0000 0.80540  0.83970  0.80900  Biso   1.000  H
  H161     1.0000 0.83970  0.80540  0.80900  Biso   1.000  H
  H162     1.0000 0.80540  0.83970  0.19100  Biso   1.000  H
  H163     1.0000 0.80540  0.16030  0.80900  Biso   1.000  H
  H164     1.0000 0.19460  0.83970  0.80900  Biso   1.000  H
  H165     1.0000 0.83970  0.19460  0.19100  Biso   1.000  H
  H166     1.0000 0.16030  0.19460  0.80900  Biso   1.000  H
  H167     1.0000 0.16030  0.80540  0.19100  Biso   1.000  H
  H168     1.0000 0.19460  0.16030  0.19100  Biso   1.000  H
  Cu1      1.0000 0.00000  0.33259  0.27366  Biso   1.000  Cu
  Cu2      1.0000 0.33259  0.00000  0.72634  Biso   1.000  Cu
  Cu3      1.0000 0.33259  0.00000  0.27366  Biso   1.000  Cu
  Cu4      1.0000 0.66741  0.00000  0.27366  Biso   1.000  Cu
  Cu5      1.0000 0.00000  0.66741  0.72634  Biso   1.000  Cu
  Cu6      1.0000 0.00000  0.66741  0.27366  Biso   1.000  Cu
  Cu7      1.0000 0.00000  0.33259  0.72634  Biso   1.000  Cu
  Cu8      1.0000 0.66741  0.00000  0.72634  Biso   1.000  Cu
  Cu9      1.0000 0.15185  0.50000  0.26938  Biso   1.000  Cu
  Cu10     1.0000 0.50000  0.15185  0.73062  Biso   1.000  Cu
  Cu11     1.0000 0.50000  0.84815  0.26938  Biso   1.000  Cu
  Cu12     1.0000 0.50000  0.15185  0.26938  Biso   1.000  Cu
  Cu13     1.0000 0.15185  0.50000  0.73062  Biso   1.000  Cu
  Cu14     1.0000 0.84815  0.50000  0.26938  Biso   1.000  Cu
  Cu15     1.0000 0.84815  0.50000  0.73062  Biso   1.000  Cu
  Cu16     1.0000 0.50000  0.84815  0.73062  Biso   1.000  Cu
  Cu17     1.0000 0.24230  0.24230  0.23092  Biso   1.000  Cu
  Cu18     1.0000 0.24230  0.24230  0.76908  Biso   1.000  Cu
  Cu19     1.0000 0.24230  0.75770  0.23092  Biso   1.000  Cu
  Cu20     1.0000 0.75770  0.24230  0.23092  Biso   1.000  Cu
  Cu21     1.0000 0.24230  0.75770  0.76908  Biso   1.000  Cu
  Cu22     1.0000 0.75770  0.75770  0.23092  Biso   1.000  Cu
  Cu23     1.0000 0.75770  0.24230  0.76908  Biso   1.000  Cu
  Cu24     1.0000 0.75770  0.75770  0.76908  Biso   1.000  Cu
  Mn1      1.0000 0.14727  0.35212  0.24824  Biso   1.000  Mn
  Mn2      1.0000 0.35212  0.14727  0.75176  Biso   1.000  Mn
  Mn3      1.0000 0.35212  0.85273  0.24824  Biso   1.000  Mn
  Mn4      1.0000 0.64788  0.14727  0.24824  Biso   1.000  Mn
  Mn5      1.0000 0.14727  0.64788  0.75176  Biso   1.000  Mn
  Mn6      1.0000 0.85273  0.64788  0.24824  Biso   1.000  Mn
  Mn7      1.0000 0.85273  0.35212  0.75176  Biso   1.000  Mn
  Mn8      1.0000 0.64788  0.85273  0.75176  Biso   1.000  Mn
  Mn9      1.0000 0.85273  0.64788  0.75176  Biso   1.000  Mn
  Mn10     1.0000 0.64788  0.85273  0.24824  Biso   1.000  Mn
  Mn11     1.0000 0.64788  0.14727  0.75176  Biso   1.000  Mn
  Mn12     1.0000 0.35212  0.85273  0.75176  Biso   1.000  Mn
  Mn13     1.0000 0.85273  0.35212  0.24824  Biso   1.000  Mn
  Mn14     1.0000 0.14727  0.35212  0.75176  Biso   1.000  Mn
  Mn15     1.0000 0.14727  0.64788  0.24824  Biso   1.000  Mn
  Mn16     1.0000 0.35212  0.14727  0.24824  Biso   1.000  Mn
  N1       1.0000 0.04470  0.31680  0.34140  Biso   1.000  N
  N2       1.0000 0.31680  0.04470  0.65860  Biso   1.000  N
  N3       1.0000 0.31680  0.95530  0.34140  Biso   1.000  N
  N4       1.0000 0.68320  0.04470  0.34140  Biso   1.000  N
  N5       1.0000 0.04470  0.68320  0.65860  Biso   1.000  N
  N6       1.0000 0.95530  0.68320  0.34140  Biso   1.000  N
  N7       1.0000 0.95530  0.31680  0.65860  Biso   1.000  N
  N8       1.0000 0.68320  0.95530  0.65860  Biso   1.000  N
  N9       1.0000 0.95530  0.68320  0.65860  Biso   1.000  N
  N10      1.0000 0.68320  0.95530  0.34140  Biso   1.000  N
  N11      1.0000 0.68320  0.04470  0.65860  Biso   1.000  N
  N12      1.0000 0.31680  0.95530  0.65860  Biso   1.000  N
  N13      1.0000 0.95530  0.31680  0.34140  Biso   1.000  N
  N14      1.0000 0.04470  0.31680  0.65860  Biso   1.000  N
  N15      1.0000 0.04470  0.68320  0.34140  Biso   1.000  N
  N16      1.0000 0.31680  0.04470  0.34140  Biso   1.000  N
  N17      1.0000 0.13700  0.45720  0.33930  Biso   1.000  N
  N18      1.0000 0.45720  0.13700  0.66070  Biso   1.000  N
  N19      1.0000 0.45720  0.86300  0.33930  Biso   1.000  N
  N20      1.0000 0.54280  0.13700  0.33930  Biso   1.000  N
  N21      1.0000 0.13700  0.54280  0.66070  Biso   1.000  N
  N22      1.0000 0.86300  0.54280  0.33930  Biso   1.000  N
  N23      1.0000 0.86300  0.45720  0.66070  Biso   1.000  N
  N24      1.0000 0.54280  0.86300  0.66070  Biso   1.000  N
  N25      1.0000 0.86300  0.54280  0.66070  Biso   1.000  N
  N26      1.0000 0.54280  0.86300  0.33930  Biso   1.000  N
  N27      1.0000 0.54280  0.13700  0.66070  Biso   1.000  N
  N28      1.0000 0.45720  0.86300  0.66070  Biso   1.000  N
  N29      1.0000 0.86300  0.45720  0.33930  Biso   1.000  N
  N30      1.0000 0.13700  0.45720  0.66070  Biso   1.000  N
  N31      1.0000 0.13700  0.54280  0.33930  Biso   1.000  N
  N32      1.0000 0.45720  0.13700  0.33930  Biso   1.000  N
  N33      1.0000 0.20110  0.26273  0.16010  Biso   1.000  N
  N34      1.0000 0.26273  0.20110  0.83990  Biso   1.000  N
  N35      1.0000 0.26273  0.79890  0.16010  Biso   1.000  N
  N36      1.0000 0.73727  0.20110  0.16010  Biso   1.000  N
  N37      1.0000 0.20110  0.73727  0.83990  Biso   1.000  N
  N38      1.0000 0.79890  0.73727  0.16010  Biso   1.000  N
  N39      1.0000 0.79890  0.26273  0.83990  Biso   1.000  N
  N40      1.0000 0.73727  0.79890  0.83990  Biso   1.000  N
  N41      1.0000 0.79890  0.73727  0.83990  Biso   1.000  N
  N42      1.0000 0.73727  0.79890  0.16010  Biso   1.000  N
  N43      1.0000 0.73727  0.20110  0.83990  Biso   1.000  N
  N44      1.0000 0.26273  0.79890  0.83990  Biso   1.000  N
  N45      1.0000 0.79890  0.26273  0.16010  Biso   1.000  N
  N46      1.0000 0.20110  0.26273  0.83990  Biso   1.000  N
  N47      1.0000 0.20110  0.73727  0.16010  Biso   1.000  N
  N48      1.0000 0.26273  0.20110  0.16010  Biso   1.000  N
  O1       1.0000 0.03610  0.35770  0.19970  Biso   1.000  O
  O2       1.0000 0.35770  0.03610  0.80030  Biso   1.000  O
  O3       1.0000 0.35770  0.96390  0.19970  Biso   1.000  O
  O4       1.0000 0.64230  0.03610  0.19970  Biso   1.000  O
  O5       1.0000 0.03610  0.64230  0.80030  Biso   1.000  O
  O6       1.0000 0.96390  0.64230  0.19970  Biso   1.000  O
  O7       1.0000 0.96390  0.35770  0.80030  Biso   1.000  O
  O8       1.0000 0.64230  0.96390  0.80030  Biso   1.000  O
  O9       1.0000 0.96390  0.64230  0.80030  Biso   1.000  O
  O10      1.0000 0.64230  0.96390  0.19970  Biso   1.000  O
  O11      1.0000 0.64230  0.03610  0.80030  Biso   1.000  O
  O12      1.0000 0.35770  0.96390  0.80030  Biso   1.000  O
  O13      1.0000 0.96390  0.35770  0.19970  Biso   1.000  O
  O14      1.0000 0.03610  0.35770  0.80030  Biso   1.000  O
  O15      1.0000 0.03610  0.64230  0.19970  Biso   1.000  O
  O16      1.0000 0.35770  0.03610  0.19970  Biso   1.000  O
  O17      1.0000 0.09710  0.36318  0.18280  Biso   1.000  O
  O18      1.0000 0.36318  0.09710  0.81720  Biso   1.000  O
  O19      1.0000 0.36318  0.90290  0.18280  Biso   1.000  O
  O20      1.0000 0.63682  0.09710  0.18280  Biso   1.000  O
  O21      1.0000 0.09710  0.63682  0.81720  Biso   1.000  O
  O22      1.0000 0.90290  0.63682  0.18280  Biso   1.000  O
  O23      1.0000 0.90290  0.36318  0.81720  Biso   1.000  O
  O24      1.0000 0.63682  0.90290  0.81720  Biso   1.000  O
  O25      1.0000 0.90290  0.63682  0.81720  Biso   1.000  O
  O26      1.0000 0.63682  0.90290  0.18280  Biso   1.000  O
  O27      1.0000 0.63682  0.09710  0.81720  Biso   1.000  O
  O28      1.0000 0.36318  0.90290  0.81720  Biso   1.000  O
  O29      1.0000 0.90290  0.36318  0.18280  Biso   1.000  O
  O30      1.0000 0.09710  0.36318  0.81720  Biso   1.000  O
  O31      1.0000 0.09710  0.63682  0.18280  Biso   1.000  O
  O32      1.0000 0.36318  0.09710  0.18280  Biso   1.000  O
  O33      1.0000 0.10720  0.31900  0.32460  Biso   1.000  O
  O34      1.0000 0.31900  0.10720  0.67540  Biso   1.000  O
  O35      1.0000 0.31900  0.89280  0.32460  Biso   1.000  O
  O36      1.0000 0.68100  0.10720  0.32460  Biso   1.000  O
  O37      1.0000 0.10720  0.68100  0.67540  Biso   1.000  O
  O38      1.0000 0.89280  0.68100  0.32460  Biso   1.000  O
  O39      1.0000 0.89280  0.31900  0.67540  Biso   1.000  O
  O40      1.0000 0.68100  0.89280  0.67540  Biso   1.000  O
  O41      1.0000 0.89280  0.68100  0.67540  Biso   1.000  O
  O42      1.0000 0.68100  0.89280  0.32460  Biso   1.000  O
  O43      1.0000 0.68100  0.10720  0.67540  Biso   1.000  O
  O44      1.0000 0.31900  0.89280  0.67540  Biso   1.000  O
  O45      1.0000 0.89280  0.31900  0.32460  Biso   1.000  O
  O46      1.0000 0.10720  0.31900  0.67540  Biso   1.000  O
  O47      1.0000 0.10720  0.68100  0.32460  Biso   1.000  O
  O48      1.0000 0.31900  0.10720  0.32460  Biso   1.000  O
  O49      1.0000 0.17110  0.46230  0.18930  Biso   1.000  O
  O50      1.0000 0.46230  0.17110  0.81070  Biso   1.000  O
  O51      1.0000 0.46230  0.82890  0.18930  Biso   1.000  O
  O52      1.0000 0.53770  0.17110  0.18930  Biso   1.000  O
  O53      1.0000 0.17110  0.53770  0.81070  Biso   1.000  O
  O54      1.0000 0.82890  0.53770  0.18930  Biso   1.000  O
  O55      1.0000 0.82890  0.46230  0.81070  Biso   1.000  O
  O56      1.0000 0.53770  0.82890  0.81070  Biso   1.000  O
  O57      1.0000 0.82890  0.53770  0.81070  Biso   1.000  O
  O58      1.0000 0.53770  0.82890  0.18930  Biso   1.000  O
  O59      1.0000 0.53770  0.17110  0.81070  Biso   1.000  O
  O60      1.0000 0.46230  0.82890  0.81070  Biso   1.000  O
  O61      1.0000 0.82890  0.46230  0.18930  Biso   1.000  O
  O62      1.0000 0.17110  0.46230  0.81070  Biso   1.000  O
  O63      1.0000 0.17110  0.53770  0.18930  Biso   1.000  O
  O64      1.0000 0.46230  0.17110  0.18930  Biso   1.000  O
  O65      1.0000 0.17300  0.40002  0.17570  Biso   1.000  O
  O66      1.0000 0.40002  0.17300  0.82430  Biso   1.000  O
  O67      1.0000 0.40002  0.82700  0.17570  Biso   1.000  O
  O68      1.0000 0.59998  0.17300  0.17570  Biso   1.000  O
  O69      1.0000 0.17300  0.59998  0.82430  Biso   1.000  O
  O70      1.0000 0.82700  0.59998  0.17570  Biso   1.000  O
  O71      1.0000 0.82700  0.40002  0.82430  Biso   1.000  O
  O72      1.0000 0.59998  0.82700  0.82430  Biso   1.000  O
  O73      1.0000 0.82700  0.59998  0.82430  Biso   1.000  O
  O74      1.0000 0.59998  0.82700  0.17570  Biso   1.000  O
  O75      1.0000 0.59998  0.17300  0.82430  Biso   1.000  O
  O76      1.0000 0.40002  0.82700  0.82430  Biso   1.000  O
  O77      1.0000 0.82700  0.40002  0.17570  Biso   1.000  O
  O78      1.0000 0.17300  0.40002  0.82430  Biso   1.000  O
  O79      1.0000 0.17300  0.59998  0.17570  Biso   1.000  O
  O80      1.0000 0.40002  0.17300  0.17570  Biso   1.000  O
  O81      1.0000 0.14020  0.39470  0.33240  Biso   1.000  O
  O82      1.0000 0.39470  0.14020  0.66760  Biso   1.000  O
  O83      1.0000 0.39470  0.85980  0.33240  Biso   1.000  O
  O84      1.0000 0.60530  0.14020  0.33240  Biso   1.000  O
  O85      1.0000 0.14020  0.60530  0.66760  Biso   1.000  O
  O86      1.0000 0.85980  0.60530  0.33240  Biso   1.000  O
  O87      1.0000 0.85980  0.39470  0.66760  Biso   1.000  O
  O88      1.0000 0.60530  0.85980  0.66760  Biso   1.000  O
  O89      1.0000 0.85980  0.60530  0.66760  Biso   1.000  O
  O90      1.0000 0.60530  0.85980  0.33240  Biso   1.000  O
  O91      1.0000 0.60530  0.14020  0.66760  Biso   1.000  O
  O92      1.0000 0.39470  0.85980  0.66760  Biso   1.000  O
  O93      1.0000 0.85980  0.39470  0.33240  Biso   1.000  O
  O94      1.0000 0.14020  0.39470  0.66760  Biso   1.000  O
  O95      1.0000 0.14020  0.60530  0.33240  Biso   1.000  O
  O96      1.0000 0.39470  0.14020  0.33240  Biso   1.000  O
  O97      1.0000 0.16130  0.31152  0.16390  Biso   1.000  O
  O98      1.0000 0.31152  0.16130  0.83610  Biso   1.000  O
  O99      1.0000 0.31152  0.83870  0.16390  Biso   1.000  O
  O100     1.0000 0.68848  0.16130  0.16390  Biso   1.000  O
  O101     1.0000 0.16130  0.68848  0.83610  Biso   1.000  O
  O102     1.0000 0.83870  0.68848  0.16390  Biso   1.000  O
  O103     1.0000 0.83870  0.31152  0.83610  Biso   1.000  O
  O104     1.0000 0.68848  0.83870  0.83610  Biso   1.000  O
  O105     1.0000 0.83870  0.68848  0.83610  Biso   1.000  O
  O106     1.0000 0.68848  0.83870  0.16390  Biso   1.000  O
  O107     1.0000 0.68848  0.16130  0.83610  Biso   1.000  O
  O108     1.0000 0.31152  0.83870  0.83610  Biso   1.000  O
  O109     1.0000 0.83870  0.31152  0.16390  Biso   1.000  O
  O110     1.0000 0.16130  0.31152  0.83610  Biso   1.000  O
  O111     1.0000 0.16130  0.68848  0.16390  Biso   1.000  O
  O112     1.0000 0.31152  0.16130  0.16390  Biso   1.000  O
  O113     1.0000 0.19320  0.33314  0.31500  Biso   1.000  O
  O114     1.0000 0.33314  0.19320  0.68500  Biso   1.000  O
  O115     1.0000 0.33314  0.80680  0.31500  Biso   1.000  O
  O116     1.0000 0.66686  0.19320  0.31500  Biso   1.000  O
  O117     1.0000 0.19320  0.66686  0.68500  Biso   1.000  O
  O118     1.0000 0.80680  0.66686  0.31500  Biso   1.000  O
  O119     1.0000 0.80680  0.33314  0.68500  Biso   1.000  O
  O120     1.0000 0.66686  0.80680  0.68500  Biso   1.000  O
  O121     1.0000 0.80680  0.66686  0.68500  Biso   1.000  O
  O122     1.0000 0.66686  0.80680  0.31500  Biso   1.000  O
  O123     1.0000 0.66686  0.19320  0.68500  Biso   1.000  O
  O124     1.0000 0.33314  0.80680  0.68500  Biso   1.000  O
  O125     1.0000 0.80680  0.33314  0.31500  Biso   1.000  O
  O126     1.0000 0.19320  0.33314  0.68500  Biso   1.000  O
  O127     1.0000 0.19320  0.66686  0.31500  Biso   1.000  O
  O128     1.0000 0.33314  0.19320  0.31500  Biso   1.000  O
  O129     1.0000 0.23110  0.28504  0.30890  Biso   1.000  O
  O130     1.0000 0.28504  0.23110  0.69110  Biso   1.000  O
  O131     1.0000 0.28504  0.76890  0.30890  Biso   1.000  O
  O132     1.0000 0.71496  0.23110  0.30890  Biso   1.000  O
  O133     1.0000 0.23110  0.71496  0.69110  Biso   1.000  O
  O134     1.0000 0.76890  0.71496  0.30890  Biso   1.000  O
  O135     1.0000 0.76890  0.28504  0.69110  Biso   1.000  O
  O136     1.0000 0.71496  0.76890  0.69110  Biso   1.000  O
  O137     1.0000 0.76890  0.71496  0.69110  Biso   1.000  O
  O138     1.0000 0.71496  0.76890  0.30890  Biso   1.000  O
  O139     1.0000 0.71496  0.23110  0.69110  Biso   1.000  O
  O140     1.0000 0.28504  0.76890  0.69110  Biso   1.000  O
  O141     1.0000 0.76890  0.28504  0.30890  Biso   1.000  O
  O142     1.0000 0.23110  0.28504  0.69110  Biso   1.000  O
  O143     1.0000 0.23110  0.71496  0.30890  Biso   1.000  O
  O144     1.0000 0.28504  0.23110  0.30890  Biso   1.000  O
  O145     1.0000 0.20820  0.20820  0.34640  Biso   1.000  O
  O146     1.0000 0.20820  0.20820  0.65360  Biso   1.000  O
  O147     1.0000 0.20820  0.79180  0.34640  Biso   1.000  O
  O148     1.0000 0.79180  0.20820  0.34640  Biso   1.000  O
  O149     1.0000 0.20820  0.79180  0.65360  Biso   1.000  O
  O150     1.0000 0.79180  0.79180  0.34640  Biso   1.000  O
  O151     1.0000 0.79180  0.20820  0.65360  Biso   1.000  O
  O152     1.0000 0.79180  0.79180  0.65360  Biso   1.000  O
  O153     1.0000 0.00000  0.28720  0.14840  Biso   1.000  O
  O154     1.0000 0.28720  0.00000  0.85160  Biso   1.000  O
  O155     1.0000 0.28720  0.00000  0.14840  Biso   1.000  O
  O156     1.0000 0.71280  0.00000  0.14840  Biso   1.000  O
  O157     1.0000 0.00000  0.71280  0.85160  Biso   1.000  O
  O158     1.0000 0.00000  0.71280  0.14840  Biso   1.000  O
  O159     1.0000 0.00000  0.28720  0.85160  Biso   1.000  O
  O160     1.0000 0.71280  0.00000  0.85160  Biso   1.000  O
  O161     1.0000 0.09830  0.50000  0.15080  Biso   1.000  O
  O162     1.0000 0.50000  0.09830  0.84920  Biso   1.000  O
  O163     1.0000 0.50000  0.90170  0.15080  Biso   1.000  O
  O164     1.0000 0.50000  0.09830  0.15080  Biso   1.000  O
  O165     1.0000 0.09830  0.50000  0.84920  Biso   1.000  O
  O166     1.0000 0.90170  0.50000  0.15080  Biso   1.000  O
  O167     1.0000 0.90170  0.50000  0.84920  Biso   1.000  O
  O168     1.0000 0.50000  0.90170  0.84920  Biso   1.000  O
  O169     1.0000 0.22320  0.50000  0.31460  Biso   1.000  O
  O170     1.0000 0.50000  0.22320  0.68540  Biso   1.000  O
  O171     1.0000 0.50000  0.77680  0.31460  Biso   1.000  O
  O172     1.0000 0.50000  0.22320  0.31460  Biso   1.000  O
  O173     1.0000 0.22320  0.50000  0.68540  Biso   1.000  O
  O174     1.0000 0.77680  0.50000  0.31460  Biso   1.000  O
  O175     1.0000 0.77680  0.50000  0.68540  Biso   1.000  O
  O176     1.0000 0.50000  0.77680  0.68540  Biso   1.000  O
  O177     1.0000 0.29700  0.29700  0.18650  Biso   1.000  O
  O178     1.0000 0.29700  0.29700  0.81350  Biso   1.000  O
  O179     1.0000 0.29700  0.70300  0.18650  Biso   1.000  O
  O180     1.0000 0.70300  0.29700  0.18650  Biso   1.000  O
  O181     1.0000 0.29700  0.70300  0.81350  Biso   1.000  O
  O182     1.0000 0.70300  0.70300  0.18650  Biso   1.000  O
  O183     1.0000 0.70300  0.29700  0.81350  Biso   1.000  O
  O184     1.0000 0.70300  0.70300  0.81350  Biso   1.000  O
  O185     1.0000 0.12150  0.31960  0.00000  Biso   1.000  O
  O186     1.0000 0.31960  0.12150  0.00000  Biso   1.000  O
  O187     1.0000 0.31960  0.87850  0.00000  Biso   1.000  O
  O188     1.0000 0.68040  0.12150  0.00000  Biso   1.000  O
  O189     1.0000 0.12150  0.68040  0.00000  Biso   1.000  O
  O190     1.0000 0.87850  0.68040  0.00000  Biso   1.000  O
  O191     1.0000 0.87850  0.31960  0.00000  Biso   1.000  O
  O192     1.0000 0.68040  0.87850  0.00000  Biso   1.000  O
  O193     1.0000 0.15710  0.36270  0.50000  Biso   1.000  O
  O194     1.0000 0.36270  0.15710  0.50000  Biso   1.000  O
  O195     1.0000 0.36270  0.84290  0.50000  Biso   1.000  O
  O196     1.0000 0.63730  0.15710  0.50000  Biso   1.000  O
  O197     1.0000 0.15710  0.63730  0.50000  Biso   1.000  O
  O198     1.0000 0.84290  0.63730  0.50000  Biso   1.000  O
  O199     1.0000 0.84290  0.36270  0.50000  Biso   1.000  O
  O200     1.0000 0.63730  0.84290  0.50000  Biso   1.000  O
  O201     1.0000 0.25200  0.21350  0.50000  Biso   1.000  O
  O202     1.0000 0.21350  0.25200  0.50000  Biso   1.000  O
  O203     1.0000 0.21350  0.74800  0.50000  Biso   1.000  O
  O204     1.0000 0.78650  0.25200  0.50000  Biso   1.000  O
  O205     1.0000 0.25200  0.78650  0.50000  Biso   1.000  O
  O206     1.0000 0.74800  0.78650  0.50000  Biso   1.000  O
  O207     1.0000 0.74800  0.21350  0.50000  Biso   1.000  O
  O208     1.0000 0.78650  0.74800  0.50000  Biso   1.000  O
  O209     1.0000 0.13050  0.47270  0.00000  Biso   1.000  O
  O210     1.0000 0.47270  0.13050  0.00000  Biso   1.000  O
  O211     1.0000 0.47270  0.86950  0.00000  Biso   1.000  O
  O212     1.0000 0.52730  0.13050  0.00000  Biso   1.000  O
  O213     1.0000 0.13050  0.52730  0.00000  Biso   1.000  O
  O214     1.0000 0.86950  0.52730  0.00000  Biso   1.000  O
  O215     1.0000 0.86950  0.47270  0.00000  Biso   1.000  O
  O216     1.0000 0.52730  0.86950  0.00000  Biso   1.000  O
  O217     1.0000 0.25350  0.50000  0.14940  Biso   1.000  O
  O218     1.0000 0.50000  0.25350  0.85060  Biso   1.000  O
  O219     1.0000 0.50000  0.74650  0.14940  Biso   1.000  O
  O220     1.0000 0.50000  0.25350  0.14940  Biso   1.000  O
  O221     1.0000 0.25350  0.50000  0.85060  Biso   1.000  O
  O222     1.0000 0.74650  0.50000  0.14940  Biso   1.000  O
  O223     1.0000 0.74650  0.50000  0.85060  Biso   1.000  O
  O224     1.0000 0.50000  0.74650  0.85060  Biso   1.000  O
  O225     1.0000 0.00000  0.42610  0.12000  Biso   1.000  O
  O226     1.0000 0.42610  0.00000  0.88000  Biso   1.000  O
  O227     1.0000 0.42610  0.00000  0.12000  Biso   1.000  O
  O228     1.0000 0.57390  0.00000  0.12000  Biso   1.000  O
  O229     1.0000 0.00000  0.57390  0.88000  Biso   1.000  O
  O230     1.0000 0.00000  0.57390  0.12000  Biso   1.000  O
  O231     1.0000 0.00000  0.42610  0.88000  Biso   1.000  O
  O232     1.0000 0.57390  0.00000  0.88000  Biso   1.000  O
  O233     1.0000 0.07640  0.57220  0.09570  Biso   1.000  O
  O234     1.0000 0.57220  0.07640  0.90430  Biso   1.000  O
  O235     1.0000 0.57220  0.92360  0.09570  Biso   1.000  O
  O236     1.0000 0.42780  0.07640  0.09570  Biso   1.000  O
  O237     1.0000 0.07640  0.42780  0.90430  Biso   1.000  O
  O238     1.0000 0.92360  0.42780  0.09570  Biso   1.000  O
  O239     1.0000 0.92360  0.57220  0.90430  Biso   1.000  O
  O240     1.0000 0.42780  0.92360  0.90430  Biso   1.000  O
  O241     1.0000 0.92360  0.42780  0.90430  Biso   1.000  O
  O242     1.0000 0.42780  0.92360  0.09570  Biso   1.000  O
  O243     1.0000 0.42780  0.07640  0.90430  Biso   1.000  O
  O244     1.0000 0.57220  0.92360  0.90430  Biso   1.000  O
  O245     1.0000 0.92360  0.57220  0.09570  Biso   1.000  O
  O246     1.0000 0.07640  0.57220  0.90430  Biso   1.000  O
  O247     1.0000 0.07640  0.42780  0.09570  Biso   1.000  O
  O248     1.0000 0.57220  0.07640  0.09570  Biso   1.000  O
  O249     1.0000 0.14140  0.26380  0.40500  Biso   1.000  O
  O250     1.0000 0.26380  0.14140  0.59500  Biso   1.000  O
  O251     1.0000 0.26380  0.85860  0.40500  Biso   1.000  O
  O252     1.0000 0.73620  0.14140  0.40500  Biso   1.000  O
  O253     1.0000 0.14140  0.73620  0.59500  Biso   1.000  O
  O254     1.0000 0.85860  0.73620  0.40500  Biso   1.000  O
  O255     1.0000 0.85860  0.26380  0.59500  Biso   1.000  O
  O256     1.0000 0.73620  0.85860  0.59500  Biso   1.000  O
  O257     1.0000 0.85860  0.73620  0.59500  Biso   1.000  O
  O258     1.0000 0.73620  0.85860  0.40500  Biso   1.000  O
  O259     1.0000 0.73620  0.14140  0.59500  Biso   1.000  O
  O260     1.0000 0.26380  0.85860  0.59500  Biso   1.000  O
  O261     1.0000 0.85860  0.26380  0.40500  Biso   1.000  O
  O262     1.0000 0.14140  0.26380  0.59500  Biso   1.000  O
  O263     1.0000 0.14140  0.73620  0.40500  Biso   1.000  O
  O264     1.0000 0.26380  0.14140  0.40500  Biso   1.000  O
  O265     1.0000 0.22980  0.37670  0.50000  Biso   1.000  O
  O266     1.0000 0.37670  0.22980  0.50000  Biso   1.000  O
  O267     1.0000 0.37670  0.77020  0.50000  Biso   1.000  O
  O268     1.0000 0.62330  0.22980  0.50000  Biso   1.000  O
  O269     1.0000 0.22980  0.62330  0.50000  Biso   1.000  O
  O270     1.0000 0.77020  0.62330  0.50000  Biso   1.000  O
  O271     1.0000 0.77020  0.37670  0.50000  Biso   1.000  O
  O272     1.0000 0.62330  0.77020  0.50000  Biso   1.000  O
  O273     1.0000 0.12180  0.18760  0.43620  Biso   1.000  O
  O274     1.0000 0.18760  0.12180  0.56380  Biso   1.000  O
  O275     1.0000 0.18760  0.87820  0.43620  Biso   1.000  O
  O276     1.0000 0.81240  0.12180  0.43620  Biso   1.000  O
  O277     1.0000 0.12180  0.81240  0.56380  Biso   1.000  O
  O278     1.0000 0.87820  0.81240  0.43620  Biso   1.000  O
  O279     1.0000 0.87820  0.18760  0.56380  Biso   1.000  O
  O280     1.0000 0.81240  0.87820  0.56380  Biso   1.000  O
  O281     1.0000 0.87820  0.81240  0.56380  Biso   1.000  O
  O282     1.0000 0.81240  0.87820  0.43620  Biso   1.000  O
  O283     1.0000 0.81240  0.12180  0.56380  Biso   1.000  O
  O284     1.0000 0.18760  0.87820  0.56380  Biso   1.000  O
  O285     1.0000 0.87820  0.18760  0.43620  Biso   1.000  O
  O286     1.0000 0.12180  0.18760  0.56380  Biso   1.000  O
  O287     1.0000 0.12180  0.81240  0.43620  Biso   1.000  O
  O288     1.0000 0.18760  0.12180  0.43620  Biso   1.000  O
  O289     1.0000 0.25210  0.59610  0.35800  Biso   1.000  O
  O290     1.0000 0.59610  0.25210  0.64200  Biso   1.000  O
  O291     1.0000 0.59610  0.74790  0.35800  Biso   1.000  O
  O292     1.0000 0.40390  0.25210  0.35800  Biso   1.000  O
  O293     1.0000 0.25210  0.40390  0.64200  Biso   1.000  O
  O294     1.0000 0.74790  0.40390  0.35800  Biso   1.000  O
  O295     1.0000 0.74790  0.59610  0.64200  Biso   1.000  O
  O296     1.0000 0.40390  0.74790  0.64200  Biso   1.000  O
  O297     1.0000 0.74790  0.40390  0.64200  Biso   1.000  O
  O298     1.0000 0.40390  0.74790  0.35800  Biso   1.000  O
  O299     1.0000 0.40390  0.25210  0.64200  Biso   1.000  O
  O300     1.0000 0.59610  0.74790  0.64200  Biso   1.000  O
  O301     1.0000 0.74790  0.59610  0.35800  Biso   1.000  O
  O302     1.0000 0.25210  0.59610  0.64200  Biso   1.000  O
  O303     1.0000 0.25210  0.40390  0.35800  Biso   1.000  O
  O304     1.0000 0.59610  0.25210  0.35800  Biso   1.000  O
  O305     1.0000 0.25190  0.38570  0.16900  Biso   1.000  O
  O306     1.0000 0.38570  0.25190  0.83100  Biso   1.000  O
  O307     1.0000 0.38570  0.74810  0.16900  Biso   1.000  O
  O308     1.0000 0.61430  0.25190  0.16900  Biso   1.000  O
  O309     1.0000 0.25190  0.61430  0.83100  Biso   1.000  O
  O310     1.0000 0.74810  0.61430  0.16900  Biso   1.000  O
  O311     1.0000 0.74810  0.38570  0.83100  Biso   1.000  O
  O312     1.0000 0.61430  0.74810  0.83100  Biso   1.000  O
  O313     1.0000 0.74810  0.61430  0.83100  Biso   1.000  O
  O314     1.0000 0.61430  0.74810  0.16900  Biso   1.000  O
  O315     1.0000 0.61430  0.25190  0.83100  Biso   1.000  O
  O316     1.0000 0.38570  0.74810  0.83100  Biso   1.000  O
  O317     1.0000 0.74810  0.38570  0.16900  Biso   1.000  O
  O318     1.0000 0.25190  0.38570  0.83100  Biso   1.000  O
  O319     1.0000 0.25190  0.61430  0.16900  Biso   1.000  O
  O320     1.0000 0.38570  0.25190  0.16900  Biso   1.000  O
  O321     1.0000 0.02640  0.50000  0.09600  Biso   1.000  O
  O322     1.0000 0.50000  0.02640  0.90400  Biso   1.000  O
  O323     1.0000 0.50000  0.97360  0.09600  Biso   1.000  O
  O324     1.0000 0.50000  0.02640  0.09600  Biso   1.000  O
  O325     1.0000 0.02640  0.50000  0.90400  Biso   1.000  O
  O326     1.0000 0.97360  0.50000  0.09600  Biso   1.000  O
  O327     1.0000 0.97360  0.50000  0.90400  Biso   1.000  O
  O328     1.0000 0.50000  0.97360  0.90400  Biso   1.000  O
  O329     1.0000 0.96880  0.20120  0.11500  Biso   1.000  O
  O330     1.0000 0.20120  0.96880  0.88500  Biso   1.000  O
  O331     1.0000 0.20120  0.03120  0.11500  Biso   1.000  O
  O332     1.0000 0.79880  0.96880  0.11500  Biso   1.000  O
  O333     1.0000 0.96880  0.79880  0.88500  Biso   1.000  O
  O334     1.0000 0.03120  0.79880  0.11500  Biso   1.000  O
  O335     1.0000 0.03120  0.20120  0.88500  Biso   1.000  O
  O336     1.0000 0.79880  0.03120  0.88500  Biso   1.000  O
  O337     1.0000 0.03120  0.79880  0.88500  Biso   1.000  O
  O338     1.0000 0.79880  0.03120  0.11500  Biso   1.000  O
  O339     1.0000 0.79880  0.96880  0.88500  Biso   1.000  O
  O340     1.0000 0.20120  0.03120  0.88500  Biso   1.000  O
  O341     1.0000 0.03120  0.20120  0.11500  Biso   1.000  O
  O342     1.0000 0.96880  0.20120  0.88500  Biso   1.000  O
  O343     1.0000 0.96880  0.79880  0.11500  Biso   1.000  O
  O344     1.0000 0.20120  0.96880  0.11500  Biso   1.000  O
  O345     1.0000 0.07050  0.27300  0.11800  Biso   1.000  O
  O346     1.0000 0.27300  0.07050  0.88200  Biso   1.000  O
  O347     1.0000 0.27300  0.92950  0.11800  Biso   1.000  O
  O348     1.0000 0.72700  0.07050  0.11800  Biso   1.000  O
  O349     1.0000 0.07050  0.72700  0.88200  Biso   1.000  O
  O350     1.0000 0.92950  0.72700  0.11800  Biso   1.000  O
  O351     1.0000 0.92950  0.27300  0.88200  Biso   1.000  O
  O352     1.0000 0.72700  0.92950  0.88200  Biso   1.000  O
  O353     1.0000 0.92950  0.72700  0.88200  Biso   1.000  O
  O354     1.0000 0.72700  0.92950  0.11800  Biso   1.000  O
  O355     1.0000 0.72700  0.07050  0.88200  Biso   1.000  O
  O356     1.0000 0.27300  0.92950  0.88200  Biso   1.000  O
  O357     1.0000 0.92950  0.27300  0.11800  Biso   1.000  O
  O358     1.0000 0.07050  0.27300  0.88200  Biso   1.000  O
  O359     1.0000 0.07050  0.72700  0.11800  Biso   1.000  O
  O360     1.0000 0.27300  0.07050  0.11800  Biso   1.000  O
  O361     1.0000 0.30620  0.35610  0.08210  Biso   1.000  O
  O362     1.0000 0.35610  0.30620  0.91790  Biso   1.000  O
  O363     1.0000 0.35610  0.69380  0.08210  Biso   1.000  O
  O364     1.0000 0.64390  0.30620  0.08210  Biso   1.000  O
  O365     1.0000 0.30620  0.64390  0.91790  Biso   1.000  O
  O366     1.0000 0.69380  0.64390  0.08210  Biso   1.000  O
  O367     1.0000 0.69380  0.35610  0.91790  Biso   1.000  O
  O368     1.0000 0.64390  0.69380  0.91790  Biso   1.000  O
  O369     1.0000 0.69380  0.64390  0.91790  Biso   1.000  O
  O370     1.0000 0.64390  0.69380  0.08210  Biso   1.000  O
  O371     1.0000 0.64390  0.30620  0.91790  Biso   1.000  O
  O372     1.0000 0.35610  0.69380  0.91790  Biso   1.000  O
  O373     1.0000 0.69380  0.35610  0.08210  Biso   1.000  O
  O374     1.0000 0.30620  0.35610  0.91790  Biso   1.000  O
  O375     1.0000 0.30620  0.64390  0.08210  Biso   1.000  O
  O376     1.0000 0.35610  0.30620  0.08210  Biso   1.000  O
  O377     1.0000 0.04780  0.33900  0.00000  Biso   1.000  O
  O378     1.0000 0.33900  0.04780  0.00000  Biso   1.000  O
  O379     1.0000 0.33900  0.95220  0.00000  Biso   1.000  O
  O380     1.0000 0.66100  0.04780  0.00000  Biso   1.000  O
  O381     1.0000 0.04780  0.66100  0.00000  Biso   1.000  O
  O382     1.0000 0.95220  0.66100  0.00000  Biso   1.000  O
  O383     1.0000 0.95220  0.33900  0.00000  Biso   1.000  O
  O384     1.0000 0.66100  0.95220  0.00000  Biso   1.000  O
  O385     1.0000 0.18790  0.43680  0.00000  Biso   1.000  O
  O386     1.0000 0.43680  0.18790  0.00000  Biso   1.000  O
  O387     1.0000 0.43680  0.81210  0.00000  Biso   1.000  O
  O388     1.0000 0.56320  0.18790  0.00000  Biso   1.000  O
  O389     1.0000 0.18790  0.56320  0.00000  Biso   1.000  O
  O390     1.0000 0.81210  0.56320  0.00000  Biso   1.000  O
  O391     1.0000 0.81210  0.43680  0.00000  Biso   1.000  O
  O392     1.0000 0.56320  0.81210  0.00000  Biso   1.000  O
  Na1      1.0000 0.27250  0.27250  0.43010  Biso   1.000  Na
  Na2      1.0000 0.27250  0.27250  0.56990  Biso   1.000  Na
  Na3      1.0000 0.27250  0.72750  0.43010  Biso   1.000  Na
  Na4      1.0000 0.72750  0.27250  0.43010  Biso   1.000  Na
  Na5      1.0000 0.27250  0.72750  0.56990  Biso   1.000  Na
  Na6      1.0000 0.72750  0.72750  0.43010  Biso   1.000  Na
  Na7      1.0000 0.72750  0.27250  0.56990  Biso   1.000  Na
  Na8      1.0000 0.72750  0.72750  0.56990  Biso   1.000  Na
  H169     1.0000 0.18710  0.45560  0.55940  Biso   1.000  H
  H170     1.0000 0.45560  0.18710  0.44060  Biso   1.000  H
  H171     1.0000 0.45560  0.81290  0.55940  Biso   1.000  H
  H172     1.0000 0.54440  0.18710  0.55940  Biso   1.000  H
  H173     1.0000 0.18710  0.54440  0.44060  Biso   1.000  H
  H174     1.0000 0.81290  0.54440  0.55940  Biso   1.000  H
  H175     1.0000 0.81290  0.45560  0.44060  Biso   1.000  H
  H176     1.0000 0.54440  0.81290  0.44060  Biso   1.000  H
  H177     1.0000 0.81290  0.54440  0.44060  Biso   1.000  H
  H178     1.0000 0.54440  0.81290  0.55940  Biso   1.000  H
  H179     1.0000 0.54440  0.18710  0.44060  Biso   1.000  H
  H180     1.0000 0.45560  0.81290  0.44060  Biso   1.000  H
  H181     1.0000 0.81290  0.45560  0.55940  Biso   1.000  H
  H182     1.0000 0.18710  0.45560  0.44060  Biso   1.000  H
  H183     1.0000 0.18710  0.54440  0.55940  Biso   1.000  H
  H184     1.0000 0.45560  0.18710  0.55940  Biso   1.000  H
  H185     1.0000 0.18780  0.47460  0.46680  Biso   1.000  H
  H186     1.0000 0.47460  0.18780  0.53320  Biso   1.000  H
  H187     1.0000 0.47460  0.81220  0.46680  Biso   1.000  H
  H188     1.0000 0.52540  0.18780  0.46680  Biso   1.000  H
  H189     1.0000 0.18780  0.52540  0.53320  Biso   1.000  H
  H190     1.0000 0.81220  0.52540  0.46680  Biso   1.000  H
  H191     1.0000 0.81220  0.47460  0.53320  Biso   1.000  H
  H192     1.0000 0.52540  0.81220  0.53320  Biso   1.000  H
  H193     1.0000 0.81220  0.52540  0.53320  Biso   1.000  H
  H194     1.0000 0.52540  0.81220  0.46680  Biso   1.000  H
  H195     1.0000 0.52540  0.18780  0.53320  Biso   1.000  H
  H196     1.0000 0.47460  0.81220  0.53320  Biso   1.000  H
  H197     1.0000 0.81220  0.47460  0.46680  Biso   1.000  H
  H198     1.0000 0.18780  0.47460  0.53320  Biso   1.000  H
  H199     1.0000 0.18780  0.52540  0.46680  Biso   1.000  H
  H200     1.0000 0.47460  0.18780  0.46680  Biso   1.000  H
  H201     1.0000 0.18630  0.43160  0.47380  Biso   1.000  H
  H202     1.0000 0.43160  0.18630  0.52620  Biso   1.000  H
  H203     1.0000 0.43160  0.81370  0.47380  Biso   1.000  H
  H204     1.0000 0.56840  0.18630  0.47380  Biso   1.000  H
  H205     1.0000 0.18630  0.56840  0.52620  Biso   1.000  H
  H206     1.0000 0.81370  0.56840  0.47380  Biso   1.000  H
  H207     1.0000 0.81370  0.43160  0.52620  Biso   1.000  H
  H208     1.0000 0.56840  0.81370  0.52620  Biso   1.000  H
  H209     1.0000 0.81370  0.56840  0.52620  Biso   1.000  H
  H210     1.0000 0.56840  0.81370  0.47380  Biso   1.000  H
  H211     1.0000 0.56840  0.18630  0.52620  Biso   1.000  H
  H212     1.0000 0.43160  0.81370  0.52620  Biso   1.000  H
  H213     1.0000 0.81370  0.43160  0.47380  Biso   1.000  H
  H214     1.0000 0.18630  0.43160  0.52620  Biso   1.000  H
  H215     1.0000 0.18630  0.56840  0.47380  Biso   1.000  H
  H216     1.0000 0.43160  0.18630  0.47380  Biso   1.000  H
  H217     1.0000 0.23500  0.29790  0.05950  Biso   1.000  H
  H218     1.0000 0.29790  0.23500  0.94050  Biso   1.000  H
  H219     1.0000 0.29790  0.76500  0.05950  Biso   1.000  H
  H220     1.0000 0.70210  0.23500  0.05950  Biso   1.000  H
  H221     1.0000 0.23500  0.70210  0.94050  Biso   1.000  H
  H222     1.0000 0.76500  0.70210  0.05950  Biso   1.000  H
  H223     1.0000 0.76500  0.29790  0.94050  Biso   1.000  H
  H224     1.0000 0.70210  0.76500  0.94050  Biso   1.000  H
  H225     1.0000 0.76500  0.70210  0.94050  Biso   1.000  H
  H226     1.0000 0.70210  0.76500  0.05950  Biso   1.000  H
  H227     1.0000 0.70210  0.23500  0.94050  Biso   1.000  H
  H228     1.0000 0.29790  0.76500  0.94050  Biso   1.000  H
  H229     1.0000 0.76500  0.29790  0.05950  Biso   1.000  H
  H230     1.0000 0.23500  0.29790  0.94050  Biso   1.000  H
  H231     1.0000 0.23500  0.70210  0.05950  Biso   1.000  H
  H232     1.0000 0.29790  0.23500  0.05950  Biso   1.000  H
  H233     1.0000 0.21900  0.31370  0.97160  Biso   1.000  H
  H234     1.0000 0.31370  0.21900  0.02840  Biso   1.000  H
  H235     1.0000 0.31370  0.78100  0.97160  Biso   1.000  H
  H236     1.0000 0.68630  0.21900  0.97160  Biso   1.000  H
  H237     1.0000 0.21900  0.68630  0.02840  Biso   1.000  H
  H238     1.0000 0.78100  0.68630  0.97160  Biso   1.000  H
  H239     1.0000 0.78100  0.31370  0.02840  Biso   1.000  H
  H240     1.0000 0.68630  0.78100  0.02840  Biso   1.000  H
  H241     1.0000 0.78100  0.68630  0.02840  Biso   1.000  H
  H242     1.0000 0.68630  0.78100  0.97160  Biso   1.000  H
  H243     1.0000 0.68630  0.21900  0.02840  Biso   1.000  H
  H244     1.0000 0.31370  0.78100  0.02840  Biso   1.000  H
  H245     1.0000 0.78100  0.31370  0.97160  Biso   1.000  H
  H246     1.0000 0.21900  0.31370  0.02840  Biso   1.000  H
  H247     1.0000 0.21900  0.68630  0.97160  Biso   1.000  H
  H248     1.0000 0.31370  0.21900  0.97160  Biso   1.000  H
  H249     1.0000 0.24970  0.28340  0.96890  Biso   1.000  H
  H250     1.0000 0.28340  0.24970  0.03110  Biso   1.000  H
  H251     1.0000 0.28340  0.75030  0.96890  Biso   1.000  H
  H252     1.0000 0.71660  0.24970  0.96890  Biso   1.000  H
  H253     1.0000 0.24970  0.71660  0.03110  Biso   1.000  H
  H254     1.0000 0.75030  0.71660  0.96890  Biso   1.000  H
  H255     1.0000 0.75030  0.28340  0.03110  Biso   1.000  H
  H256     1.0000 0.71660  0.75030  0.03110  Biso   1.000  H
  H257     1.0000 0.75030  0.71660  0.03110  Biso   1.000  H
  H258     1.0000 0.71660  0.75030  0.96890  Biso   1.000  H
  H259     1.0000 0.71660  0.24970  0.03110  Biso   1.000  H
  H260     1.0000 0.28340  0.75030  0.03110  Biso   1.000  H
  H261     1.0000 0.75030  0.28340  0.96890  Biso   1.000  H
  H262     1.0000 0.24970  0.28340  0.03110  Biso   1.000  H
  H263     1.0000 0.24970  0.71660  0.96890  Biso   1.000  H
  H264     1.0000 0.28340  0.24970  0.96890  Biso   1.000  H
  H265     1.0000 0.04660  0.36740  0.55950  Biso   1.000  H
  H266     1.0000 0.36740  0.04660  0.44050  Biso   1.000  H
  H267     1.0000 0.36740  0.95340  0.55950  Biso   1.000  H
  H268     1.0000 0.63260  0.04660  0.55950  Biso   1.000  H
  H269     1.0000 0.04660  0.63260  0.44050  Biso   1.000  H
  H270     1.0000 0.95340  0.63260  0.55950  Biso   1.000  H
  H271     1.0000 0.95340  0.36740  0.44050  Biso   1.000  H
  H272     1.0000 0.63260  0.95340  0.44050  Biso   1.000  H
  H273     1.0000 0.95340  0.63260  0.44050  Biso   1.000  H
  H274     1.0000 0.63260  0.95340  0.55950  Biso   1.000  H
  H275     1.0000 0.63260  0.04660  0.44050  Biso   1.000  H
  H276     1.0000 0.36740  0.95340  0.44050  Biso   1.000  H
  H277     1.0000 0.95340  0.36740  0.55950  Biso   1.000  H
  H278     1.0000 0.04660  0.36740  0.44050  Biso   1.000  H
  H279     1.0000 0.04660  0.63260  0.55950  Biso   1.000  H
  H280     1.0000 0.36740  0.04660  0.55950  Biso   1.000  H
  H281     1.0000 0.02480  0.36730  0.47060  Biso   1.000  H
  H282     1.0000 0.36730  0.02480  0.52940  Biso   1.000  H
  H283     1.0000 0.36730  0.97520  0.47060  Biso   1.000  H
  H284     1.0000 0.63270  0.02480  0.47060  Biso   1.000  H
  H285     1.0000 0.02480  0.63270  0.52940  Biso   1.000  H
  H286     1.0000 0.97520  0.63270  0.47060  Biso   1.000  H
  H287     1.0000 0.97520  0.36730  0.52940  Biso   1.000  H
  H288     1.0000 0.63270  0.97520  0.52940  Biso   1.000  H
  H289     1.0000 0.97520  0.63270  0.52940  Biso   1.000  H
  H290     1.0000 0.63270  0.97520  0.47060  Biso   1.000  H
  H291     1.0000 0.63270  0.02480  0.52940  Biso   1.000  H
  H292     1.0000 0.36730  0.97520  0.52940  Biso   1.000  H
  H293     1.0000 0.97520  0.36730  0.47060  Biso   1.000  H
  H294     1.0000 0.02480  0.36730  0.52940  Biso   1.000  H
  H295     1.0000 0.02480  0.63270  0.47060  Biso   1.000  H
  H296     1.0000 0.36730  0.02480  0.47060  Biso   1.000  H
  H297     1.0000 0.06790  0.36740  0.46990  Biso   1.000  H
  H298     1.0000 0.36740  0.06790  0.53010  Biso   1.000  H
  H299     1.0000 0.36740  0.93210  0.46990  Biso   1.000  H
  H300     1.0000 0.63260  0.06790  0.46990  Biso   1.000  H
  H301     1.0000 0.06790  0.63260  0.53010  Biso   1.000  H
  H302     1.0000 0.93210  0.63260  0.46990  Biso   1.000  H
  H303     1.0000 0.93210  0.36740  0.53010  Biso   1.000  H
  H304     1.0000 0.63260  0.93210  0.53010  Biso   1.000  H
  H305     1.0000 0.93210  0.63260  0.53010  Biso   1.000  H
  H306     1.0000 0.63260  0.93210  0.46990  Biso   1.000  H
  H307     1.0000 0.63260  0.06790  0.53010  Biso   1.000  H
  H308     1.0000 0.36740  0.93210  0.53010  Biso   1.000  H
  H309     1.0000 0.93210  0.36740  0.46990  Biso   1.000  H
  H310     1.0000 0.06790  0.36740  0.53010  Biso   1.000  H
  H311     1.0000 0.06790  0.63260  0.46990  Biso   1.000  H
  H312     1.0000 0.36740  0.06790  0.46990  Biso   1.000  H
  O393     1.0000 0.21530  0.29840  0.50000  Biso   1.000  O
  O394     1.0000 0.29840  0.21530  0.50000  Biso   1.000  O
  O395     1.0000 0.29840  0.78470  0.50000  Biso   1.000  O
  O396     1.0000 0.70160  0.21530  0.50000  Biso   1.000  O
  O397     1.0000 0.21530  0.70160  0.50000  Biso   1.000  O
  O398     1.0000 0.78470  0.70160  0.50000  Biso   1.000  O
  O399     1.0000 0.78470  0.29840  0.50000  Biso   1.000  O
  O400     1.0000 0.70160  0.78470  0.50000  Biso   1.000  O
  O401     1.0000 0.30690  0.32650  0.35530  Biso   1.000  O
  O402     1.0000 0.32650  0.30690  0.64470  Biso   1.000  O
  O403     1.0000 0.32650  0.69310  0.35530  Biso   1.000  O
  O404     1.0000 0.67350  0.30690  0.35530  Biso   1.000  O
  O405     1.0000 0.30690  0.67350  0.64470  Biso   1.000  O
  O406     1.0000 0.69310  0.67350  0.35530  Biso   1.000  O
  O407     1.0000 0.69310  0.32650  0.64470  Biso   1.000  O
  O408     1.0000 0.67350  0.69310  0.64470  Biso   1.000  O
  O409     1.0000 0.69310  0.67350  0.64470  Biso   1.000  O
  O410     1.0000 0.67350  0.69310  0.35530  Biso   1.000  O
  O411     1.0000 0.67350  0.30690  0.64470  Biso   1.000  O
  O412     1.0000 0.32650  0.69310  0.64470  Biso   1.000  O
  O413     1.0000 0.69310  0.32650  0.35530  Biso   1.000  O
  O414     1.0000 0.30690  0.32650  0.64470  Biso   1.000  O
  O415     1.0000 0.30690  0.67350  0.35530  Biso   1.000  O
  O416     1.0000 0.32650  0.30690  0.35530  Biso   1.000  O
  O417     1.0000 0.18100  0.14190  0.38000  Biso   1.000  O
  O418     1.0000 0.14190  0.18100  0.62000  Biso   1.000  O
  O419     1.0000 0.14190  0.81900  0.38000  Biso   1.000  O
  O420     1.0000 0.85810  0.18100  0.38000  Biso   1.000  O
  O421     1.0000 0.18100  0.85810  0.62000  Biso   1.000  O
  O422     1.0000 0.81900  0.85810  0.38000  Biso   1.000  O
  O423     1.0000 0.81900  0.14190  0.62000  Biso   1.000  O
  O424     1.0000 0.85810  0.81900  0.62000  Biso   1.000  O
  O425     1.0000 0.81900  0.85810  0.62000  Biso   1.000  O
  O426     1.0000 0.85810  0.81900  0.38000  Biso   1.000  O
  O427     1.0000 0.85810  0.18100  0.62000  Biso   1.000  O
  O428     1.0000 0.14190  0.81900  0.62000  Biso   1.000  O
  O429     1.0000 0.81900  0.14190  0.38000  Biso   1.000  O
  O430     1.0000 0.18100  0.14190  0.62000  Biso   1.000  O
  O431     1.0000 0.18100  0.85810  0.38000  Biso   1.000  O
  O432     1.0000 0.14190  0.18100  0.38000  Biso   1.000  O
  O433     1.0000 0.36480  0.37920  0.10400  Biso   1.000  O
  O434     1.0000 0.37920  0.36480  0.89600  Biso   1.000  O
  O435     1.0000 0.37920  0.63520  0.10400  Biso   1.000  O
  O436     1.0000 0.62080  0.36480  0.10400  Biso   1.000  O
  O437     1.0000 0.36480  0.62080  0.89600  Biso   1.000  O
  O438     1.0000 0.63520  0.62080  0.10400  Biso   1.000  O
  O439     1.0000 0.63520  0.37920  0.89600  Biso   1.000  O
  O440     1.0000 0.62080  0.63520  0.89600  Biso   1.000  O
  O441     1.0000 0.63520  0.62080  0.89600  Biso   1.000  O
  O442     1.0000 0.62080  0.63520  0.10400  Biso   1.000  O
  O443     1.0000 0.62080  0.36480  0.89600  Biso   1.000  O
  O444     1.0000 0.37920  0.63520  0.89600  Biso   1.000  O
  O445     1.0000 0.63520  0.37920  0.10400  Biso   1.000  O
  O446     1.0000 0.36480  0.37920  0.89600  Biso   1.000  O
  O447     1.0000 0.36480  0.62080  0.10400  Biso   1.000  O
  O448     1.0000 0.37920  0.36480  0.10400  Biso   1.000  O
  Na9      1.0000 0.19240  0.50000  0.06480  Biso   1.000  Na
  Na10     1.0000 0.50000  0.19240  0.93520  Biso   1.000  Na
  Na11     1.0000 0.50000  0.80760  0.06480  Biso   1.000  Na
  Na12     1.0000 0.50000  0.19240  0.06480  Biso   1.000  Na
  Na13     1.0000 0.19240  0.50000  0.93520  Biso   1.000  Na
  Na14     1.0000 0.80760  0.50000  0.06480  Biso   1.000  Na
  Na15     1.0000 0.80760  0.50000  0.93520  Biso   1.000  Na
  Na16     1.0000 0.50000  0.80760  0.93520  Biso   1.000  Na
  Na17     1.0000 0.00000  0.36460  0.06200  Biso   1.000  Na
  Na18     1.0000 0.36460  0.00000  0.93800  Biso   1.000  Na
  Na19     1.0000 0.36460  0.00000  0.06200  Biso   1.000  Na
  Na20     1.0000 0.63540  0.00000  0.06200  Biso   1.000  Na
  Na21     1.0000 0.00000  0.63540  0.93800  Biso   1.000  Na
  Na22     1.0000 0.00000  0.63540  0.06200  Biso   1.000  Na
  Na23     1.0000 0.00000  0.36460  0.93800  Biso   1.000  Na
  Na24     1.0000 0.63540  0.00000  0.93800  Biso   1.000  Na
