data_image0
_cell_length_a       20.365
_cell_length_b       20.365
_cell_length_c       43.165
_cell_angle_alpha    90
_cell_angle_beta     90
_cell_angle_gamma    120

_symmetry_space_group_name_H-M    "P 1"
_symmetry_int_tables_number       1

loop_
  _symmetry_equiv_pos_as_xyz
  'x, y, z'

loop_
  _atom_site_label
  _atom_site_occupancy
  _atom_site_fract_x
  _atom_site_fract_y
  _atom_site_fract_z
  _atom_site_thermal_displace_type
  _atom_site_B_iso_or_equiv
  _atom_site_type_symbol
  Cu1      1.0000 0.11853  0.26860  0.07504  Biso   1.000  Cu
  Cu2      1.0000 0.73140  0.84993  0.07504  Biso   1.000  Cu
  Cu3      1.0000 0.15007  0.88147  0.07504  Biso   1.000  Cu
  Cu4      1.0000 0.78520  0.60193  0.40837  Biso   1.000  Cu
  Cu5      1.0000 0.39807  0.18326  0.40837  Biso   1.000  Cu
  Cu6      1.0000 0.81674  0.21480  0.40837  Biso   1.000  Cu
  Cu7      1.0000 0.45186  0.93527  0.74171  Biso   1.000  Cu
  Cu8      1.0000 0.06473  0.51660  0.74171  Biso   1.000  Cu
  Cu9      1.0000 0.48340  0.54814  0.74171  Biso   1.000  Cu
  Cu10     1.0000 0.88147  0.73140  0.92496  Biso   1.000  Cu
  Cu11     1.0000 0.26860  0.15007  0.92496  Biso   1.000  Cu
  Cu12     1.0000 0.84993  0.11853  0.92496  Biso   1.000  Cu
  Cu13     1.0000 0.54814  0.06473  0.25829  Biso   1.000  Cu
  Cu14     1.0000 0.93527  0.48340  0.25829  Biso   1.000  Cu
  Cu15     1.0000 0.51660  0.45186  0.25829  Biso   1.000  Cu
  Cu16     1.0000 0.21480  0.39807  0.59163  Biso   1.000  Cu
  Cu17     1.0000 0.60193  0.81674  0.59163  Biso   1.000  Cu
  Cu18     1.0000 0.18326  0.78520  0.59163  Biso   1.000  Cu
  O1       1.0000 0.23490  0.37770  0.12339  Biso   1.000  O
  O2       1.0000 0.62230  0.85720  0.12339  Biso   1.000  O
  O3       1.0000 0.14280  0.76510  0.12339  Biso   1.000  O
  O4       1.0000 0.90157  0.71103  0.45672  Biso   1.000  O
  O5       1.0000 0.28897  0.19053  0.45672  Biso   1.000  O
  O6       1.0000 0.80947  0.09843  0.45672  Biso   1.000  O
  O7       1.0000 0.56823  0.04437  0.79006  Biso   1.000  O
  O8       1.0000 0.95563  0.52387  0.79006  Biso   1.000  O
  O9       1.0000 0.47613  0.43177  0.79006  Biso   1.000  O
  O10      1.0000 0.76510  0.62230  0.87661  Biso   1.000  O
  O11      1.0000 0.37770  0.14280  0.87661  Biso   1.000  O
  O12      1.0000 0.85720  0.23490  0.87661  Biso   1.000  O
  O13      1.0000 0.43177  0.95563  0.20994  Biso   1.000  O
  O14      1.0000 0.04437  0.47613  0.20994  Biso   1.000  O
  O15      1.0000 0.52387  0.56823  0.20994  Biso   1.000  O
  O16      1.0000 0.09843  0.28897  0.54328  Biso   1.000  O
  O17      1.0000 0.71103  0.80947  0.54328  Biso   1.000  O
  O18      1.0000 0.19053  0.90157  0.54328  Biso   1.000  O
  C1       1.0000 0.12000  0.87820  0.24490  Biso   1.000  C
  C2       1.0000 0.12180  0.24180  0.24490  Biso   1.000  C
  C3       1.0000 0.75820  0.88000  0.24490  Biso   1.000  C
  C4       1.0000 0.78667  0.21153  0.57823  Biso   1.000  C
  C5       1.0000 0.78847  0.57513  0.57823  Biso   1.000  C
  C6       1.0000 0.42487  0.21333  0.57823  Biso   1.000  C
  C7       1.0000 0.45333  0.54487  0.91157  Biso   1.000  C
  C8       1.0000 0.45513  0.90847  0.91157  Biso   1.000  C
  C9       1.0000 0.09153  0.54667  0.91157  Biso   1.000  C
  C10      1.0000 0.88000  0.12180  0.75510  Biso   1.000  C
  C11      1.0000 0.87820  0.75820  0.75510  Biso   1.000  C
  C12      1.0000 0.24180  0.12000  0.75510  Biso   1.000  C
  C13      1.0000 0.54667  0.45513  0.08843  Biso   1.000  C
  C14      1.0000 0.54487  0.09153  0.08843  Biso   1.000  C
  C15      1.0000 0.90847  0.45333  0.08843  Biso   1.000  C
  C16      1.0000 0.21333  0.78847  0.42177  Biso   1.000  C
  C17      1.0000 0.21153  0.42487  0.42177  Biso   1.000  C
  C18      1.0000 0.57513  0.78667  0.42177  Biso   1.000  C
  C19      1.0000 0.16430  0.89390  0.21840  Biso   1.000  C
  C20      1.0000 0.10610  0.27040  0.21840  Biso   1.000  C
  C21      1.0000 0.72960  0.83570  0.21840  Biso   1.000  C
  C22      1.0000 0.83097  0.22723  0.55173  Biso   1.000  C
  C23      1.0000 0.77277  0.60373  0.55173  Biso   1.000  C
  C24      1.0000 0.39627  0.16903  0.55173  Biso   1.000  C
  C25      1.0000 0.49763  0.56057  0.88507  Biso   1.000  C
  C26      1.0000 0.43943  0.93707  0.88507  Biso   1.000  C
  C27      1.0000 0.06293  0.50237  0.88507  Biso   1.000  C
  C28      1.0000 0.83570  0.10610  0.78160  Biso   1.000  C
  C29      1.0000 0.89390  0.72960  0.78160  Biso   1.000  C
  C30      1.0000 0.27040  0.16430  0.78160  Biso   1.000  C
  C31      1.0000 0.50237  0.43943  0.11493  Biso   1.000  C
  C32      1.0000 0.56057  0.06293  0.11493  Biso   1.000  C
  C33      1.0000 0.93707  0.49763  0.11493  Biso   1.000  C
  C34      1.0000 0.16903  0.77277  0.44827  Biso   1.000  C
  C35      1.0000 0.22723  0.39627  0.44827  Biso   1.000  C
  C36      1.0000 0.60373  0.83097  0.44827  Biso   1.000  C
  H1       1.0000 0.18900  0.86690  0.21430  Biso   1.000  H
  H2       1.0000 0.13310  0.32210  0.21430  Biso   1.000  H
  H3       1.0000 0.67790  0.81100  0.21430  Biso   1.000  H
  H4       1.0000 0.85567  0.20023  0.54763  Biso   1.000  H
  H5       1.0000 0.79977  0.65543  0.54763  Biso   1.000  H
  H6       1.0000 0.34457  0.14433  0.54763  Biso   1.000  H
  H7       1.0000 0.52233  0.53357  0.88097  Biso   1.000  H
  H8       1.0000 0.46643  0.98877  0.88097  Biso   1.000  H
  H9       1.0000 0.01123  0.47767  0.88097  Biso   1.000  H
  H10      1.0000 0.81100  0.13310  0.78570  Biso   1.000  H
  H11      1.0000 0.86690  0.67790  0.78570  Biso   1.000  H
  H12      1.0000 0.32210  0.18900  0.78570  Biso   1.000  H
  H13      1.0000 0.47767  0.46643  0.11903  Biso   1.000  H
  H14      1.0000 0.53357  0.01123  0.11903  Biso   1.000  H
  H15      1.0000 0.98877  0.52233  0.11903  Biso   1.000  H
  H16      1.0000 0.14433  0.79977  0.45237  Biso   1.000  H
  H17      1.0000 0.20023  0.34457  0.45237  Biso   1.000  H
  H18      1.0000 0.65543  0.85567  0.45237  Biso   1.000  H
  C37      1.0000 0.17160  0.95000  0.19804  Biso   1.000  C
  C38      1.0000 0.05000  0.22160  0.19804  Biso   1.000  C
  C39      1.0000 0.77840  0.82840  0.19804  Biso   1.000  C
  C40      1.0000 0.83827  0.28333  0.53137  Biso   1.000  C
  C41      1.0000 0.71667  0.55493  0.53137  Biso   1.000  C
  C42      1.0000 0.44507  0.16173  0.53137  Biso   1.000  C
  C43      1.0000 0.50493  0.61667  0.86471  Biso   1.000  C
  C44      1.0000 0.38333  0.88827  0.86471  Biso   1.000  C
  C45      1.0000 0.11173  0.49507  0.86471  Biso   1.000  C
  C46      1.0000 0.82840  0.05000  0.80196  Biso   1.000  C
  C47      1.0000 0.95000  0.77840  0.80196  Biso   1.000  C
  C48      1.0000 0.22160  0.17160  0.80196  Biso   1.000  C
  C49      1.0000 0.49507  0.38333  0.13529  Biso   1.000  C
  C50      1.0000 0.61667  0.11173  0.13529  Biso   1.000  C
  C51      1.0000 0.88827  0.50493  0.13529  Biso   1.000  C
  C52      1.0000 0.16173  0.71667  0.46863  Biso   1.000  C
  C53      1.0000 0.28333  0.44507  0.46863  Biso   1.000  C
  C54      1.0000 0.55493  0.83827  0.46863  Biso   1.000  C
  H19      1.0000 0.20120  0.96060  0.18030  Biso   1.000  H
  H20      1.0000 0.03940  0.24060  0.18030  Biso   1.000  H
  H21      1.0000 0.75940  0.79880  0.18030  Biso   1.000  H
  H22      1.0000 0.86787  0.29393  0.51363  Biso   1.000  H
  H23      1.0000 0.70607  0.57393  0.51363  Biso   1.000  H
  H24      1.0000 0.42607  0.13213  0.51363  Biso   1.000  H
  H25      1.0000 0.53453  0.62727  0.84697  Biso   1.000  H
  H26      1.0000 0.37273  0.90727  0.84697  Biso   1.000  H
  H27      1.0000 0.09273  0.46547  0.84697  Biso   1.000  H
  H28      1.0000 0.79880  0.03940  0.81970  Biso   1.000  H
  H29      1.0000 0.96060  0.75940  0.81970  Biso   1.000  H
  H30      1.0000 0.24060  0.20120  0.81970  Biso   1.000  H
  H31      1.0000 0.46547  0.37273  0.15303  Biso   1.000  H
  H32      1.0000 0.62727  0.09273  0.15303  Biso   1.000  H
  H33      1.0000 0.90727  0.53453  0.15303  Biso   1.000  H
  H34      1.0000 0.13213  0.70607  0.48637  Biso   1.000  H
  H35      1.0000 0.29393  0.42607  0.48637  Biso   1.000  H
  H36      1.0000 0.57393  0.86787  0.48637  Biso   1.000  H
  C55      1.0000 0.13460  0.99040  0.20410  Biso   1.000  C
  C56      1.0000 0.00960  0.14420  0.20410  Biso   1.000  C
  C57      1.0000 0.85580  0.86540  0.20410  Biso   1.000  C
  C58      1.0000 0.80127  0.32373  0.53743  Biso   1.000  C
  C59      1.0000 0.67627  0.47753  0.53743  Biso   1.000  C
  C60      1.0000 0.52247  0.19873  0.53743  Biso   1.000  C
  C61      1.0000 0.46793  0.65707  0.87077  Biso   1.000  C
  C62      1.0000 0.34293  0.81087  0.87077  Biso   1.000  C
  C63      1.0000 0.18913  0.53207  0.87077  Biso   1.000  C
  C64      1.0000 0.86540  0.00960  0.79590  Biso   1.000  C
  C65      1.0000 0.99040  0.85580  0.79590  Biso   1.000  C
  C66      1.0000 0.14420  0.13460  0.79590  Biso   1.000  C
  C67      1.0000 0.53207  0.34293  0.12923  Biso   1.000  C
  C68      1.0000 0.65707  0.18913  0.12923  Biso   1.000  C
  C69      1.0000 0.81087  0.46793  0.12923  Biso   1.000  C
  C70      1.0000 0.19873  0.67627  0.46257  Biso   1.000  C
  C71      1.0000 0.32373  0.52247  0.46257  Biso   1.000  C
  C72      1.0000 0.47753  0.80127  0.46257  Biso   1.000  C
  C73      1.0000 0.09030  0.97470  0.23060  Biso   1.000  C
  C74      1.0000 0.02530  0.11560  0.23060  Biso   1.000  C
  C75      1.0000 0.88440  0.90970  0.23060  Biso   1.000  C
  C76      1.0000 0.75697  0.30803  0.56393  Biso   1.000  C
  C77      1.0000 0.69197  0.44893  0.56393  Biso   1.000  C
  C78      1.0000 0.55107  0.24303  0.56393  Biso   1.000  C
  C79      1.0000 0.42363  0.64137  0.89727  Biso   1.000  C
  C80      1.0000 0.35863  0.78227  0.89727  Biso   1.000  C
  C81      1.0000 0.21773  0.57637  0.89727  Biso   1.000  C
  C82      1.0000 0.90970  0.02530  0.76940  Biso   1.000  C
  C83      1.0000 0.97470  0.88440  0.76940  Biso   1.000  C
  C84      1.0000 0.11560  0.09030  0.76940  Biso   1.000  C
  C85      1.0000 0.57637  0.35863  0.10273  Biso   1.000  C
  C86      1.0000 0.64137  0.21773  0.10273  Biso   1.000  C
  C87      1.0000 0.78227  0.42363  0.10273  Biso   1.000  C
  C88      1.0000 0.24303  0.69197  0.43607  Biso   1.000  C
  C89      1.0000 0.30803  0.55107  0.43607  Biso   1.000  C
  C90      1.0000 0.44893  0.75697  0.43607  Biso   1.000  C
  H37      1.0000 0.06560  0.00170  0.23470  Biso   1.000  H
  H38      1.0000 0.99830  0.06390  0.23470  Biso   1.000  H
  H39      1.0000 0.93610  0.93440  0.23470  Biso   1.000  H
  H40      1.0000 0.73227  0.33503  0.56803  Biso   1.000  H
  H41      1.0000 0.66497  0.39723  0.56803  Biso   1.000  H
  H42      1.0000 0.60277  0.26773  0.56803  Biso   1.000  H
  H43      1.0000 0.39893  0.66837  0.90137  Biso   1.000  H
  H44      1.0000 0.33163  0.73057  0.90137  Biso   1.000  H
  H45      1.0000 0.26943  0.60107  0.90137  Biso   1.000  H
  H46      1.0000 0.93440  0.99830  0.76530  Biso   1.000  H
  H47      1.0000 0.00170  0.93610  0.76530  Biso   1.000  H
  H48      1.0000 0.06390  0.06560  0.76530  Biso   1.000  H
  H49      1.0000 0.60107  0.33163  0.09863  Biso   1.000  H
  H50      1.0000 0.66837  0.26943  0.09863  Biso   1.000  H
  H51      1.0000 0.73057  0.39893  0.09863  Biso   1.000  H
  H52      1.0000 0.26773  0.66497  0.43197  Biso   1.000  H
  H53      1.0000 0.33503  0.60277  0.43197  Biso   1.000  H
  H54      1.0000 0.39723  0.73227  0.43197  Biso   1.000  H
  C91      1.0000 0.08300  0.91860  0.25100  Biso   1.000  C
  C92      1.0000 0.08140  0.16440  0.25100  Biso   1.000  C
  C93      1.0000 0.83560  0.91700  0.25100  Biso   1.000  C
  C94      1.0000 0.74967  0.25193  0.58433  Biso   1.000  C
  C95      1.0000 0.74807  0.49773  0.58433  Biso   1.000  C
  C96      1.0000 0.50227  0.25033  0.58433  Biso   1.000  C
  C97      1.0000 0.41633  0.58527  0.91767  Biso   1.000  C
  C98      1.0000 0.41473  0.83107  0.91767  Biso   1.000  C
  C99      1.0000 0.16893  0.58367  0.91767  Biso   1.000  C
  C100     1.0000 0.91700  0.08140  0.74900  Biso   1.000  C
  C101     1.0000 0.91860  0.83560  0.74900  Biso   1.000  C
  C102     1.0000 0.16440  0.08300  0.74900  Biso   1.000  C
  C103     1.0000 0.58367  0.41473  0.08233  Biso   1.000  C
  C104     1.0000 0.58527  0.16893  0.08233  Biso   1.000  C
  C105     1.0000 0.83107  0.41633  0.08233  Biso   1.000  C
  C106     1.0000 0.25033  0.74807  0.41567  Biso   1.000  C
  C107     1.0000 0.25193  0.50227  0.41567  Biso   1.000  C
  C108     1.0000 0.49773  0.74967  0.41567  Biso   1.000  C
  H55      1.0000 0.05340  0.90810  0.26870  Biso   1.000  H
  H56      1.0000 0.09190  0.14530  0.26870  Biso   1.000  H
  H57      1.0000 0.85470  0.94660  0.26870  Biso   1.000  H
  H58      1.0000 0.72007  0.24143  0.60203  Biso   1.000  H
  H59      1.0000 0.75857  0.47863  0.60203  Biso   1.000  H
  H60      1.0000 0.52137  0.27993  0.60203  Biso   1.000  H
  H61      1.0000 0.38673  0.57477  0.93537  Biso   1.000  H
  H62      1.0000 0.42523  0.81197  0.93537  Biso   1.000  H
  H63      1.0000 0.18803  0.61327  0.93537  Biso   1.000  H
  H64      1.0000 0.94660  0.09190  0.73130  Biso   1.000  H
  H65      1.0000 0.90810  0.85470  0.73130  Biso   1.000  H
  H66      1.0000 0.14530  0.05340  0.73130  Biso   1.000  H
  H67      1.0000 0.61327  0.42523  0.06463  Biso   1.000  H
  H68      1.0000 0.57477  0.18803  0.06463  Biso   1.000  H
  H69      1.0000 0.81197  0.38673  0.06463  Biso   1.000  H
  H70      1.0000 0.27993  0.75857  0.39797  Biso   1.000  H
  H71      1.0000 0.24143  0.52137  0.39797  Biso   1.000  H
  H72      1.0000 0.47863  0.72007  0.39797  Biso   1.000  H
  C109     1.0000 0.16390  0.05970  0.17780  Biso   1.000  C
  C110     1.0000 0.94030  0.10420  0.17780  Biso   1.000  C
  C111     1.0000 0.89580  0.83610  0.17780  Biso   1.000  C
  C112     1.0000 0.83057  0.39303  0.51113  Biso   1.000  C
  C113     1.0000 0.60697  0.43753  0.51113  Biso   1.000  C
  C114     1.0000 0.56247  0.16943  0.51113  Biso   1.000  C
  C115     1.0000 0.49723  0.72637  0.84447  Biso   1.000  C
  C116     1.0000 0.27363  0.77087  0.84447  Biso   1.000  C
  C117     1.0000 0.22913  0.50277  0.84447  Biso   1.000  C
  C118     1.0000 0.83610  0.94030  0.82220  Biso   1.000  C
  C119     1.0000 0.05970  0.89580  0.82220  Biso   1.000  C
  C120     1.0000 0.10420  0.16390  0.82220  Biso   1.000  C
  C121     1.0000 0.50277  0.27363  0.15553  Biso   1.000  C
  C122     1.0000 0.72637  0.22913  0.15553  Biso   1.000  C
  C123     1.0000 0.77087  0.49723  0.15553  Biso   1.000  C
  C124     1.0000 0.16943  0.60697  0.48887  Biso   1.000  C
  C125     1.0000 0.39303  0.56247  0.48887  Biso   1.000  C
  C126     1.0000 0.43753  0.83057  0.48887  Biso   1.000  C
  H73      1.0000 0.17790  0.04560  0.15850  Biso   1.000  H
  H74      1.0000 0.95440  0.13230  0.15850  Biso   1.000  H
  H75      1.0000 0.86770  0.82210  0.15850  Biso   1.000  H
  H76      1.0000 0.84457  0.37893  0.49183  Biso   1.000  H
  H77      1.0000 0.62107  0.46563  0.49183  Biso   1.000  H
  H78      1.0000 0.53437  0.15543  0.49183  Biso   1.000  H
  H79      1.0000 0.51123  0.71227  0.82517  Biso   1.000  H
  H80      1.0000 0.28773  0.79897  0.82517  Biso   1.000  H
  H81      1.0000 0.20103  0.48877  0.82517  Biso   1.000  H
  H82      1.0000 0.82210  0.95440  0.84150  Biso   1.000  H
  H83      1.0000 0.04560  0.86770  0.84150  Biso   1.000  H
  H84      1.0000 0.13230  0.17790  0.84150  Biso   1.000  H
  H85      1.0000 0.48877  0.28773  0.17483  Biso   1.000  H
  H86      1.0000 0.71227  0.20103  0.17483  Biso   1.000  H
  H87      1.0000 0.79897  0.51123  0.17483  Biso   1.000  H
  H88      1.0000 0.15543  0.62107  0.50817  Biso   1.000  H
  H89      1.0000 0.37893  0.53437  0.50817  Biso   1.000  H
  H90      1.0000 0.46563  0.84457  0.50817  Biso   1.000  H
  H91      1.0000 0.12560  0.07370  0.17380  Biso   1.000  H
  H92      1.0000 0.92630  0.05190  0.17380  Biso   1.000  H
  H93      1.0000 0.94810  0.87440  0.17380  Biso   1.000  H
  H94      1.0000 0.79227  0.40703  0.50713  Biso   1.000  H
  H95      1.0000 0.59297  0.38523  0.50713  Biso   1.000  H
  H96      1.0000 0.61477  0.20773  0.50713  Biso   1.000  H
  H97      1.0000 0.45893  0.74037  0.84047  Biso   1.000  H
  H98      1.0000 0.25963  0.71857  0.84047  Biso   1.000  H
  H99      1.0000 0.28143  0.54107  0.84047  Biso   1.000  H
  H100     1.0000 0.87440  0.92630  0.82620  Biso   1.000  H
  H101     1.0000 0.07370  0.94810  0.82620  Biso   1.000  H
  H102     1.0000 0.05190  0.12560  0.82620  Biso   1.000  H
  H103     1.0000 0.54107  0.25963  0.15953  Biso   1.000  H
  H104     1.0000 0.74037  0.28143  0.15953  Biso   1.000  H
  H105     1.0000 0.71857  0.45893  0.15953  Biso   1.000  H
  H106     1.0000 0.20773  0.59297  0.49287  Biso   1.000  H
  H107     1.0000 0.40703  0.61477  0.49287  Biso   1.000  H
  H108     1.0000 0.38523  0.79227  0.49287  Biso   1.000  H
  C127     1.0000 0.24820  0.19390  0.18470  Biso   1.000  C
  C128     1.0000 0.80610  0.05430  0.18470  Biso   1.000  C
  C129     1.0000 0.94570  0.75180  0.18470  Biso   1.000  C
  C130     1.0000 0.91487  0.52723  0.51803  Biso   1.000  C
  C131     1.0000 0.47277  0.38763  0.51803  Biso   1.000  C
  C132     1.0000 0.61237  0.08513  0.51803  Biso   1.000  C
  C133     1.0000 0.58153  0.86057  0.85137  Biso   1.000  C
  C134     1.0000 0.13943  0.72097  0.85137  Biso   1.000  C
  C135     1.0000 0.27903  0.41847  0.85137  Biso   1.000  C
  C136     1.0000 0.75180  0.80610  0.81530  Biso   1.000  C
  C137     1.0000 0.19390  0.94570  0.81530  Biso   1.000  C
  C138     1.0000 0.05430  0.24820  0.81530  Biso   1.000  C
  C139     1.0000 0.41847  0.13943  0.14863  Biso   1.000  C
  C140     1.0000 0.86057  0.27903  0.14863  Biso   1.000  C
  C141     1.0000 0.72097  0.58153  0.14863  Biso   1.000  C
  C142     1.0000 0.08513  0.47277  0.48197  Biso   1.000  C
  C143     1.0000 0.52723  0.61237  0.48197  Biso   1.000  C
  C144     1.0000 0.38763  0.91487  0.48197  Biso   1.000  C
  C145     1.0000 0.30680  0.25110  0.20440  Biso   1.000  C
  C146     1.0000 0.74890  0.05570  0.20440  Biso   1.000  C
  C147     1.0000 0.94430  0.69320  0.20440  Biso   1.000  C
  C148     1.0000 0.97347  0.58443  0.53773  Biso   1.000  C
  C149     1.0000 0.41557  0.38903  0.53773  Biso   1.000  C
  C150     1.0000 0.61097  0.02653  0.53773  Biso   1.000  C
  C151     1.0000 0.64013  0.91777  0.87107  Biso   1.000  C
  C152     1.0000 0.08223  0.72237  0.87107  Biso   1.000  C
  C153     1.0000 0.27763  0.35987  0.87107  Biso   1.000  C
  C154     1.0000 0.69320  0.74890  0.79560  Biso   1.000  C
  C155     1.0000 0.25110  0.94430  0.79560  Biso   1.000  C
  C156     1.0000 0.05570  0.30680  0.79560  Biso   1.000  C
  C157     1.0000 0.35987  0.08223  0.12893  Biso   1.000  C
  C158     1.0000 0.91777  0.27763  0.12893  Biso   1.000  C
  C159     1.0000 0.72237  0.64013  0.12893  Biso   1.000  C
  C160     1.0000 0.02653  0.41557  0.46227  Biso   1.000  C
  C161     1.0000 0.58443  0.61097  0.46227  Biso   1.000  C
  C162     1.0000 0.38903  0.97347  0.46227  Biso   1.000  C
  H109     1.0000 0.33010  0.23780  0.21980  Biso   1.000  H
  H110     1.0000 0.76220  0.09230  0.21980  Biso   1.000  H
  H111     1.0000 0.90770  0.66990  0.21980  Biso   1.000  H
  H112     1.0000 0.99677  0.57113  0.55313  Biso   1.000  H
  H113     1.0000 0.42887  0.42563  0.55313  Biso   1.000  H
  H114     1.0000 0.57437  0.00323  0.55313  Biso   1.000  H
  H115     1.0000 0.66343  0.90447  0.88647  Biso   1.000  H
  H116     1.0000 0.09553  0.75897  0.88647  Biso   1.000  H
  H117     1.0000 0.24103  0.33657  0.88647  Biso   1.000  H
  H118     1.0000 0.66990  0.76220  0.78020  Biso   1.000  H
  H119     1.0000 0.23780  0.90770  0.78020  Biso   1.000  H
  H120     1.0000 0.09230  0.33010  0.78020  Biso   1.000  H
  H121     1.0000 0.33657  0.09553  0.11353  Biso   1.000  H
  H122     1.0000 0.90447  0.24103  0.11353  Biso   1.000  H
  H123     1.0000 0.75897  0.66343  0.11353  Biso   1.000  H
  H124     1.0000 0.00323  0.42887  0.44687  Biso   1.000  H
  H125     1.0000 0.57113  0.57437  0.44687  Biso   1.000  H
  H126     1.0000 0.42563  0.99677  0.44687  Biso   1.000  H
  C163     1.0000 0.32630  0.32420  0.19974  Biso   1.000  C
  C164     1.0000 0.67580  0.00210  0.19974  Biso   1.000  C
  C165     1.0000 0.99790  0.67370  0.19974  Biso   1.000  C
  C166     1.0000 0.99297  0.65753  0.53307  Biso   1.000  C
  C167     1.0000 0.34247  0.33543  0.53307  Biso   1.000  C
  C168     1.0000 0.66457  0.00703  0.53307  Biso   1.000  C
  C169     1.0000 0.65963  0.99087  0.86641  Biso   1.000  C
  C170     1.0000 0.00913  0.66877  0.86641  Biso   1.000  C
  C171     1.0000 0.33123  0.34037  0.86641  Biso   1.000  C
  C172     1.0000 0.67370  0.67580  0.80026  Biso   1.000  C
  C173     1.0000 0.32420  0.99790  0.80026  Biso   1.000  C
  C174     1.0000 0.00210  0.32630  0.80026  Biso   1.000  C
  C175     1.0000 0.34037  0.00913  0.13359  Biso   1.000  C
  C176     1.0000 0.99087  0.33123  0.13359  Biso   1.000  C
  C177     1.0000 0.66877  0.65963  0.13359  Biso   1.000  C
  C178     1.0000 0.00703  0.34247  0.46693  Biso   1.000  C
  C179     1.0000 0.65753  0.66457  0.46693  Biso   1.000  C
  C180     1.0000 0.33543  0.99297  0.46693  Biso   1.000  C
  C181     1.0000 0.29380  0.34330  0.17504  Biso   1.000  C
  C182     1.0000 0.65670  0.95050  0.17504  Biso   1.000  C
  C183     1.0000 0.04950  0.70620  0.17504  Biso   1.000  C
  C184     1.0000 0.96047  0.67663  0.50837  Biso   1.000  C
  C185     1.0000 0.32337  0.28383  0.50837  Biso   1.000  C
  C186     1.0000 0.71617  0.03953  0.50837  Biso   1.000  C
  C187     1.0000 0.62713  0.00997  0.84171  Biso   1.000  C
  C188     1.0000 0.99003  0.61717  0.84171  Biso   1.000  C
  C189     1.0000 0.38283  0.37287  0.84171  Biso   1.000  C
  C190     1.0000 0.70620  0.65670  0.82496  Biso   1.000  C
  C191     1.0000 0.34330  0.04950  0.82496  Biso   1.000  C
  C192     1.0000 0.95050  0.29380  0.82496  Biso   1.000  C
  C193     1.0000 0.37287  0.99003  0.15829  Biso   1.000  C
  C194     1.0000 0.00997  0.38283  0.15829  Biso   1.000  C
  C195     1.0000 0.61717  0.62713  0.15829  Biso   1.000  C
  C196     1.0000 0.03953  0.32337  0.49163  Biso   1.000  C
  C197     1.0000 0.67663  0.71617  0.49163  Biso   1.000  C
  C198     1.0000 0.28383  0.96047  0.49163  Biso   1.000  C
  H127     1.0000 0.30850  0.39380  0.17150  Biso   1.000  H
  H128     1.0000 0.60620  0.91470  0.17150  Biso   1.000  H
  H129     1.0000 0.08530  0.69150  0.17150  Biso   1.000  H
  H130     1.0000 0.97517  0.72713  0.50483  Biso   1.000  H
  H131     1.0000 0.27287  0.24803  0.50483  Biso   1.000  H
  H132     1.0000 0.75197  0.02483  0.50483  Biso   1.000  H
  H133     1.0000 0.64183  0.06047  0.83817  Biso   1.000  H
  H134     1.0000 0.93953  0.58137  0.83817  Biso   1.000  H
  H135     1.0000 0.41863  0.35817  0.83817  Biso   1.000  H
  H136     1.0000 0.69150  0.60620  0.82850  Biso   1.000  H
  H137     1.0000 0.39380  0.08530  0.82850  Biso   1.000  H
  H138     1.0000 0.91470  0.30850  0.82850  Biso   1.000  H
  H139     1.0000 0.35817  0.93953  0.16183  Biso   1.000  H
  H140     1.0000 0.06047  0.41863  0.16183  Biso   1.000  H
  H141     1.0000 0.58137  0.64183  0.16183  Biso   1.000  H
  H142     1.0000 0.02483  0.27287  0.49517  Biso   1.000  H
  H143     1.0000 0.72713  0.75197  0.49517  Biso   1.000  H
  H144     1.0000 0.24803  0.97517  0.49517  Biso   1.000  H
  C199     1.0000 0.24080  0.28820  0.15610  Biso   1.000  C
  C200     1.0000 0.71180  0.95260  0.15610  Biso   1.000  C
  C201     1.0000 0.04740  0.75920  0.15610  Biso   1.000  C
  C202     1.0000 0.90747  0.62153  0.48943  Biso   1.000  C
  C203     1.0000 0.37847  0.28593  0.48943  Biso   1.000  C
  C204     1.0000 0.71407  0.09253  0.48943  Biso   1.000  C
  C205     1.0000 0.57413  0.95487  0.82277  Biso   1.000  C
  C206     1.0000 0.04513  0.61927  0.82277  Biso   1.000  C
  C207     1.0000 0.38073  0.42587  0.82277  Biso   1.000  C
  C208     1.0000 0.75920  0.71180  0.84390  Biso   1.000  C
  C209     1.0000 0.28820  0.04740  0.84390  Biso   1.000  C
  C210     1.0000 0.95260  0.24080  0.84390  Biso   1.000  C
  C211     1.0000 0.42587  0.04513  0.17723  Biso   1.000  C
  C212     1.0000 0.95487  0.38073  0.17723  Biso   1.000  C
  C213     1.0000 0.61927  0.57413  0.17723  Biso   1.000  C
  C214     1.0000 0.09253  0.37847  0.51057  Biso   1.000  C
  C215     1.0000 0.62153  0.71407  0.51057  Biso   1.000  C
  C216     1.0000 0.28593  0.90747  0.51057  Biso   1.000  C
  C217     1.0000 0.21800  0.21080  0.16140  Biso   1.000  C
  C218     1.0000 0.78920  0.00720  0.16140  Biso   1.000  C
  C219     1.0000 0.99280  0.78200  0.16140  Biso   1.000  C
  C220     1.0000 0.88467  0.54413  0.49473  Biso   1.000  C
  C221     1.0000 0.45587  0.34053  0.49473  Biso   1.000  C
  C222     1.0000 0.65947  0.11533  0.49473  Biso   1.000  C
  C223     1.0000 0.55133  0.87747  0.82807  Biso   1.000  C
  C224     1.0000 0.12253  0.67387  0.82807  Biso   1.000  C
  C225     1.0000 0.32613  0.44867  0.82807  Biso   1.000  C
  C226     1.0000 0.78200  0.78920  0.83860  Biso   1.000  C
  C227     1.0000 0.21080  0.99280  0.83860  Biso   1.000  C
  C228     1.0000 0.00720  0.21800  0.83860  Biso   1.000  C
  C229     1.0000 0.44867  0.12253  0.17193  Biso   1.000  C
  C230     1.0000 0.87747  0.32613  0.17193  Biso   1.000  C
  C231     1.0000 0.67387  0.55133  0.17193  Biso   1.000  C
  C232     1.0000 0.11533  0.45587  0.50527  Biso   1.000  C
  C233     1.0000 0.54413  0.65947  0.50527  Biso   1.000  C
  C234     1.0000 0.34053  0.88467  0.50527  Biso   1.000  C
  H145     1.0000 0.18250  0.17300  0.14860  Biso   1.000  H
  H146     1.0000 0.82700  0.00950  0.14860  Biso   1.000  H
  H147     1.0000 0.99050  0.81750  0.14860  Biso   1.000  H
  H148     1.0000 0.84917  0.50633  0.48193  Biso   1.000  H
  H149     1.0000 0.49367  0.34283  0.48193  Biso   1.000  H
  H150     1.0000 0.65717  0.15083  0.48193  Biso   1.000  H
  H151     1.0000 0.51583  0.83967  0.81527  Biso   1.000  H
  H152     1.0000 0.16033  0.67617  0.81527  Biso   1.000  H
  H153     1.0000 0.32383  0.48417  0.81527  Biso   1.000  H
  H154     1.0000 0.81750  0.82700  0.85140  Biso   1.000  H
  H155     1.0000 0.17300  0.99050  0.85140  Biso   1.000  H
  H156     1.0000 0.00950  0.18250  0.85140  Biso   1.000  H
  H157     1.0000 0.48417  0.16033  0.18473  Biso   1.000  H
  H158     1.0000 0.83967  0.32383  0.18473  Biso   1.000  H
  H159     1.0000 0.67617  0.51583  0.18473  Biso   1.000  H
  H160     1.0000 0.15083  0.49367  0.51807  Biso   1.000  H
  H161     1.0000 0.50633  0.65717  0.51807  Biso   1.000  H
  H162     1.0000 0.34283  0.84917  0.51807  Biso   1.000  H
  C235     1.0000 0.21070  0.30750  0.12945  Biso   1.000  C
  C236     1.0000 0.69250  0.90320  0.12945  Biso   1.000  C
  C237     1.0000 0.09680  0.78930  0.12945  Biso   1.000  C
  C238     1.0000 0.87737  0.64083  0.46278  Biso   1.000  C
  C239     1.0000 0.35917  0.23653  0.46278  Biso   1.000  C
  C240     1.0000 0.76347  0.12263  0.46278  Biso   1.000  C
  C241     1.0000 0.54403  0.97417  0.79612  Biso   1.000  C
  C242     1.0000 0.02583  0.56987  0.79612  Biso   1.000  C
  C243     1.0000 0.43013  0.45597  0.79612  Biso   1.000  C
  C244     1.0000 0.78930  0.69250  0.87055  Biso   1.000  C
  C245     1.0000 0.30750  0.09680  0.87055  Biso   1.000  C
  C246     1.0000 0.90320  0.21070  0.87055  Biso   1.000  C
  C247     1.0000 0.45597  0.02583  0.20388  Biso   1.000  C
  C248     1.0000 0.97417  0.43013  0.20388  Biso   1.000  C
  C249     1.0000 0.56987  0.54403  0.20388  Biso   1.000  C
  C250     1.0000 0.12263  0.35917  0.53722  Biso   1.000  C
  C251     1.0000 0.64083  0.76347  0.53722  Biso   1.000  C
  C252     1.0000 0.23653  0.87737  0.53722  Biso   1.000  C
  C253     1.0000 0.38370  0.38570  0.21982  Biso   1.000  C
  C254     1.0000 0.61430  0.99800  0.21982  Biso   1.000  C
  C255     1.0000 0.00200  0.61630  0.21982  Biso   1.000  C
  C256     1.0000 0.05037  0.71903  0.55315  Biso   1.000  C
  C257     1.0000 0.28097  0.33133  0.55315  Biso   1.000  C
  C258     1.0000 0.66867  0.94963  0.55315  Biso   1.000  C
  C259     1.0000 0.71703  0.05237  0.88649  Biso   1.000  C
  C260     1.0000 0.94763  0.66467  0.88649  Biso   1.000  C
  C261     1.0000 0.33533  0.28297  0.88649  Biso   1.000  C
  C262     1.0000 0.61630  0.61430  0.78018  Biso   1.000  C
  C263     1.0000 0.38570  0.00200  0.78018  Biso   1.000  C
  C264     1.0000 0.99800  0.38370  0.78018  Biso   1.000  C
  C265     1.0000 0.28297  0.94763  0.11351  Biso   1.000  C
  C266     1.0000 0.05237  0.33533  0.11351  Biso   1.000  C
  C267     1.0000 0.66467  0.71703  0.11351  Biso   1.000  C
  C268     1.0000 0.94963  0.28097  0.44685  Biso   1.000  C
  C269     1.0000 0.71903  0.66867  0.44685  Biso   1.000  C
  C270     1.0000 0.33133  0.05037  0.44685  Biso   1.000  C
  Cu19     1.0000 0.20115  0.41324  0.08848  Biso   1.000  Cu
  Cu20     1.0000 0.58676  0.78791  0.08848  Biso   1.000  Cu
  Cu21     1.0000 0.21209  0.79885  0.08848  Biso   1.000  Cu
  Cu22     1.0000 0.86782  0.74657  0.42181  Biso   1.000  Cu
  Cu23     1.0000 0.25343  0.12124  0.42181  Biso   1.000  Cu
  Cu24     1.0000 0.87876  0.13218  0.42181  Biso   1.000  Cu
  Cu25     1.0000 0.53448  0.07991  0.75515  Biso   1.000  Cu
  Cu26     1.0000 0.92009  0.45458  0.75515  Biso   1.000  Cu
  Cu27     1.0000 0.54542  0.46552  0.75515  Biso   1.000  Cu
  Cu28     1.0000 0.79885  0.58676  0.91152  Biso   1.000  Cu
  Cu29     1.0000 0.41324  0.21209  0.91152  Biso   1.000  Cu
  Cu30     1.0000 0.78791  0.20115  0.91152  Biso   1.000  Cu
  Cu31     1.0000 0.46552  0.92009  0.24485  Biso   1.000  Cu
  Cu32     1.0000 0.07991  0.54542  0.24485  Biso   1.000  Cu
  Cu33     1.0000 0.45458  0.53448  0.24485  Biso   1.000  Cu
  Cu34     1.0000 0.13218  0.25343  0.57819  Biso   1.000  Cu
  Cu35     1.0000 0.74657  0.87876  0.57819  Biso   1.000  Cu
  Cu36     1.0000 0.12124  0.86782  0.57819  Biso   1.000  Cu
  O19      1.0000 0.16150  0.25330  0.11309  Biso   1.000  O
  O20      1.0000 0.74670  0.90820  0.11309  Biso   1.000  O
  O21      1.0000 0.09180  0.83850  0.11309  Biso   1.000  O
  O22      1.0000 0.82817  0.58663  0.44642  Biso   1.000  O
  O23      1.0000 0.41337  0.24153  0.44642  Biso   1.000  O
  O24      1.0000 0.75847  0.17183  0.44642  Biso   1.000  O
  O25      1.0000 0.49483  0.91997  0.77976  Biso   1.000  O
  O26      1.0000 0.08003  0.57487  0.77976  Biso   1.000  O
  O27      1.0000 0.42513  0.50517  0.77976  Biso   1.000  O
  O28      1.0000 0.83850  0.74670  0.88691  Biso   1.000  O
  O29      1.0000 0.25330  0.09180  0.88691  Biso   1.000  O
  O30      1.0000 0.90820  0.16150  0.88691  Biso   1.000  O
  O31      1.0000 0.50517  0.08003  0.22024  Biso   1.000  O
  O32      1.0000 0.91997  0.42513  0.22024  Biso   1.000  O
  O33      1.0000 0.57487  0.49483  0.22024  Biso   1.000  O
  O34      1.0000 0.17183  0.41337  0.55358  Biso   1.000  O
  O35      1.0000 0.58663  0.75847  0.55358  Biso   1.000  O
  O36      1.0000 0.24153  0.82817  0.55358  Biso   1.000  O
  O37      1.0000 0.38380  0.44660  0.22097  Biso   1.000  O
  O38      1.0000 0.55340  0.93720  0.22097  Biso   1.000  O
  O39      1.0000 0.06280  0.61620  0.22097  Biso   1.000  O
  O40      1.0000 0.05047  0.77993  0.55430  Biso   1.000  O
  O41      1.0000 0.22007  0.27053  0.55430  Biso   1.000  O
  O42      1.0000 0.72947  0.94953  0.55430  Biso   1.000  O
  O43      1.0000 0.71713  0.11327  0.88764  Biso   1.000  O
  O44      1.0000 0.88673  0.60387  0.88764  Biso   1.000  O
  O45      1.0000 0.39613  0.28287  0.88764  Biso   1.000  O
  O46      1.0000 0.61620  0.55340  0.77903  Biso   1.000  O
  O47      1.0000 0.44660  0.06280  0.77903  Biso   1.000  O
  O48      1.0000 0.93720  0.38380  0.77903  Biso   1.000  O
  O49      1.0000 0.28287  0.88673  0.11236  Biso   1.000  O
  O50      1.0000 0.11327  0.39613  0.11236  Biso   1.000  O
  O51      1.0000 0.60387  0.71713  0.11236  Biso   1.000  O
  O52      1.0000 0.94953  0.22007  0.44570  Biso   1.000  O
  O53      1.0000 0.77993  0.72947  0.44570  Biso   1.000  O
  O54      1.0000 0.27053  0.05047  0.44570  Biso   1.000  O
  O55      1.0000 0.43280  0.37440  0.23324  Biso   1.000  O
  O56      1.0000 0.62560  0.05840  0.23324  Biso   1.000  O
  O57      1.0000 0.94160  0.56720  0.23324  Biso   1.000  O
  O58      1.0000 0.09947  0.70773  0.56657  Biso   1.000  O
  O59      1.0000 0.29227  0.39173  0.56657  Biso   1.000  O
  O60      1.0000 0.60827  0.90053  0.56657  Biso   1.000  O
  O61      1.0000 0.76613  0.04107  0.89991  Biso   1.000  O
  O62      1.0000 0.95893  0.72507  0.89991  Biso   1.000  O
  O63      1.0000 0.27493  0.23387  0.89991  Biso   1.000  O
  O64      1.0000 0.56720  0.62560  0.76676  Biso   1.000  O
  O65      1.0000 0.37440  0.94160  0.76676  Biso   1.000  O
  O66      1.0000 0.05840  0.43280  0.76676  Biso   1.000  O
  O67      1.0000 0.23387  0.95893  0.10009  Biso   1.000  O
  O68      1.0000 0.04107  0.27493  0.10009  Biso   1.000  O
  O69      1.0000 0.72507  0.76613  0.10009  Biso   1.000  O
  O70      1.0000 0.90053  0.29227  0.43343  Biso   1.000  O
  O71      1.0000 0.70773  0.60827  0.43343  Biso   1.000  O
  O72      1.0000 0.39173  0.09947  0.43343  Biso   1.000  O
  O73      1.0000 0.23210  0.12230  0.19410  Biso   1.000  O
  O74      1.0000 0.87770  0.10980  0.19410  Biso   1.000  O
  O75      1.0000 0.89020  0.76790  0.19410  Biso   1.000  O
  O76      1.0000 0.89877  0.45563  0.52743  Biso   1.000  O
  O77      1.0000 0.54437  0.44313  0.52743  Biso   1.000  O
  O78      1.0000 0.55687  0.10123  0.52743  Biso   1.000  O
  O79      1.0000 0.56543  0.78897  0.86077  Biso   1.000  O
  O80      1.0000 0.21103  0.77647  0.86077  Biso   1.000  O
  O81      1.0000 0.22353  0.43457  0.86077  Biso   1.000  O
  O82      1.0000 0.76790  0.87770  0.80590  Biso   1.000  O
  O83      1.0000 0.12230  0.89020  0.80590  Biso   1.000  O
  O84      1.0000 0.10980  0.23210  0.80590  Biso   1.000  O
  O85      1.0000 0.43457  0.21103  0.13923  Biso   1.000  O
  O86      1.0000 0.78897  0.22353  0.13923  Biso   1.000  O
  O87      1.0000 0.77647  0.56543  0.13923  Biso   1.000  O
  O88      1.0000 0.10123  0.54437  0.47257  Biso   1.000  O
  O89      1.0000 0.45563  0.55687  0.47257  Biso   1.000  O
  O90      1.0000 0.44313  0.89877  0.47257  Biso   1.000  O
  O91      1.0000 0.26450  0.53120  0.09882  Biso   1.000  O
  O92      1.0000 0.46880  0.73330  0.09882  Biso   1.000  O
  O93      1.0000 0.26670  0.73550  0.09882  Biso   1.000  O
  O94      1.0000 0.93117  0.86453  0.43215  Biso   1.000  O
  O95      1.0000 0.13547  0.06663  0.43215  Biso   1.000  O
  O96      1.0000 0.93337  0.06883  0.43215  Biso   1.000  O
  O97      1.0000 0.59783  0.19787  0.76549  Biso   1.000  O
  O98      1.0000 0.80213  0.39997  0.76549  Biso   1.000  O
  O99      1.0000 0.60003  0.40217  0.76549  Biso   1.000  O
  O100     1.0000 0.73550  0.46880  0.90118  Biso   1.000  O
  O101     1.0000 0.53120  0.26670  0.90118  Biso   1.000  O
  O102     1.0000 0.73330  0.26450  0.90118  Biso   1.000  O
  O103     1.0000 0.40217  0.80213  0.23451  Biso   1.000  O
  O104     1.0000 0.19787  0.60003  0.23451  Biso   1.000  O
  O105     1.0000 0.39997  0.59783  0.23451  Biso   1.000  O
  O106     1.0000 0.06883  0.13547  0.56785  Biso   1.000  O
  O107     1.0000 0.86453  0.93337  0.56785  Biso   1.000  O
  O108     1.0000 0.06663  0.93117  0.56785  Biso   1.000  O
  H163     1.0000 0.28330  0.53720  0.11610  Biso   1.000  H
  H164     1.0000 0.46280  0.74610  0.11610  Biso   1.000  H
  H165     1.0000 0.25390  0.71670  0.11610  Biso   1.000  H
  H166     1.0000 0.94997  0.87053  0.44943  Biso   1.000  H
  H167     1.0000 0.12947  0.07943  0.44943  Biso   1.000  H
  H168     1.0000 0.92057  0.05003  0.44943  Biso   1.000  H
  H169     1.0000 0.61663  0.20387  0.78277  Biso   1.000  H
  H170     1.0000 0.79613  0.41277  0.78277  Biso   1.000  H
  H171     1.0000 0.58723  0.38337  0.78277  Biso   1.000  H
  H172     1.0000 0.71670  0.46280  0.88390  Biso   1.000  H
  H173     1.0000 0.53720  0.25390  0.88390  Biso   1.000  H
  H174     1.0000 0.74610  0.28330  0.88390  Biso   1.000  H
  H175     1.0000 0.38337  0.79613  0.21723  Biso   1.000  H
  H176     1.0000 0.20387  0.58723  0.21723  Biso   1.000  H
  H177     1.0000 0.41277  0.61663  0.21723  Biso   1.000  H
  H178     1.0000 0.05003  0.12947  0.55057  Biso   1.000  H
  H179     1.0000 0.87053  0.92057  0.55057  Biso   1.000  H
  H180     1.0000 0.07943  0.94997  0.55057  Biso   1.000  H
  O109     1.0000 0.05260  0.14870  0.06342  Biso   1.000  O
  O110     1.0000 0.85130  0.90390  0.06342  Biso   1.000  O
  O111     1.0000 0.09610  0.94740  0.06342  Biso   1.000  O
  O112     1.0000 0.71927  0.48203  0.39675  Biso   1.000  O
  O113     1.0000 0.51797  0.23723  0.39675  Biso   1.000  O
  O114     1.0000 0.76277  0.28073  0.39675  Biso   1.000  O
  O115     1.0000 0.38593  0.81537  0.73009  Biso   1.000  O
  O116     1.0000 0.18463  0.57057  0.73009  Biso   1.000  O
  O117     1.0000 0.42943  0.61407  0.73009  Biso   1.000  O
  O118     1.0000 0.94740  0.85130  0.93658  Biso   1.000  O
  O119     1.0000 0.14870  0.09610  0.93658  Biso   1.000  O
  O120     1.0000 0.90390  0.05260  0.93658  Biso   1.000  O
  O121     1.0000 0.61407  0.18463  0.26991  Biso   1.000  O
  O122     1.0000 0.81537  0.42943  0.26991  Biso   1.000  O
  O123     1.0000 0.57057  0.38593  0.26991  Biso   1.000  O
  O124     1.0000 0.28073  0.51797  0.60325  Biso   1.000  O
  O125     1.0000 0.48203  0.76277  0.60325  Biso   1.000  O
  O126     1.0000 0.23723  0.71927  0.60325  Biso   1.000  O
  H181     1.0000 0.05350  0.14340  0.04460  Biso   1.000  H
  H182     1.0000 0.85660  0.91010  0.04460  Biso   1.000  H
  H183     1.0000 0.08990  0.94650  0.04460  Biso   1.000  H
  H184     1.0000 0.72017  0.47673  0.37793  Biso   1.000  H
  H185     1.0000 0.52327  0.24343  0.37793  Biso   1.000  H
  H186     1.0000 0.75657  0.27983  0.37793  Biso   1.000  H
  H187     1.0000 0.38683  0.81007  0.71127  Biso   1.000  H
  H188     1.0000 0.18993  0.57677  0.71127  Biso   1.000  H
  H189     1.0000 0.42323  0.61317  0.71127  Biso   1.000  H
  H190     1.0000 0.94650  0.85660  0.95540  Biso   1.000  H
  H191     1.0000 0.14340  0.08990  0.95540  Biso   1.000  H
  H192     1.0000 0.91010  0.05350  0.95540  Biso   1.000  H
  H193     1.0000 0.61317  0.18993  0.28873  Biso   1.000  H
  H194     1.0000 0.81007  0.42323  0.28873  Biso   1.000  H
  H195     1.0000 0.57677  0.38683  0.28873  Biso   1.000  H
  H196     1.0000 0.27983  0.52327  0.62207  Biso   1.000  H
  H197     1.0000 0.47673  0.75657  0.62207  Biso   1.000  H
  H198     1.0000 0.24343  0.72017  0.62207  Biso   1.000  H
  C271     1.0000 0.10010  0.81810  0.27190  Biso   1.000  C
  C272     1.0000 0.18190  0.28200  0.27190  Biso   1.000  C
  C273     1.0000 0.71800  0.89990  0.27190  Biso   1.000  C
  C274     1.0000 0.76677  0.15143  0.60523  Biso   1.000  C
  C275     1.0000 0.84857  0.61533  0.60523  Biso   1.000  C
  C276     1.0000 0.38467  0.23323  0.60523  Biso   1.000  C
  C277     1.0000 0.43343  0.48477  0.93857  Biso   1.000  C
  C278     1.0000 0.51523  0.94867  0.93857  Biso   1.000  C
  C279     1.0000 0.05133  0.56657  0.93857  Biso   1.000  C
  C280     1.0000 0.89990  0.18190  0.72810  Biso   1.000  C
  C281     1.0000 0.81810  0.71800  0.72810  Biso   1.000  C
  C282     1.0000 0.28200  0.10010  0.72810  Biso   1.000  C
  C283     1.0000 0.56657  0.51523  0.06143  Biso   1.000  C
  C284     1.0000 0.48477  0.05133  0.06143  Biso   1.000  C
  C285     1.0000 0.94867  0.43343  0.06143  Biso   1.000  C
  C286     1.0000 0.23323  0.84857  0.39477  Biso   1.000  C
  C287     1.0000 0.15143  0.38467  0.39477  Biso   1.000  C
  C288     1.0000 0.61533  0.76677  0.39477  Biso   1.000  C
  H199     1.0000 0.04640  0.78090  0.27160  Biso   1.000  H
  H200     1.0000 0.21910  0.26550  0.27160  Biso   1.000  H
  H201     1.0000 0.73450  0.95360  0.27160  Biso   1.000  H
  H202     1.0000 0.71307  0.11423  0.60493  Biso   1.000  H
  H203     1.0000 0.88577  0.59883  0.60493  Biso   1.000  H
  H204     1.0000 0.40117  0.28693  0.60493  Biso   1.000  H
  H205     1.0000 0.37973  0.44757  0.93827  Biso   1.000  H
  H206     1.0000 0.55243  0.93217  0.93827  Biso   1.000  H
  H207     1.0000 0.06783  0.62027  0.93827  Biso   1.000  H
  H208     1.0000 0.95360  0.21910  0.72840  Biso   1.000  H
  H209     1.0000 0.78090  0.73450  0.72840  Biso   1.000  H
  H210     1.0000 0.26550  0.04640  0.72840  Biso   1.000  H
  H211     1.0000 0.62027  0.55243  0.06173  Biso   1.000  H
  H212     1.0000 0.44757  0.06783  0.06173  Biso   1.000  H
  H213     1.0000 0.93217  0.37973  0.06173  Biso   1.000  H
  H214     1.0000 0.28693  0.88577  0.39507  Biso   1.000  H
  H215     1.0000 0.11423  0.40117  0.39507  Biso   1.000  H
  H216     1.0000 0.59883  0.71307  0.39507  Biso   1.000  H
  H217     1.0000 0.12850  0.79190  0.26930  Biso   1.000  H
  H218     1.0000 0.20810  0.33660  0.26930  Biso   1.000  H
  H219     1.0000 0.66340  0.87150  0.26930  Biso   1.000  H
  H220     1.0000 0.79517  0.12523  0.60263  Biso   1.000  H
  H221     1.0000 0.87477  0.66993  0.60263  Biso   1.000  H
  H222     1.0000 0.33007  0.20483  0.60263  Biso   1.000  H
  H223     1.0000 0.46183  0.45857  0.93597  Biso   1.000  H
  H224     1.0000 0.54143  0.00327  0.93597  Biso   1.000  H
  H225     1.0000 0.99673  0.53817  0.93597  Biso   1.000  H
  H226     1.0000 0.87150  0.20810  0.73070  Biso   1.000  H
  H227     1.0000 0.79190  0.66340  0.73070  Biso   1.000  H
  H228     1.0000 0.33660  0.12850  0.73070  Biso   1.000  H
  H229     1.0000 0.53817  0.54143  0.06403  Biso   1.000  H
  H230     1.0000 0.45857  0.99673  0.06403  Biso   1.000  H
  H231     1.0000 0.00327  0.46183  0.06403  Biso   1.000  H
  H232     1.0000 0.20483  0.87477  0.39737  Biso   1.000  H
  H233     1.0000 0.12523  0.33007  0.39737  Biso   1.000  H
  H234     1.0000 0.66993  0.79517  0.39737  Biso   1.000  H
  O127     1.0000 0.12020  0.85940  0.30028  Biso   1.000  O
  O128     1.0000 0.14060  0.26080  0.30028  Biso   1.000  O
  O129     1.0000 0.73920  0.87980  0.30028  Biso   1.000  O
  O130     1.0000 0.78687  0.19273  0.63361  Biso   1.000  O
  O131     1.0000 0.80727  0.59413  0.63361  Biso   1.000  O
  O132     1.0000 0.40587  0.21313  0.63361  Biso   1.000  O
  O133     1.0000 0.45353  0.52607  0.96695  Biso   1.000  O
  O134     1.0000 0.47393  0.92747  0.96695  Biso   1.000  O
  O135     1.0000 0.07253  0.54647  0.96695  Biso   1.000  O
  O136     1.0000 0.87980  0.14060  0.69972  Biso   1.000  O
  O137     1.0000 0.85940  0.73920  0.69972  Biso   1.000  O
  O138     1.0000 0.26080  0.12020  0.69972  Biso   1.000  O
  O139     1.0000 0.54647  0.47393  0.03305  Biso   1.000  O
  O140     1.0000 0.52607  0.07253  0.03305  Biso   1.000  O
  O141     1.0000 0.92747  0.45353  0.03305  Biso   1.000  O
  O142     1.0000 0.21313  0.80727  0.36639  Biso   1.000  O
  O143     1.0000 0.19273  0.40587  0.36639  Biso   1.000  O
  O144     1.0000 0.59413  0.78687  0.36639  Biso   1.000  O
  C289     1.0000 0.29420  0.06680  0.36790  Biso   1.000  C
  C290     1.0000 0.93320  0.22740  0.36790  Biso   1.000  C
  C291     1.0000 0.77260  0.70580  0.36790  Biso   1.000  C
  C292     1.0000 0.96087  0.40013  0.70123  Biso   1.000  C
  C293     1.0000 0.59987  0.56073  0.70123  Biso   1.000  C
  C294     1.0000 0.43927  0.03913  0.70123  Biso   1.000  C
  C295     1.0000 0.62753  0.73347  0.03457  Biso   1.000  C
  C296     1.0000 0.26653  0.89407  0.03457  Biso   1.000  C
  C297     1.0000 0.10593  0.37247  0.03457  Biso   1.000  C
  C298     1.0000 0.70580  0.93320  0.63210  Biso   1.000  C
  C299     1.0000 0.06680  0.77260  0.63210  Biso   1.000  C
  C300     1.0000 0.22740  0.29420  0.63210  Biso   1.000  C
  C301     1.0000 0.37247  0.26653  0.96543  Biso   1.000  C
  C302     1.0000 0.73347  0.10593  0.96543  Biso   1.000  C
  C303     1.0000 0.89407  0.62753  0.96543  Biso   1.000  C
  C304     1.0000 0.03913  0.59987  0.29877  Biso   1.000  C
  C305     1.0000 0.40013  0.43927  0.29877  Biso   1.000  C
  C306     1.0000 0.56073  0.96087  0.29877  Biso   1.000  C
  C307     1.0000 0.28140  0.01730  0.34045  Biso   1.000  C
  C308     1.0000 0.98270  0.26410  0.34045  Biso   1.000  C
  C309     1.0000 0.73590  0.71860  0.34045  Biso   1.000  C
  C310     1.0000 0.94807  0.35063  0.67378  Biso   1.000  C
  C311     1.0000 0.64937  0.59743  0.67378  Biso   1.000  C
  C312     1.0000 0.40257  0.05193  0.67378  Biso   1.000  C
  C313     1.0000 0.61473  0.68397  0.00712  Biso   1.000  C
  C314     1.0000 0.31603  0.93077  0.00712  Biso   1.000  C
  C315     1.0000 0.06923  0.38527  0.00712  Biso   1.000  C
  C316     1.0000 0.71860  0.98270  0.65955  Biso   1.000  C
  C317     1.0000 0.01730  0.73590  0.65955  Biso   1.000  C
  C318     1.0000 0.26410  0.28140  0.65955  Biso   1.000  C
  C319     1.0000 0.38527  0.31603  0.99288  Biso   1.000  C
  C320     1.0000 0.68397  0.06923  0.99288  Biso   1.000  C
  C321     1.0000 0.93077  0.61473  0.99288  Biso   1.000  C
  C322     1.0000 0.05193  0.64937  0.32622  Biso   1.000  C
  C323     1.0000 0.35063  0.40257  0.32622  Biso   1.000  C
  C324     1.0000 0.59743  0.94807  0.32622  Biso   1.000  C
  C325     1.0000 0.34110  0.02400  0.32254  Biso   1.000  C
  C326     1.0000 0.97600  0.31710  0.32254  Biso   1.000  C
  C327     1.0000 0.68290  0.65890  0.32254  Biso   1.000  C
  C328     1.0000 0.00777  0.35733  0.65587  Biso   1.000  C
  C329     1.0000 0.64267  0.65043  0.65587  Biso   1.000  C
  C330     1.0000 0.34957  0.99223  0.65587  Biso   1.000  C
  C331     1.0000 0.67443  0.69067  0.98921  Biso   1.000  C
  C332     1.0000 0.30933  0.98377  0.98921  Biso   1.000  C
  C333     1.0000 0.01623  0.32557  0.98921  Biso   1.000  C
  C334     1.0000 0.65890  0.97600  0.67746  Biso   1.000  C
  C335     1.0000 0.02400  0.68290  0.67746  Biso   1.000  C
  C336     1.0000 0.31710  0.34110  0.67746  Biso   1.000  C
  C337     1.0000 0.32557  0.30933  0.01079  Biso   1.000  C
  C338     1.0000 0.69067  0.01623  0.01079  Biso   1.000  C
  C339     1.0000 0.98377  0.67443  0.01079  Biso   1.000  C
  C340     1.0000 0.99223  0.64267  0.34413  Biso   1.000  C
  C341     1.0000 0.35733  0.34957  0.34413  Biso   1.000  C
  C342     1.0000 0.65043  0.00777  0.34413  Biso   1.000  C
  H235     1.0000 0.39020  0.06280  0.32660  Biso   1.000  H
  H236     1.0000 0.93720  0.32740  0.32660  Biso   1.000  H
  H237     1.0000 0.67260  0.60980  0.32660  Biso   1.000  H
  H238     1.0000 0.05687  0.39613  0.65993  Biso   1.000  H
  H239     1.0000 0.60387  0.66073  0.65993  Biso   1.000  H
  H240     1.0000 0.33927  0.94313  0.65993  Biso   1.000  H
  H241     1.0000 0.72353  0.72947  0.99327  Biso   1.000  H
  H242     1.0000 0.27053  0.99407  0.99327  Biso   1.000  H
  H243     1.0000 0.00593  0.27647  0.99327  Biso   1.000  H
  H244     1.0000 0.60980  0.93720  0.67340  Biso   1.000  H
  H245     1.0000 0.06280  0.67260  0.67340  Biso   1.000  H
  H246     1.0000 0.32740  0.39020  0.67340  Biso   1.000  H
  H247     1.0000 0.27647  0.27053  0.00673  Biso   1.000  H
  H248     1.0000 0.72947  0.00593  0.00673  Biso   1.000  H
  H249     1.0000 0.99407  0.72353  0.00673  Biso   1.000  H
  H250     1.0000 0.94313  0.60387  0.34007  Biso   1.000  H
  H251     1.0000 0.39613  0.33927  0.34007  Biso   1.000  H
  H252     1.0000 0.66073  0.05687  0.34007  Biso   1.000  H
  C343     1.0000 0.32850  0.97430  0.29917  Biso   1.000  C
  C344     1.0000 0.02570  0.35420  0.29917  Biso   1.000  C
  C345     1.0000 0.64580  0.67150  0.29917  Biso   1.000  C
  C346     1.0000 0.99517  0.30763  0.63250  Biso   1.000  C
  C347     1.0000 0.69237  0.68753  0.63250  Biso   1.000  C
  C348     1.0000 0.31247  0.00483  0.63250  Biso   1.000  C
  C349     1.0000 0.66183  0.64097  0.96584  Biso   1.000  C
  C350     1.0000 0.35903  0.02087  0.96584  Biso   1.000  C
  C351     1.0000 0.97913  0.33817  0.96584  Biso   1.000  C
  C352     1.0000 0.67150  0.02570  0.70083  Biso   1.000  C
  C353     1.0000 0.97430  0.64580  0.70083  Biso   1.000  C
  C354     1.0000 0.35420  0.32850  0.70083  Biso   1.000  C
  C355     1.0000 0.33817  0.35903  0.03416  Biso   1.000  C
  C356     1.0000 0.64097  0.97913  0.03416  Biso   1.000  C
  C357     1.0000 0.02087  0.66183  0.03416  Biso   1.000  C
  C358     1.0000 0.00483  0.69237  0.36750  Biso   1.000  C
  C359     1.0000 0.30763  0.31247  0.36750  Biso   1.000  C
  C360     1.0000 0.68753  0.99517  0.36750  Biso   1.000  C
  C361     1.0000 0.25640  0.91980  0.29193  Biso   1.000  C
  C362     1.0000 0.08020  0.33660  0.29193  Biso   1.000  C
  C363     1.0000 0.66340  0.74360  0.29193  Biso   1.000  C
  C364     1.0000 0.92307  0.25313  0.62526  Biso   1.000  C
  C365     1.0000 0.74687  0.66993  0.62526  Biso   1.000  C
  C366     1.0000 0.33007  0.07693  0.62526  Biso   1.000  C
  C367     1.0000 0.58973  0.58647  0.95860  Biso   1.000  C
  C368     1.0000 0.41353  0.00327  0.95860  Biso   1.000  C
  C369     1.0000 0.99673  0.41027  0.95860  Biso   1.000  C
  C370     1.0000 0.74360  0.08020  0.70807  Biso   1.000  C
  C371     1.0000 0.91980  0.66340  0.70807  Biso   1.000  C
  C372     1.0000 0.33660  0.25640  0.70807  Biso   1.000  C
  C373     1.0000 0.41027  0.41353  0.04140  Biso   1.000  C
  C374     1.0000 0.58647  0.99673  0.04140  Biso   1.000  C
  C375     1.0000 0.00327  0.58973  0.04140  Biso   1.000  C
  C376     1.0000 0.07693  0.74687  0.37474  Biso   1.000  C
  C377     1.0000 0.25313  0.33007  0.37474  Biso   1.000  C
  C378     1.0000 0.66993  0.92307  0.37474  Biso   1.000  C
  H253     1.0000 0.24940  0.88630  0.27590  Biso   1.000  H
  H254     1.0000 0.11370  0.36310  0.27590  Biso   1.000  H
  H255     1.0000 0.63690  0.75060  0.27590  Biso   1.000  H
  H256     1.0000 0.91607  0.21963  0.60923  Biso   1.000  H
  H257     1.0000 0.78037  0.69643  0.60923  Biso   1.000  H
  H258     1.0000 0.30357  0.08393  0.60923  Biso   1.000  H
  H259     1.0000 0.58273  0.55297  0.94257  Biso   1.000  H
  H260     1.0000 0.44703  0.02977  0.94257  Biso   1.000  H
  H261     1.0000 0.97023  0.41727  0.94257  Biso   1.000  H
  H262     1.0000 0.75060  0.11370  0.72410  Biso   1.000  H
  H263     1.0000 0.88630  0.63690  0.72410  Biso   1.000  H
  H264     1.0000 0.36310  0.24940  0.72410  Biso   1.000  H
  H265     1.0000 0.41727  0.44703  0.05743  Biso   1.000  H
  H266     1.0000 0.55297  0.97023  0.05743  Biso   1.000  H
  H267     1.0000 0.02977  0.58273  0.05743  Biso   1.000  H
  H268     1.0000 0.08393  0.78037  0.39077  Biso   1.000  H
  H269     1.0000 0.21963  0.30357  0.39077  Biso   1.000  H
  H270     1.0000 0.69643  0.91607  0.39077  Biso   1.000  H
  C379     1.0000 0.19400  0.91190  0.30700  Biso   1.000  C
  C380     1.0000 0.08810  0.28210  0.30700  Biso   1.000  C
  C381     1.0000 0.71790  0.80600  0.30700  Biso   1.000  C
  C382     1.0000 0.86067  0.24523  0.64033  Biso   1.000  C
  C383     1.0000 0.75477  0.61543  0.64033  Biso   1.000  C
  C384     1.0000 0.38457  0.13933  0.64033  Biso   1.000  C
  C385     1.0000 0.52733  0.57857  0.97367  Biso   1.000  C
  C386     1.0000 0.42143  0.94877  0.97367  Biso   1.000  C
  C387     1.0000 0.05123  0.47267  0.97367  Biso   1.000  C
  C388     1.0000 0.80600  0.08810  0.69300  Biso   1.000  C
  C389     1.0000 0.91190  0.71790  0.69300  Biso   1.000  C
  C390     1.0000 0.28210  0.19400  0.69300  Biso   1.000  C
  C391     1.0000 0.47267  0.42143  0.02633  Biso   1.000  C
  C392     1.0000 0.57857  0.05123  0.02633  Biso   1.000  C
  C393     1.0000 0.94877  0.52733  0.02633  Biso   1.000  C
  C394     1.0000 0.13933  0.75477  0.35967  Biso   1.000  C
  C395     1.0000 0.24523  0.38457  0.35967  Biso   1.000  C
  C396     1.0000 0.61543  0.86067  0.35967  Biso   1.000  C
  C397     1.0000 0.20480  0.95910  0.33270  Biso   1.000  C
  C398     1.0000 0.04090  0.24570  0.33270  Biso   1.000  C
  C399     1.0000 0.75430  0.79520  0.33270  Biso   1.000  C
  C400     1.0000 0.87147  0.29243  0.66603  Biso   1.000  C
  C401     1.0000 0.70757  0.57903  0.66603  Biso   1.000  C
  C402     1.0000 0.42097  0.12853  0.66603  Biso   1.000  C
  C403     1.0000 0.53813  0.62577  0.99937  Biso   1.000  C
  C404     1.0000 0.37423  0.91237  0.99937  Biso   1.000  C
  C405     1.0000 0.08763  0.46187  0.99937  Biso   1.000  C
  C406     1.0000 0.79520  0.04090  0.66730  Biso   1.000  C
  C407     1.0000 0.95910  0.75430  0.66730  Biso   1.000  C
  C408     1.0000 0.24570  0.20480  0.66730  Biso   1.000  C
  C409     1.0000 0.46187  0.37423  0.00063  Biso   1.000  C
  C410     1.0000 0.62577  0.08763  0.00063  Biso   1.000  C
  C411     1.0000 0.91237  0.53813  0.00063  Biso   1.000  C
  C412     1.0000 0.12853  0.70757  0.33397  Biso   1.000  C
  C413     1.0000 0.29243  0.42097  0.33397  Biso   1.000  C
  C414     1.0000 0.57903  0.87147  0.33397  Biso   1.000  C
  H271     1.0000 0.16380  0.95310  0.34440  Biso   1.000  H
  H272     1.0000 0.04690  0.21070  0.34440  Biso   1.000  H
  H273     1.0000 0.78930  0.83620  0.34440  Biso   1.000  H
  H274     1.0000 0.83047  0.28643  0.67773  Biso   1.000  H
  H275     1.0000 0.71357  0.54403  0.67773  Biso   1.000  H
  H276     1.0000 0.45597  0.16953  0.67773  Biso   1.000  H
  H277     1.0000 0.49713  0.61977  0.01107  Biso   1.000  H
  H278     1.0000 0.38023  0.87737  0.01107  Biso   1.000  H
  H279     1.0000 0.12263  0.50287  0.01107  Biso   1.000  H
  H280     1.0000 0.83620  0.04690  0.65560  Biso   1.000  H
  H281     1.0000 0.95310  0.78930  0.65560  Biso   1.000  H
  H282     1.0000 0.21070  0.16380  0.65560  Biso   1.000  H
  H283     1.0000 0.50287  0.38023  0.98893  Biso   1.000  H
  H284     1.0000 0.61977  0.12263  0.98893  Biso   1.000  H
  H285     1.0000 0.87737  0.49713  0.98893  Biso   1.000  H
  H286     1.0000 0.16953  0.71357  0.32227  Biso   1.000  H
  H287     1.0000 0.28643  0.45597  0.32227  Biso   1.000  H
  H288     1.0000 0.54403  0.83047  0.32227  Biso   1.000  H
  C415     1.0000 0.39570  0.98160  0.28167  Biso   1.000  C
  C416     1.0000 0.01840  0.41410  0.28167  Biso   1.000  C
  C417     1.0000 0.58590  0.60430  0.28167  Biso   1.000  C
  C418     1.0000 0.06237  0.31493  0.61500  Biso   1.000  C
  C419     1.0000 0.68507  0.74743  0.61500  Biso   1.000  C
  C420     1.0000 0.25257  0.93763  0.61500  Biso   1.000  C
  C421     1.0000 0.72903  0.64827  0.94834  Biso   1.000  C
  C422     1.0000 0.35173  0.08077  0.94834  Biso   1.000  C
  C423     1.0000 0.91923  0.27097  0.94834  Biso   1.000  C
  C424     1.0000 0.60430  0.01840  0.71833  Biso   1.000  C
  C425     1.0000 0.98160  0.58590  0.71833  Biso   1.000  C
  C426     1.0000 0.41410  0.39570  0.71833  Biso   1.000  C
  C427     1.0000 0.27097  0.35173  0.05166  Biso   1.000  C
  C428     1.0000 0.64827  0.91923  0.05166  Biso   1.000  C
  C429     1.0000 0.08077  0.72903  0.05166  Biso   1.000  C
  C430     1.0000 0.93763  0.68507  0.38500  Biso   1.000  C
  C431     1.0000 0.31493  0.25257  0.38500  Biso   1.000  C
  C432     1.0000 0.74743  0.06237  0.38500  Biso   1.000  C
  O145     1.0000 0.24240  0.06320  0.38415  Biso   1.000  O
  O146     1.0000 0.93680  0.17920  0.38415  Biso   1.000  O
  O147     1.0000 0.82080  0.75760  0.38415  Biso   1.000  O
  O148     1.0000 0.90907  0.39653  0.71748  Biso   1.000  O
  O149     1.0000 0.60347  0.51253  0.71748  Biso   1.000  O
  O150     1.0000 0.48747  0.09093  0.71748  Biso   1.000  O
  O151     1.0000 0.57573  0.72987  0.05082  Biso   1.000  O
  O152     1.0000 0.27013  0.84587  0.05082  Biso   1.000  O
  O153     1.0000 0.15413  0.42427  0.05082  Biso   1.000  O
  O154     1.0000 0.75760  0.93680  0.61585  Biso   1.000  O
  O155     1.0000 0.06320  0.82080  0.61585  Biso   1.000  O
  O156     1.0000 0.17920  0.24240  0.61585  Biso   1.000  O
  O157     1.0000 0.42427  0.27013  0.94918  Biso   1.000  O
  O158     1.0000 0.72987  0.15413  0.94918  Biso   1.000  O
  O159     1.0000 0.84587  0.57573  0.94918  Biso   1.000  O
  O160     1.0000 0.09093  0.60347  0.28252  Biso   1.000  O
  O161     1.0000 0.39653  0.48747  0.28252  Biso   1.000  O
  O162     1.0000 0.51253  0.90907  0.28252  Biso   1.000  O
  O163     1.0000 0.36350  0.11530  0.37289  Biso   1.000  O
  O164     1.0000 0.88470  0.24820  0.37289  Biso   1.000  O
  O165     1.0000 0.75180  0.63650  0.37289  Biso   1.000  O
  O166     1.0000 0.03017  0.44863  0.70622  Biso   1.000  O
  O167     1.0000 0.55137  0.58153  0.70622  Biso   1.000  O
  O168     1.0000 0.41847  0.96983  0.70622  Biso   1.000  O
  O169     1.0000 0.69683  0.78197  0.03956  Biso   1.000  O
  O170     1.0000 0.21803  0.91487  0.03956  Biso   1.000  O
  O171     1.0000 0.08513  0.30317  0.03956  Biso   1.000  O
  O172     1.0000 0.63650  0.88470  0.62711  Biso   1.000  O
  O173     1.0000 0.11530  0.75180  0.62711  Biso   1.000  O
  O174     1.0000 0.24820  0.36350  0.62711  Biso   1.000  O
  O175     1.0000 0.30317  0.21803  0.96044  Biso   1.000  O
  O176     1.0000 0.78197  0.08513  0.96044  Biso   1.000  O
  O177     1.0000 0.91487  0.69683  0.96044  Biso   1.000  O
  O178     1.0000 0.96983  0.55137  0.29378  Biso   1.000  O
  O179     1.0000 0.44863  0.41847  0.29378  Biso   1.000  O
  O180     1.0000 0.58153  0.03017  0.29378  Biso   1.000  O
  O181     1.0000 0.45570  0.04500  0.28099  Biso   1.000  O
  O182     1.0000 0.95500  0.41070  0.28099  Biso   1.000  O
  O183     1.0000 0.58930  0.54430  0.28099  Biso   1.000  O
  O184     1.0000 0.12237  0.37833  0.61432  Biso   1.000  O
  O185     1.0000 0.62167  0.74403  0.61432  Biso   1.000  O
  O186     1.0000 0.25597  0.87763  0.61432  Biso   1.000  O
  O187     1.0000 0.78903  0.71167  0.94766  Biso   1.000  O
  O188     1.0000 0.28833  0.07737  0.94766  Biso   1.000  O
  O189     1.0000 0.92263  0.21097  0.94766  Biso   1.000  O
  O190     1.0000 0.54430  0.95500  0.71901  Biso   1.000  O
  O191     1.0000 0.04500  0.58930  0.71901  Biso   1.000  O
  O192     1.0000 0.41070  0.45570  0.71901  Biso   1.000  O
  O193     1.0000 0.21097  0.28833  0.05234  Biso   1.000  O
  O194     1.0000 0.71167  0.92263  0.05234  Biso   1.000  O
  O195     1.0000 0.07737  0.78903  0.05234  Biso   1.000  O
  O196     1.0000 0.87763  0.62167  0.38568  Biso   1.000  O
  O197     1.0000 0.37833  0.25597  0.38568  Biso   1.000  O
  O198     1.0000 0.74403  0.12237  0.38568  Biso   1.000  O
  O199     1.0000 0.38610  0.92090  0.26855  Biso   1.000  O
  O200     1.0000 0.07910  0.46520  0.26855  Biso   1.000  O
  O201     1.0000 0.53480  0.61390  0.26855  Biso   1.000  O
  O202     1.0000 0.05277  0.25423  0.60188  Biso   1.000  O
  O203     1.0000 0.74577  0.79853  0.60188  Biso   1.000  O
  O204     1.0000 0.20147  0.94723  0.60188  Biso   1.000  O
  O205     1.0000 0.71943  0.58757  0.93522  Biso   1.000  O
  O206     1.0000 0.41243  0.13187  0.93522  Biso   1.000  O
  O207     1.0000 0.86813  0.28057  0.93522  Biso   1.000  O
  O208     1.0000 0.61390  0.07910  0.73145  Biso   1.000  O
  O209     1.0000 0.92090  0.53480  0.73145  Biso   1.000  O
  O210     1.0000 0.46520  0.38610  0.73145  Biso   1.000  O
  O211     1.0000 0.28057  0.41243  0.06478  Biso   1.000  O
  O212     1.0000 0.58757  0.86813  0.06478  Biso   1.000  O
  O213     1.0000 0.13187  0.71943  0.06478  Biso   1.000  O
  O214     1.0000 0.94723  0.74577  0.39812  Biso   1.000  O
  O215     1.0000 0.25423  0.20147  0.39812  Biso   1.000  O
  O216     1.0000 0.79853  0.05277  0.39812  Biso   1.000  O
