data_image0
_cell_length_a       11.987
_cell_length_b       11.987
_cell_length_c       54.24
_cell_angle_alpha    90
_cell_angle_beta     90
_cell_angle_gamma    90

_symmetry_space_group_name_H-M    "P 1"
_symmetry_int_tables_number       1

loop_
  _symmetry_equiv_pos_as_xyz
  'x, y, z'

loop_
  _atom_site_label
  _atom_site_occupancy
  _atom_site_fract_x
  _atom_site_fract_y
  _atom_site_fract_z
  _atom_site_thermal_displace_type
  _atom_site_B_iso_or_equiv
  _atom_site_type_symbol
  Cu1      1.0000 0.50000  0.75000  0.81828  Biso   1.000  Cu
  Cu2      1.0000 0.00000  0.75000  0.06828  Biso   1.000  Cu
  Cu3      1.0000 0.00000  0.25000  0.31828  Biso   1.000  Cu
  Cu4      1.0000 0.50000  0.25000  0.56828  Biso   1.000  Cu
  Cu5      1.0000 0.50000  0.25000  0.18172  Biso   1.000  Cu
  Cu6      1.0000 0.50000  0.75000  0.43172  Biso   1.000  Cu
  Cu7      1.0000 0.00000  0.75000  0.68172  Biso   1.000  Cu
  Cu8      1.0000 0.00000  0.25000  0.93172  Biso   1.000  Cu
  N1       1.0000 0.61500  0.87260  0.81301  Biso   1.000  N
  N2       1.0000 0.87740  0.86500  0.06301  Biso   1.000  N
  N3       1.0000 0.11500  0.37260  0.31301  Biso   1.000  N
  N4       1.0000 0.37740  0.36500  0.56301  Biso   1.000  N
  N5       1.0000 0.12260  0.63500  0.06301  Biso   1.000  N
  N6       1.0000 0.88500  0.12740  0.31301  Biso   1.000  N
  N7       1.0000 0.62260  0.13500  0.56301  Biso   1.000  N
  N8       1.0000 0.38500  0.62740  0.81301  Biso   1.000  N
  N9       1.0000 0.38500  0.12740  0.18699  Biso   1.000  N
  N10      1.0000 0.62260  0.63500  0.43699  Biso   1.000  N
  N11      1.0000 0.88500  0.62740  0.68699  Biso   1.000  N
  N12      1.0000 0.12260  0.13500  0.93699  Biso   1.000  N
  N13      1.0000 0.37740  0.86500  0.43699  Biso   1.000  N
  N14      1.0000 0.11500  0.87260  0.68699  Biso   1.000  N
  N15      1.0000 0.87740  0.36500  0.93699  Biso   1.000  N
  N16      1.0000 0.61500  0.37260  0.18699  Biso   1.000  N
  N17      1.0000 0.60490  0.94030  0.79497  Biso   1.000  N
  N18      1.0000 0.80970  0.85490  0.04497  Biso   1.000  N
  N19      1.0000 0.10490  0.44030  0.29497  Biso   1.000  N
  N20      1.0000 0.30970  0.35490  0.54497  Biso   1.000  N
  N21      1.0000 0.19030  0.64510  0.04497  Biso   1.000  N
  N22      1.0000 0.89510  0.05970  0.29497  Biso   1.000  N
  N23      1.0000 0.69030  0.14510  0.54497  Biso   1.000  N
  N24      1.0000 0.39510  0.55970  0.79497  Biso   1.000  N
  N25      1.0000 0.39510  0.05970  0.20503  Biso   1.000  N
  N26      1.0000 0.69030  0.64510  0.45503  Biso   1.000  N
  N27      1.0000 0.89510  0.55970  0.70503  Biso   1.000  N
  N28      1.0000 0.19030  0.14510  0.95503  Biso   1.000  N
  N29      1.0000 0.30970  0.85490  0.45503  Biso   1.000  N
  N30      1.0000 0.10490  0.94030  0.70503  Biso   1.000  N
  N31      1.0000 0.80970  0.35490  0.95503  Biso   1.000  N
  N32      1.0000 0.60490  0.44030  0.20503  Biso   1.000  N
  N33      1.0000 0.69530  0.00650  0.79433  Biso   1.000  N
  N34      1.0000 0.74350  0.94530  0.04433  Biso   1.000  N
  N35      1.0000 0.19530  0.50650  0.29433  Biso   1.000  N
  N36      1.0000 0.24350  0.44530  0.54433  Biso   1.000  N
  N37      1.0000 0.25650  0.55470  0.04433  Biso   1.000  N
  N38      1.0000 0.80470  0.99350  0.29433  Biso   1.000  N
  N39      1.0000 0.75650  0.05470  0.54433  Biso   1.000  N
  N40      1.0000 0.30470  0.49350  0.79433  Biso   1.000  N
  N41      1.0000 0.30470  0.99350  0.20567  Biso   1.000  N
  N42      1.0000 0.75650  0.55470  0.45567  Biso   1.000  N
  N43      1.0000 0.80470  0.49350  0.70567  Biso   1.000  N
  N44      1.0000 0.25650  0.05470  0.95567  Biso   1.000  N
  N45      1.0000 0.24350  0.94530  0.45567  Biso   1.000  N
  N46      1.0000 0.19530  0.00650  0.70567  Biso   1.000  N
  N47      1.0000 0.74350  0.44530  0.95567  Biso   1.000  N
  N48      1.0000 0.69530  0.50650  0.20567  Biso   1.000  N
  N49      1.0000 0.87780  0.86050  0.68992  Biso   1.000  N
  N50      1.0000 0.88950  0.12780  0.93992  Biso   1.000  N
  N51      1.0000 0.37780  0.36050  0.18992  Biso   1.000  N
  N52      1.0000 0.38950  0.62780  0.43992  Biso   1.000  N
  N53      1.0000 0.11050  0.37220  0.93992  Biso   1.000  N
  N54      1.0000 0.62220  0.13950  0.18992  Biso   1.000  N
  N55      1.0000 0.61050  0.87220  0.43992  Biso   1.000  N
  N56      1.0000 0.12220  0.63950  0.68992  Biso   1.000  N
  N57      1.0000 0.12220  0.13950  0.31008  Biso   1.000  N
  N58      1.0000 0.61050  0.37220  0.56008  Biso   1.000  N
  N59      1.0000 0.62220  0.63950  0.81008  Biso   1.000  N
  N60      1.0000 0.11050  0.87220  0.06008  Biso   1.000  N
  N61      1.0000 0.38950  0.12780  0.56008  Biso   1.000  N
  N62      1.0000 0.37780  0.86050  0.81008  Biso   1.000  N
  N63      1.0000 0.88950  0.62780  0.06008  Biso   1.000  N
  N64      1.0000 0.87780  0.36050  0.31008  Biso   1.000  N
  N65      1.0000 0.83940  0.85510  0.71257  Biso   1.000  N
  N66      1.0000 0.89490  0.08940  0.96257  Biso   1.000  N
  N67      1.0000 0.33940  0.35510  0.21257  Biso   1.000  N
  N68      1.0000 0.39490  0.58940  0.46257  Biso   1.000  N
  N69      1.0000 0.10510  0.41060  0.96257  Biso   1.000  N
  N70      1.0000 0.66060  0.14490  0.21257  Biso   1.000  N
  N71      1.0000 0.60510  0.91060  0.46257  Biso   1.000  N
  N72      1.0000 0.16060  0.64490  0.71257  Biso   1.000  N
  N73      1.0000 0.16060  0.14490  0.28743  Biso   1.000  N
  N74      1.0000 0.60510  0.41060  0.53743  Biso   1.000  N
  N75      1.0000 0.66060  0.64490  0.78743  Biso   1.000  N
  N76      1.0000 0.10510  0.91060  0.03743  Biso   1.000  N
  N77      1.0000 0.39490  0.08940  0.53743  Biso   1.000  N
  N78      1.0000 0.33940  0.85510  0.78743  Biso   1.000  N
  N79      1.0000 0.89490  0.58940  0.03743  Biso   1.000  N
  N80      1.0000 0.83940  0.35510  0.28743  Biso   1.000  N
  N81      1.0000 0.76520  0.93990  0.71563  Biso   1.000  N
  N82      1.0000 0.81010  0.01520  0.96563  Biso   1.000  N
  N83      1.0000 0.26520  0.43990  0.21563  Biso   1.000  N
  N84      1.0000 0.31010  0.51520  0.46563  Biso   1.000  N
  N85      1.0000 0.18990  0.48480  0.96563  Biso   1.000  N
  N86      1.0000 0.73480  0.06010  0.21563  Biso   1.000  N
  N87      1.0000 0.68990  0.98480  0.46563  Biso   1.000  N
  N88      1.0000 0.23480  0.56010  0.71563  Biso   1.000  N
  N89      1.0000 0.23480  0.06010  0.28437  Biso   1.000  N
  N90      1.0000 0.68990  0.48480  0.53437  Biso   1.000  N
  N91      1.0000 0.73480  0.56010  0.78437  Biso   1.000  N
  N92      1.0000 0.18990  0.98480  0.03437  Biso   1.000  N
  N93      1.0000 0.31010  0.01520  0.53437  Biso   1.000  N
  N94      1.0000 0.26520  0.93990  0.78437  Biso   1.000  N
  N95      1.0000 0.81010  0.51520  0.03437  Biso   1.000  N
  N96      1.0000 0.76520  0.43990  0.28437  Biso   1.000  N
  O1       1.0000 0.87680  0.01920  0.75966  Biso   1.000  O
  O2       1.0000 0.73080  0.12680  0.00966  Biso   1.000  O
  O3       1.0000 0.37680  0.51920  0.25966  Biso   1.000  O
  O4       1.0000 0.23080  0.62680  0.50966  Biso   1.000  O
  O5       1.0000 0.26920  0.37320  0.00966  Biso   1.000  O
  O6       1.0000 0.62320  0.98080  0.25966  Biso   1.000  O
  O7       1.0000 0.76920  0.87320  0.50966  Biso   1.000  O
  O8       1.0000 0.12320  0.48080  0.75966  Biso   1.000  O
  O9       1.0000 0.12320  0.98080  0.24034  Biso   1.000  O
  O10      1.0000 0.76920  0.37320  0.49034  Biso   1.000  O
  O11      1.0000 0.62320  0.48080  0.74034  Biso   1.000  O
  O12      1.0000 0.26920  0.87320  0.99034  Biso   1.000  O
  O13      1.0000 0.23080  0.12680  0.49034  Biso   1.000  O
  O14      1.0000 0.37680  0.01920  0.74034  Biso   1.000  O
  O15      1.0000 0.73080  0.62680  0.99034  Biso   1.000  O
  O16      1.0000 0.87680  0.51920  0.24034  Biso   1.000  O
  H1       1.0000 0.88910  0.95760  0.75370  Biso   1.000  H
  H2       1.0000 0.79240  0.13910  0.00370  Biso   1.000  H
  H3       1.0000 0.38910  0.45760  0.25370  Biso   1.000  H
  H4       1.0000 0.29240  0.63910  0.50370  Biso   1.000  H
  H5       1.0000 0.20760  0.36090  0.00370  Biso   1.000  H
  H6       1.0000 0.61090  0.04240  0.25370  Biso   1.000  H
  H7       1.0000 0.70760  0.86090  0.50370  Biso   1.000  H
  H8       1.0000 0.11090  0.54240  0.75370  Biso   1.000  H
  H9       1.0000 0.11090  0.04240  0.24630  Biso   1.000  H
  H10      1.0000 0.70760  0.36090  0.49630  Biso   1.000  H
  H11      1.0000 0.61090  0.54240  0.74630  Biso   1.000  H
  H12      1.0000 0.20760  0.86090  0.99630  Biso   1.000  H
  H13      1.0000 0.29240  0.13910  0.49630  Biso   1.000  H
  H14      1.0000 0.38910  0.95760  0.74630  Biso   1.000  H
  H15      1.0000 0.79240  0.63910  0.99630  Biso   1.000  H
  H16      1.0000 0.88910  0.45760  0.24630  Biso   1.000  H
  O17      1.0000 0.56400  0.18300  0.82990  Biso   1.000  O
  O18      1.0000 0.56700  0.81400  0.07990  Biso   1.000  O
  O19      1.0000 0.06400  0.68300  0.32990  Biso   1.000  O
  O20      1.0000 0.06700  0.31400  0.57990  Biso   1.000  O
  O21      1.0000 0.43300  0.68600  0.07990  Biso   1.000  O
  O22      1.0000 0.93600  0.81700  0.32990  Biso   1.000  O
  O23      1.0000 0.93300  0.18600  0.57990  Biso   1.000  O
  O24      1.0000 0.43600  0.31700  0.82990  Biso   1.000  O
  O25      1.0000 0.43600  0.81700  0.17010  Biso   1.000  O
  O26      1.0000 0.93300  0.68600  0.42010  Biso   1.000  O
  O27      1.0000 0.93600  0.31700  0.67010  Biso   1.000  O
  O28      1.0000 0.43300  0.18600  0.92010  Biso   1.000  O
  O29      1.0000 0.06700  0.81400  0.42010  Biso   1.000  O
  O30      1.0000 0.06400  0.18300  0.67010  Biso   1.000  O
  O31      1.0000 0.56700  0.31400  0.92010  Biso   1.000  O
  O32      1.0000 0.56400  0.68300  0.17010  Biso   1.000  O
  H17      1.0000 0.60060  0.13770  0.82210  Biso   1.000  H
  H18      1.0000 0.61230  0.85060  0.07210  Biso   1.000  H
  H19      1.0000 0.10060  0.63770  0.32210  Biso   1.000  H
  H20      1.0000 0.11230  0.35060  0.57210  Biso   1.000  H
  H21      1.0000 0.38770  0.64940  0.07210  Biso   1.000  H
  H22      1.0000 0.89940  0.86230  0.32210  Biso   1.000  H
  H23      1.0000 0.88770  0.14940  0.57210  Biso   1.000  H
  H24      1.0000 0.39940  0.36230  0.82210  Biso   1.000  H
  H25      1.0000 0.39940  0.86230  0.17790  Biso   1.000  H
  H26      1.0000 0.88770  0.64940  0.42790  Biso   1.000  H
  H27      1.0000 0.89940  0.36230  0.67790  Biso   1.000  H
  H28      1.0000 0.38770  0.14940  0.92790  Biso   1.000  H
  H29      1.0000 0.11230  0.85060  0.42790  Biso   1.000  H
  H30      1.0000 0.10060  0.13770  0.67790  Biso   1.000  H
  H31      1.0000 0.61230  0.35060  0.92790  Biso   1.000  H
  H32      1.0000 0.60060  0.63770  0.17790  Biso   1.000  H
  Br1      1.0000 0.50000  0.75000  0.86596  Biso   1.000  Br
  Br2      1.0000 0.00000  0.75000  0.11596  Biso   1.000  Br
  Br3      1.0000 0.00000  0.25000  0.36596  Biso   1.000  Br
  Br4      1.0000 0.50000  0.25000  0.61596  Biso   1.000  Br
  Br5      1.0000 0.50000  0.25000  0.13404  Biso   1.000  Br
  Br6      1.0000 0.50000  0.75000  0.38404  Biso   1.000  Br
  Br7      1.0000 0.00000  0.75000  0.63404  Biso   1.000  Br
  Br8      1.0000 0.00000  0.25000  0.88404  Biso   1.000  Br
  Br9      1.0000 0.00000  0.75000  0.23168  Biso   1.000  Br
  Br10     1.0000 0.00000  0.25000  0.48168  Biso   1.000  Br
  Br11     1.0000 0.50000  0.25000  0.73168  Biso   1.000  Br
  Br12     1.0000 0.50000  0.75000  0.98168  Biso   1.000  Br
  Br13     1.0000 0.00000  0.25000  0.76832  Biso   1.000  Br
  Br14     1.0000 0.50000  0.25000  0.01832  Biso   1.000  Br
  Br15     1.0000 0.50000  0.75000  0.26832  Biso   1.000  Br
  Br16     1.0000 0.00000  0.75000  0.51832  Biso   1.000  Br
  C1       1.0000 0.71510  0.89360  0.82480  Biso   1.000  C
  C2       1.0000 0.85640  0.96510  0.07480  Biso   1.000  C
  C3       1.0000 0.21510  0.39360  0.32480  Biso   1.000  C
  C4       1.0000 0.35640  0.46510  0.57480  Biso   1.000  C
  C5       1.0000 0.14360  0.53490  0.07480  Biso   1.000  C
  C6       1.0000 0.78490  0.10640  0.32480  Biso   1.000  C
  C7       1.0000 0.64360  0.03490  0.57480  Biso   1.000  C
  C8       1.0000 0.28490  0.60640  0.82480  Biso   1.000  C
  C9       1.0000 0.28490  0.10640  0.17520  Biso   1.000  C
  C10      1.0000 0.64360  0.53490  0.42520  Biso   1.000  C
  C11      1.0000 0.78490  0.60640  0.67520  Biso   1.000  C
  C12      1.0000 0.14360  0.03490  0.92520  Biso   1.000  C
  C13      1.0000 0.35640  0.96510  0.42520  Biso   1.000  C
  C14      1.0000 0.21510  0.89360  0.67520  Biso   1.000  C
  C15      1.0000 0.85640  0.46510  0.92520  Biso   1.000  C
  C16      1.0000 0.71510  0.39360  0.17520  Biso   1.000  C
  C17      1.0000 0.76330  0.98130  0.81300  Biso   1.000  C
  C18      1.0000 0.76870  0.01330  0.06300  Biso   1.000  C
  C19      1.0000 0.26330  0.48130  0.31300  Biso   1.000  C
  C20      1.0000 0.26870  0.51330  0.56300  Biso   1.000  C
  C21      1.0000 0.23130  0.48670  0.06300  Biso   1.000  C
  C22      1.0000 0.73670  0.01870  0.31300  Biso   1.000  C
  C23      1.0000 0.73130  0.98670  0.56300  Biso   1.000  C
  C24      1.0000 0.23670  0.51870  0.81300  Biso   1.000  C
  C25      1.0000 0.23670  0.01870  0.18700  Biso   1.000  C
  C26      1.0000 0.73130  0.48670  0.43700  Biso   1.000  C
  C27      1.0000 0.73670  0.51870  0.68700  Biso   1.000  C
  C28      1.0000 0.23130  0.98670  0.93700  Biso   1.000  C
  C29      1.0000 0.26870  0.01330  0.43700  Biso   1.000  C
  C30      1.0000 0.26330  0.98130  0.68700  Biso   1.000  C
  C31      1.0000 0.76870  0.51330  0.93700  Biso   1.000  C
  C32      1.0000 0.76330  0.48130  0.18700  Biso   1.000  C
  C33      1.0000 0.86820  0.02620  0.82040  Biso   1.000  C
  C34      1.0000 0.72380  0.11820  0.07040  Biso   1.000  C
  C35      1.0000 0.36820  0.52620  0.32040  Biso   1.000  C
  C36      1.0000 0.22380  0.61820  0.57040  Biso   1.000  C
  C37      1.0000 0.27620  0.38180  0.07040  Biso   1.000  C
  C38      1.0000 0.63180  0.97380  0.32040  Biso   1.000  C
  C39      1.0000 0.77620  0.88180  0.57040  Biso   1.000  C
  C40      1.0000 0.13180  0.47380  0.82040  Biso   1.000  C
  C41      1.0000 0.13180  0.97380  0.17960  Biso   1.000  C
  C42      1.0000 0.77620  0.38180  0.42960  Biso   1.000  C
  C43      1.0000 0.63180  0.47380  0.67960  Biso   1.000  C
  C44      1.0000 0.27620  0.88180  0.92960  Biso   1.000  C
  C45      1.0000 0.22380  0.11820  0.42960  Biso   1.000  C
  C46      1.0000 0.36820  0.02620  0.67960  Biso   1.000  C
  C47      1.0000 0.72380  0.61820  0.92960  Biso   1.000  C
  C48      1.0000 0.86820  0.52620  0.17960  Biso   1.000  C
  H33      1.0000 0.90360  0.08300  0.81170  Biso   1.000  H
  H34      1.0000 0.66700  0.15360  0.06170  Biso   1.000  H
  H35      1.0000 0.40360  0.58300  0.31170  Biso   1.000  H
  H36      1.0000 0.16700  0.65360  0.56170  Biso   1.000  H
  H37      1.0000 0.33300  0.34640  0.06170  Biso   1.000  H
  H38      1.0000 0.59640  0.91700  0.31170  Biso   1.000  H
  H39      1.0000 0.83300  0.84640  0.56170  Biso   1.000  H
  H40      1.0000 0.09640  0.41700  0.81170  Biso   1.000  H
  H41      1.0000 0.09640  0.91700  0.18830  Biso   1.000  H
  H42      1.0000 0.83300  0.34640  0.43830  Biso   1.000  H
  H43      1.0000 0.59640  0.41700  0.68830  Biso   1.000  H
  H44      1.0000 0.33300  0.84640  0.93830  Biso   1.000  H
  H45      1.0000 0.16700  0.15360  0.43830  Biso   1.000  H
  H46      1.0000 0.40360  0.08300  0.68830  Biso   1.000  H
  H47      1.0000 0.66700  0.65360  0.93830  Biso   1.000  H
  H48      1.0000 0.90360  0.58300  0.18830  Biso   1.000  H
  C49      1.0000 0.91210  0.98040  0.84080  Biso   1.000  C
  C50      1.0000 0.76960  0.16210  0.09080  Biso   1.000  C
  C51      1.0000 0.41210  0.48040  0.34080  Biso   1.000  C
  C52      1.0000 0.26960  0.66210  0.59080  Biso   1.000  C
  C53      1.0000 0.23040  0.33790  0.09080  Biso   1.000  C
  C54      1.0000 0.58790  0.01960  0.34080  Biso   1.000  C
  C55      1.0000 0.73040  0.83790  0.59080  Biso   1.000  C
  C56      1.0000 0.08790  0.51960  0.84080  Biso   1.000  C
  C57      1.0000 0.08790  0.01960  0.15920  Biso   1.000  C
  C58      1.0000 0.73040  0.33790  0.40920  Biso   1.000  C
  C59      1.0000 0.58790  0.51960  0.65920  Biso   1.000  C
  C60      1.0000 0.23040  0.83790  0.90920  Biso   1.000  C
  C61      1.0000 0.26960  0.16210  0.40920  Biso   1.000  C
  C62      1.0000 0.41210  0.98040  0.65920  Biso   1.000  C
  C63      1.0000 0.76960  0.66210  0.90920  Biso   1.000  C
  C64      1.0000 0.91210  0.48040  0.15920  Biso   1.000  C
  H49      1.0000 0.97770  0.01030  0.84720  Biso   1.000  H
  H50      1.0000 0.73970  0.22770  0.09720  Biso   1.000  H
  H51      1.0000 0.47770  0.51030  0.34720  Biso   1.000  H
  H52      1.0000 0.23970  0.72770  0.59720  Biso   1.000  H
  H53      1.0000 0.26030  0.27230  0.09720  Biso   1.000  H
  H54      1.0000 0.52230  0.98970  0.34720  Biso   1.000  H
  H55      1.0000 0.76030  0.77230  0.59720  Biso   1.000  H
  H56      1.0000 0.02230  0.48970  0.84720  Biso   1.000  H
  H57      1.0000 0.02230  0.98970  0.15280  Biso   1.000  H
  H58      1.0000 0.76030  0.27230  0.40280  Biso   1.000  H
  H59      1.0000 0.52230  0.48970  0.65280  Biso   1.000  H
  H60      1.0000 0.26030  0.77230  0.90280  Biso   1.000  H
  H61      1.0000 0.23970  0.22770  0.40280  Biso   1.000  H
  H62      1.0000 0.47770  0.01030  0.65280  Biso   1.000  H
  H63      1.0000 0.73970  0.72770  0.90280  Biso   1.000  H
  H64      1.0000 0.97770  0.51030  0.15280  Biso   1.000  H
  C65      1.0000 0.86330  0.88910  0.85300  Biso   1.000  C
  C66      1.0000 0.86090  0.11330  0.10300  Biso   1.000  C
  C67      1.0000 0.36330  0.38910  0.35300  Biso   1.000  C
  C68      1.0000 0.36090  0.61330  0.60300  Biso   1.000  C
  C69      1.0000 0.13910  0.38670  0.10300  Biso   1.000  C
  C70      1.0000 0.63670  0.11090  0.35300  Biso   1.000  C
  C71      1.0000 0.63910  0.88670  0.60300  Biso   1.000  C
  C72      1.0000 0.13670  0.61090  0.85300  Biso   1.000  C
  C73      1.0000 0.13670  0.11090  0.14700  Biso   1.000  C
  C74      1.0000 0.63910  0.38670  0.39700  Biso   1.000  C
  C75      1.0000 0.63670  0.61090  0.64700  Biso   1.000  C
  C76      1.0000 0.13910  0.88670  0.89700  Biso   1.000  C
  C77      1.0000 0.36090  0.11330  0.39700  Biso   1.000  C
  C78      1.0000 0.36330  0.88910  0.64700  Biso   1.000  C
  C79      1.0000 0.86090  0.61330  0.89700  Biso   1.000  C
  C80      1.0000 0.86330  0.38910  0.14700  Biso   1.000  C
  H65      1.0000 0.89930  0.85880  0.86660  Biso   1.000  H
  H66      1.0000 0.89120  0.14930  0.11660  Biso   1.000  H
  H67      1.0000 0.39930  0.35880  0.36660  Biso   1.000  H
  H68      1.0000 0.39120  0.64930  0.61660  Biso   1.000  H
  H69      1.0000 0.10880  0.35070  0.11660  Biso   1.000  H
  H70      1.0000 0.60070  0.14120  0.36660  Biso   1.000  H
  H71      1.0000 0.60880  0.85070  0.61660  Biso   1.000  H
  H72      1.0000 0.10070  0.64120  0.86660  Biso   1.000  H
  H73      1.0000 0.10070  0.14120  0.13340  Biso   1.000  H
  H74      1.0000 0.60880  0.35070  0.38340  Biso   1.000  H
  H75      1.0000 0.60070  0.64120  0.63340  Biso   1.000  H
  H76      1.0000 0.10880  0.85070  0.88340  Biso   1.000  H
  H77      1.0000 0.39120  0.14930  0.38340  Biso   1.000  H
  H78      1.0000 0.39930  0.85880  0.63340  Biso   1.000  H
  H79      1.0000 0.89120  0.64930  0.88340  Biso   1.000  H
  H80      1.0000 0.89930  0.35880  0.13340  Biso   1.000  H
  C81      1.0000 0.76460  0.84360  0.84550  Biso   1.000  C
  C82      1.0000 0.90640  0.01460  0.09550  Biso   1.000  C
  C83      1.0000 0.26460  0.34360  0.34550  Biso   1.000  C
  C84      1.0000 0.40640  0.51460  0.59550  Biso   1.000  C
  C85      1.0000 0.09360  0.48540  0.09550  Biso   1.000  C
  C86      1.0000 0.73540  0.15640  0.34550  Biso   1.000  C
  C87      1.0000 0.59360  0.98540  0.59550  Biso   1.000  C
  C88      1.0000 0.23540  0.65640  0.84550  Biso   1.000  C
  C89      1.0000 0.23540  0.15640  0.15450  Biso   1.000  C
  C90      1.0000 0.59360  0.48540  0.40450  Biso   1.000  C
  C91      1.0000 0.73540  0.65640  0.65450  Biso   1.000  C
  C92      1.0000 0.09360  0.98540  0.90450  Biso   1.000  C
  C93      1.0000 0.40640  0.01460  0.40450  Biso   1.000  C
  C94      1.0000 0.26460  0.84360  0.65450  Biso   1.000  C
  C95      1.0000 0.90640  0.51460  0.90450  Biso   1.000  C
  C96      1.0000 0.76460  0.34360  0.15450  Biso   1.000  C
  H81      1.0000 0.73230  0.78320  0.85350  Biso   1.000  H
  H82      1.0000 0.96680  0.98230  0.10350  Biso   1.000  H
  H83      1.0000 0.23230  0.28320  0.35350  Biso   1.000  H
  H84      1.0000 0.46680  0.48230  0.60350  Biso   1.000  H
  H85      1.0000 0.03320  0.51770  0.10350  Biso   1.000  H
  H86      1.0000 0.76770  0.21680  0.35350  Biso   1.000  H
  H87      1.0000 0.53320  0.01770  0.60350  Biso   1.000  H
  H88      1.0000 0.26770  0.71680  0.85350  Biso   1.000  H
  H89      1.0000 0.26770  0.21680  0.14650  Biso   1.000  H
  H90      1.0000 0.53320  0.51770  0.39650  Biso   1.000  H
  H91      1.0000 0.76770  0.71680  0.64650  Biso   1.000  H
  H92      1.0000 0.03320  0.01770  0.89650  Biso   1.000  H
  H93      1.0000 0.46680  0.98230  0.39650  Biso   1.000  H
  H94      1.0000 0.23230  0.78320  0.64650  Biso   1.000  H
  H95      1.0000 0.96680  0.48230  0.89650  Biso   1.000  H
  H96      1.0000 0.73230  0.28320  0.14650  Biso   1.000  H
  C97      1.0000 0.82960  0.94840  0.67740  Biso   1.000  C
  C98      1.0000 0.80160  0.07960  0.92740  Biso   1.000  C
  C99      1.0000 0.32960  0.44840  0.17740  Biso   1.000  C
  C100     1.0000 0.30160  0.57960  0.42740  Biso   1.000  C
  C101     1.0000 0.19840  0.42040  0.92740  Biso   1.000  C
  C102     1.0000 0.67040  0.05160  0.17740  Biso   1.000  C
  C103     1.0000 0.69840  0.92040  0.42740  Biso   1.000  C
  C104     1.0000 0.17040  0.55160  0.67740  Biso   1.000  C
  C105     1.0000 0.17040  0.05160  0.32260  Biso   1.000  C
  C106     1.0000 0.69840  0.42040  0.57260  Biso   1.000  C
  C107     1.0000 0.67040  0.55160  0.82260  Biso   1.000  C
  C108     1.0000 0.19840  0.92040  0.07260  Biso   1.000  C
  C109     1.0000 0.30160  0.07960  0.57260  Biso   1.000  C
  C110     1.0000 0.32960  0.94840  0.82260  Biso   1.000  C
  C111     1.0000 0.80160  0.57960  0.07260  Biso   1.000  C
  C112     1.0000 0.82960  0.44840  0.32260  Biso   1.000  C
  C113     1.0000 0.75380  0.99990  0.69410  Biso   1.000  C
  C114     1.0000 0.75010  0.00380  0.94410  Biso   1.000  C
  C115     1.0000 0.25380  0.49990  0.19410  Biso   1.000  C
  C116     1.0000 0.25010  0.50380  0.44410  Biso   1.000  C
  C117     1.0000 0.24990  0.49620  0.94410  Biso   1.000  C
  C118     1.0000 0.74620  0.00010  0.19410  Biso   1.000  C
  C119     1.0000 0.74990  0.99620  0.44410  Biso   1.000  C
  C120     1.0000 0.24620  0.50010  0.69410  Biso   1.000  C
  C121     1.0000 0.24620  0.00010  0.30590  Biso   1.000  C
  C122     1.0000 0.74990  0.49620  0.55590  Biso   1.000  C
  C123     1.0000 0.74620  0.50010  0.80590  Biso   1.000  C
  C124     1.0000 0.24990  0.99620  0.05590  Biso   1.000  C
  C125     1.0000 0.25010  0.00380  0.55590  Biso   1.000  C
  C126     1.0000 0.25380  0.99990  0.80590  Biso   1.000  C
  C127     1.0000 0.75010  0.50380  0.05590  Biso   1.000  C
  C128     1.0000 0.75380  0.49990  0.30590  Biso   1.000  C
  C129     1.0000 0.68780  0.08820  0.68820  Biso   1.000  C
  C130     1.0000 0.66180  0.93780  0.93820  Biso   1.000  C
  C131     1.0000 0.18780  0.58820  0.18820  Biso   1.000  C
  C132     1.0000 0.16180  0.43780  0.43820  Biso   1.000  C
  C133     1.0000 0.33820  0.56220  0.93820  Biso   1.000  C
  C134     1.0000 0.81220  0.91180  0.18820  Biso   1.000  C
  C135     1.0000 0.83820  0.06220  0.43820  Biso   1.000  C
  C136     1.0000 0.31220  0.41180  0.68820  Biso   1.000  C
  C137     1.0000 0.31220  0.91180  0.31180  Biso   1.000  C
  C138     1.0000 0.83820  0.56220  0.56180  Biso   1.000  C
  C139     1.0000 0.81220  0.41180  0.81180  Biso   1.000  C
  C140     1.0000 0.33820  0.06220  0.06180  Biso   1.000  C
  C141     1.0000 0.16180  0.93780  0.56180  Biso   1.000  C
  C142     1.0000 0.18780  0.08820  0.81180  Biso   1.000  C
  C143     1.0000 0.66180  0.43780  0.06180  Biso   1.000  C
  C144     1.0000 0.68780  0.58820  0.31180  Biso   1.000  C
  H97      1.0000 0.64060  0.12120  0.69970  Biso   1.000  H
  H98      1.0000 0.62880  0.89060  0.94970  Biso   1.000  H
  H99      1.0000 0.14060  0.62120  0.19970  Biso   1.000  H
  H100     1.0000 0.12880  0.39060  0.44970  Biso   1.000  H
  H101     1.0000 0.37120  0.60940  0.94970  Biso   1.000  H
  H102     1.0000 0.85940  0.87880  0.19970  Biso   1.000  H
  H103     1.0000 0.87120  0.10940  0.44970  Biso   1.000  H
  H104     1.0000 0.35940  0.37880  0.69970  Biso   1.000  H
  H105     1.0000 0.35940  0.87880  0.30030  Biso   1.000  H
  H106     1.0000 0.87120  0.60940  0.55030  Biso   1.000  H
  H107     1.0000 0.85940  0.37880  0.80030  Biso   1.000  H
  H108     1.0000 0.37120  0.10940  0.05030  Biso   1.000  H
  H109     1.0000 0.12880  0.89060  0.55030  Biso   1.000  H
  H110     1.0000 0.14060  0.12120  0.80030  Biso   1.000  H
  H111     1.0000 0.62880  0.39060  0.05030  Biso   1.000  H
  H112     1.0000 0.64060  0.62120  0.30030  Biso   1.000  H
  C145     1.0000 0.69490  0.12500  0.66480  Biso   1.000  C
  C146     1.0000 0.62500  0.94490  0.91480  Biso   1.000  C
  C147     1.0000 0.19490  0.62500  0.16480  Biso   1.000  C
  C148     1.0000 0.12500  0.44490  0.41480  Biso   1.000  C
  C149     1.0000 0.37500  0.55510  0.91480  Biso   1.000  C
  C150     1.0000 0.80510  0.87500  0.16480  Biso   1.000  C
  C151     1.0000 0.87500  0.05510  0.41480  Biso   1.000  C
  C152     1.0000 0.30510  0.37500  0.66480  Biso   1.000  C
  C153     1.0000 0.30510  0.87500  0.33520  Biso   1.000  C
  C154     1.0000 0.87500  0.55510  0.58520  Biso   1.000  C
  C155     1.0000 0.80510  0.37500  0.83520  Biso   1.000  C
  C156     1.0000 0.37500  0.05510  0.08520  Biso   1.000  C
  C157     1.0000 0.12500  0.94490  0.58520  Biso   1.000  C
  C158     1.0000 0.19490  0.12500  0.83520  Biso   1.000  C
  C159     1.0000 0.62500  0.44490  0.08520  Biso   1.000  C
  C160     1.0000 0.69490  0.62500  0.33520  Biso   1.000  C
  H113     1.0000 0.65110  0.18550  0.66010  Biso   1.000  H
  H114     1.0000 0.56450  0.90110  0.91010  Biso   1.000  H
  H115     1.0000 0.15110  0.68550  0.16010  Biso   1.000  H
  H116     1.0000 0.06450  0.40110  0.41010  Biso   1.000  H
  H117     1.0000 0.43550  0.59890  0.91010  Biso   1.000  H
  H118     1.0000 0.84890  0.81450  0.16010  Biso   1.000  H
  H119     1.0000 0.93550  0.09890  0.41010  Biso   1.000  H
  H120     1.0000 0.34890  0.31450  0.66010  Biso   1.000  H
  H121     1.0000 0.34890  0.81450  0.33990  Biso   1.000  H
  H122     1.0000 0.93550  0.59890  0.58990  Biso   1.000  H
  H123     1.0000 0.84890  0.31450  0.83990  Biso   1.000  H
  H124     1.0000 0.43550  0.09890  0.08990  Biso   1.000  H
  H125     1.0000 0.06450  0.90110  0.58990  Biso   1.000  H
  H126     1.0000 0.15110  0.18550  0.83990  Biso   1.000  H
  H127     1.0000 0.56450  0.40110  0.08990  Biso   1.000  H
  H128     1.0000 0.65110  0.68550  0.33990  Biso   1.000  H
  C161     1.0000 0.76470  0.07690  0.64700  Biso   1.000  C
  C162     1.0000 0.67310  0.01470  0.89700  Biso   1.000  C
  C163     1.0000 0.26470  0.57690  0.14700  Biso   1.000  C
  C164     1.0000 0.17310  0.51470  0.39700  Biso   1.000  C
  C165     1.0000 0.32690  0.48530  0.89700  Biso   1.000  C
  C166     1.0000 0.73530  0.92310  0.14700  Biso   1.000  C
  C167     1.0000 0.82690  0.98530  0.39700  Biso   1.000  C
  C168     1.0000 0.23530  0.42310  0.64700  Biso   1.000  C
  C169     1.0000 0.23530  0.92310  0.35300  Biso   1.000  C
  C170     1.0000 0.82690  0.48530  0.60300  Biso   1.000  C
  C171     1.0000 0.73530  0.42310  0.85300  Biso   1.000  C
  C172     1.0000 0.32690  0.98530  0.10300  Biso   1.000  C
  C173     1.0000 0.17310  0.01470  0.60300  Biso   1.000  C
  C174     1.0000 0.26470  0.07690  0.85300  Biso   1.000  C
  C175     1.0000 0.67310  0.51470  0.10300  Biso   1.000  C
  C176     1.0000 0.76470  0.57690  0.35300  Biso   1.000  C
  H129     1.0000 0.76520  0.10410  0.63100  Biso   1.000  H
  H130     1.0000 0.64590  0.01520  0.88100  Biso   1.000  H
  H131     1.0000 0.26520  0.60410  0.13100  Biso   1.000  H
  H132     1.0000 0.14590  0.51520  0.38100  Biso   1.000  H
  H133     1.0000 0.35410  0.48480  0.88100  Biso   1.000  H
  H134     1.0000 0.73480  0.89590  0.13100  Biso   1.000  H
  H135     1.0000 0.85410  0.98480  0.38100  Biso   1.000  H
  H136     1.0000 0.23480  0.39590  0.63100  Biso   1.000  H
  H137     1.0000 0.23480  0.89590  0.36900  Biso   1.000  H
  H138     1.0000 0.85410  0.48480  0.61900  Biso   1.000  H
  H139     1.0000 0.73480  0.39590  0.86900  Biso   1.000  H
  H140     1.0000 0.35410  0.98480  0.11900  Biso   1.000  H
  H141     1.0000 0.14590  0.01520  0.61900  Biso   1.000  H
  H142     1.0000 0.26520  0.10410  0.86900  Biso   1.000  H
  H143     1.0000 0.64590  0.51520  0.11900  Biso   1.000  H
  H144     1.0000 0.76520  0.60410  0.36900  Biso   1.000  H
  C177     1.0000 0.83480  0.98630  0.65380  Biso   1.000  C
  C178     1.0000 0.76370  0.08480  0.90380  Biso   1.000  C
  C179     1.0000 0.33480  0.48630  0.15380  Biso   1.000  C
  C180     1.0000 0.26370  0.58480  0.40380  Biso   1.000  C
  C181     1.0000 0.23630  0.41520  0.90380  Biso   1.000  C
  C182     1.0000 0.66520  0.01370  0.15380  Biso   1.000  C
  C183     1.0000 0.73630  0.91520  0.40380  Biso   1.000  C
  C184     1.0000 0.16520  0.51370  0.65380  Biso   1.000  C
  C185     1.0000 0.16520  0.01370  0.34620  Biso   1.000  C
  C186     1.0000 0.73630  0.41520  0.59620  Biso   1.000  C
  C187     1.0000 0.66520  0.51370  0.84620  Biso   1.000  C
  C188     1.0000 0.23630  0.91520  0.09620  Biso   1.000  C
  C189     1.0000 0.26370  0.08480  0.59620  Biso   1.000  C
  C190     1.0000 0.33480  0.98630  0.84620  Biso   1.000  C
  C191     1.0000 0.76370  0.58480  0.09620  Biso   1.000  C
  C192     1.0000 0.83480  0.48630  0.34620  Biso   1.000  C
  H145     1.0000 0.88290  0.95390  0.64240  Biso   1.000  H
  H146     1.0000 0.79610  0.13290  0.89240  Biso   1.000  H
  H147     1.0000 0.38290  0.45390  0.14240  Biso   1.000  H
  H148     1.0000 0.29610  0.63290  0.39240  Biso   1.000  H
  H149     1.0000 0.20390  0.36710  0.89240  Biso   1.000  H
  H150     1.0000 0.61710  0.04610  0.14240  Biso   1.000  H
  H151     1.0000 0.70390  0.86710  0.39240  Biso   1.000  H
  H152     1.0000 0.11710  0.54610  0.64240  Biso   1.000  H
  H153     1.0000 0.11710  0.04610  0.35760  Biso   1.000  H
  H154     1.0000 0.70390  0.36710  0.60760  Biso   1.000  H
  H155     1.0000 0.61710  0.54610  0.85760  Biso   1.000  H
  H156     1.0000 0.20390  0.86710  0.10760  Biso   1.000  H
  H157     1.0000 0.29610  0.13290  0.60760  Biso   1.000  H
  H158     1.0000 0.38290  0.95390  0.85760  Biso   1.000  H
  H159     1.0000 0.79610  0.63290  0.10760  Biso   1.000  H
  H160     1.0000 0.88290  0.45390  0.35760  Biso   1.000  H
  C193     1.0000 0.70450  0.09490  0.77540  Biso   1.000  C
  C194     1.0000 0.65510  0.95450  0.02540  Biso   1.000  C
  C195     1.0000 0.20450  0.59490  0.27540  Biso   1.000  C
  C196     1.0000 0.15510  0.45450  0.52540  Biso   1.000  C
  C197     1.0000 0.34490  0.54550  0.02540  Biso   1.000  C
  C198     1.0000 0.79550  0.90510  0.27540  Biso   1.000  C
  C199     1.0000 0.84490  0.04550  0.52540  Biso   1.000  C
  C200     1.0000 0.29550  0.40510  0.77540  Biso   1.000  C
  C201     1.0000 0.29550  0.90510  0.22460  Biso   1.000  C
  C202     1.0000 0.84490  0.54550  0.47460  Biso   1.000  C
  C203     1.0000 0.79550  0.40510  0.72460  Biso   1.000  C
  C204     1.0000 0.34490  0.04550  0.97460  Biso   1.000  C
  C205     1.0000 0.15510  0.95450  0.47460  Biso   1.000  C
  C206     1.0000 0.20450  0.09490  0.72460  Biso   1.000  C
  C207     1.0000 0.65510  0.45450  0.97460  Biso   1.000  C
  C208     1.0000 0.70450  0.59490  0.22460  Biso   1.000  C
  H161     1.0000 0.74010  0.16020  0.78250  Biso   1.000  H
  H162     1.0000 0.58980  0.99010  0.03250  Biso   1.000  H
  H163     1.0000 0.24010  0.66020  0.28250  Biso   1.000  H
  H164     1.0000 0.08980  0.49010  0.53250  Biso   1.000  H
  H165     1.0000 0.41020  0.50990  0.03250  Biso   1.000  H
  H166     1.0000 0.75990  0.83980  0.28250  Biso   1.000  H
  H167     1.0000 0.91020  0.00990  0.53250  Biso   1.000  H
  H168     1.0000 0.25990  0.33980  0.78250  Biso   1.000  H
  H169     1.0000 0.25990  0.83980  0.21750  Biso   1.000  H
  H170     1.0000 0.91020  0.50990  0.46750  Biso   1.000  H
  H171     1.0000 0.75990  0.33980  0.71750  Biso   1.000  H
  H172     1.0000 0.41020  0.00990  0.96750  Biso   1.000  H
  H173     1.0000 0.08980  0.99010  0.46750  Biso   1.000  H
  H174     1.0000 0.24010  0.16020  0.71750  Biso   1.000  H
  H175     1.0000 0.58980  0.49010  0.96750  Biso   1.000  H
  H176     1.0000 0.74010  0.66020  0.21750  Biso   1.000  H
  H177     1.0000 0.63060  0.11630  0.76990  Biso   1.000  H
  H178     1.0000 0.63370  0.88060  0.01990  Biso   1.000  H
  H179     1.0000 0.13060  0.61630  0.26990  Biso   1.000  H
  H180     1.0000 0.13370  0.38060  0.51990  Biso   1.000  H
  H181     1.0000 0.36630  0.61940  0.01990  Biso   1.000  H
  H182     1.0000 0.86940  0.88370  0.26990  Biso   1.000  H
  H183     1.0000 0.86630  0.11940  0.51990  Biso   1.000  H
  H184     1.0000 0.36940  0.38370  0.76990  Biso   1.000  H
  H185     1.0000 0.36940  0.88370  0.23010  Biso   1.000  H
  H186     1.0000 0.86630  0.61940  0.48010  Biso   1.000  H
  H187     1.0000 0.86940  0.38370  0.73010  Biso   1.000  H
  H188     1.0000 0.36630  0.11940  0.98010  Biso   1.000  H
  H189     1.0000 0.13370  0.88060  0.48010  Biso   1.000  H
  H190     1.0000 0.13060  0.11630  0.73010  Biso   1.000  H
  H191     1.0000 0.63370  0.38060  0.98010  Biso   1.000  H
  H192     1.0000 0.63060  0.61630  0.23010  Biso   1.000  H
  C209     1.0000 0.77370  0.05310  0.75320  Biso   1.000  C
  C210     1.0000 0.69690  0.02370  0.00320  Biso   1.000  C
  C211     1.0000 0.27370  0.55310  0.25320  Biso   1.000  C
  C212     1.0000 0.19690  0.52370  0.50320  Biso   1.000  C
  C213     1.0000 0.30310  0.47630  0.00320  Biso   1.000  C
  C214     1.0000 0.72630  0.94690  0.25320  Biso   1.000  C
  C215     1.0000 0.80310  0.97630  0.50320  Biso   1.000  C
  C216     1.0000 0.22630  0.44690  0.75320  Biso   1.000  C
  C217     1.0000 0.22630  0.94690  0.24680  Biso   1.000  C
  C218     1.0000 0.80310  0.47630  0.49680  Biso   1.000  C
  C219     1.0000 0.72630  0.44690  0.74680  Biso   1.000  C
  C220     1.0000 0.30310  0.97630  0.99680  Biso   1.000  C
  C221     1.0000 0.19690  0.02370  0.49680  Biso   1.000  C
  C222     1.0000 0.27370  0.05310  0.74680  Biso   1.000  C
  C223     1.0000 0.69690  0.52370  0.99680  Biso   1.000  C
  C224     1.0000 0.77370  0.55310  0.24680  Biso   1.000  C
  H193     1.0000 0.78170  0.11520  0.74160  Biso   1.000  H
  H194     1.0000 0.63480  0.03170  0.99160  Biso   1.000  H
  H195     1.0000 0.28170  0.61520  0.24160  Biso   1.000  H
  H196     1.0000 0.13480  0.53170  0.49160  Biso   1.000  H
  H197     1.0000 0.36520  0.46830  0.99160  Biso   1.000  H
  H198     1.0000 0.71830  0.88480  0.24160  Biso   1.000  H
  H199     1.0000 0.86520  0.96830  0.49160  Biso   1.000  H
  H200     1.0000 0.21830  0.38480  0.74160  Biso   1.000  H
  H201     1.0000 0.21830  0.88480  0.25840  Biso   1.000  H
  H202     1.0000 0.86520  0.46830  0.50840  Biso   1.000  H
  H203     1.0000 0.71830  0.38480  0.75840  Biso   1.000  H
  H204     1.0000 0.36520  0.96830  0.00840  Biso   1.000  H
  H205     1.0000 0.13480  0.03170  0.50840  Biso   1.000  H
  H206     1.0000 0.28170  0.11520  0.75840  Biso   1.000  H
  H207     1.0000 0.63480  0.53170  0.00840  Biso   1.000  H
  H208     1.0000 0.78170  0.61520  0.25840  Biso   1.000  H
  C225     1.0000 0.71220  0.95760  0.73970  Biso   1.000  C
  C226     1.0000 0.79240  0.96220  0.98970  Biso   1.000  C
  C227     1.0000 0.21220  0.45760  0.23970  Biso   1.000  C
  C228     1.0000 0.29240  0.46220  0.48970  Biso   1.000  C
  C229     1.0000 0.20760  0.53780  0.98970  Biso   1.000  C
  C230     1.0000 0.78780  0.04240  0.23970  Biso   1.000  C
  C231     1.0000 0.70760  0.03780  0.48970  Biso   1.000  C
  C232     1.0000 0.28780  0.54240  0.73970  Biso   1.000  C
  C233     1.0000 0.28780  0.04240  0.26030  Biso   1.000  C
  C234     1.0000 0.70760  0.53780  0.51030  Biso   1.000  C
  C235     1.0000 0.78780  0.54240  0.76030  Biso   1.000  C
  C236     1.0000 0.20760  0.03780  0.01030  Biso   1.000  C
  C237     1.0000 0.29240  0.96220  0.51030  Biso   1.000  C
  C238     1.0000 0.21220  0.95760  0.76030  Biso   1.000  C
  C239     1.0000 0.79240  0.46220  0.01030  Biso   1.000  C
  C240     1.0000 0.71220  0.45760  0.26030  Biso   1.000  C
  H209     1.0000 0.63420  0.97690  0.73750  Biso   1.000  H
  H210     1.0000 0.77310  0.88420  0.98750  Biso   1.000  H
  H211     1.0000 0.13420  0.47690  0.23750  Biso   1.000  H
  H212     1.0000 0.27310  0.38420  0.48750  Biso   1.000  H
  H213     1.0000 0.22690  0.61580  0.98750  Biso   1.000  H
  H214     1.0000 0.86580  0.02310  0.23750  Biso   1.000  H
  H215     1.0000 0.72690  0.11580  0.48750  Biso   1.000  H
  H216     1.0000 0.36580  0.52310  0.73750  Biso   1.000  H
  H217     1.0000 0.36580  0.02310  0.26250  Biso   1.000  H
  H218     1.0000 0.72690  0.61580  0.51250  Biso   1.000  H
  H219     1.0000 0.86580  0.52310  0.76250  Biso   1.000  H
  H220     1.0000 0.22690  0.11580  0.01250  Biso   1.000  H
  H221     1.0000 0.27310  0.88420  0.51250  Biso   1.000  H
  H222     1.0000 0.13420  0.97690  0.76250  Biso   1.000  H
  H223     1.0000 0.77310  0.38420  0.01250  Biso   1.000  H
  H224     1.0000 0.63420  0.47690  0.26250  Biso   1.000  H
  H225     1.0000 0.71610  0.88970  0.74940  Biso   1.000  H
  H226     1.0000 0.86030  0.96610  0.99940  Biso   1.000  H
  H227     1.0000 0.21610  0.38970  0.24940  Biso   1.000  H
  H228     1.0000 0.36030  0.46610  0.49940  Biso   1.000  H
  H229     1.0000 0.13970  0.53390  0.99940  Biso   1.000  H
  H230     1.0000 0.78390  0.11030  0.24940  Biso   1.000  H
  H231     1.0000 0.63970  0.03390  0.49940  Biso   1.000  H
  H232     1.0000 0.28390  0.61030  0.74940  Biso   1.000  H
  H233     1.0000 0.28390  0.11030  0.25060  Biso   1.000  H
  H234     1.0000 0.63970  0.53390  0.50060  Biso   1.000  H
  H235     1.0000 0.78390  0.61030  0.75060  Biso   1.000  H
  H236     1.0000 0.13970  0.03390  0.00060  Biso   1.000  H
  H237     1.0000 0.36030  0.96610  0.50060  Biso   1.000  H
  H238     1.0000 0.21610  0.88970  0.75060  Biso   1.000  H
  H239     1.0000 0.86030  0.46610  0.00060  Biso   1.000  H
  H240     1.0000 0.71610  0.38970  0.25060  Biso   1.000  H
  C241     1.0000 0.50000  0.25000  0.81310  Biso   1.000  C
  C242     1.0000 0.50000  0.75000  0.06310  Biso   1.000  C
  C243     1.0000 0.00000  0.75000  0.31310  Biso   1.000  C
  C244     1.0000 0.00000  0.25000  0.56310  Biso   1.000  C
  C245     1.0000 0.50000  0.75000  0.18690  Biso   1.000  C
  C246     1.0000 0.00000  0.75000  0.43690  Biso   1.000  C
  C247     1.0000 0.00000  0.25000  0.68690  Biso   1.000  C
  C248     1.0000 0.50000  0.25000  0.93690  Biso   1.000  C
  H241     1.0000 0.42370  0.25810  0.81820  Biso   1.000  H
  H242     1.0000 0.49190  0.67370  0.06820  Biso   1.000  H
  H243     1.0000 0.92370  0.75810  0.31820  Biso   1.000  H
  H244     1.0000 0.99190  0.17370  0.56820  Biso   1.000  H
  H245     1.0000 0.50810  0.82630  0.06820  Biso   1.000  H
  H246     1.0000 0.07630  0.74190  0.31820  Biso   1.000  H
  H247     1.0000 0.00810  0.32630  0.56820  Biso   1.000  H
  H248     1.0000 0.57630  0.24190  0.81820  Biso   1.000  H
  H249     1.0000 0.57630  0.74190  0.18180  Biso   1.000  H
  H250     1.0000 0.00810  0.82630  0.43180  Biso   1.000  H
  H251     1.0000 0.07630  0.24190  0.68180  Biso   1.000  H
  H252     1.0000 0.50810  0.32630  0.93180  Biso   1.000  H
  H253     1.0000 0.99190  0.67370  0.43180  Biso   1.000  H
  H254     1.0000 0.92370  0.25810  0.68180  Biso   1.000  H
  H255     1.0000 0.49190  0.17370  0.93180  Biso   1.000  H
  H256     1.0000 0.42370  0.75810  0.18180  Biso   1.000  H
  H257     1.0000 0.50270  0.21410  0.79730  Biso   1.000  H
  H258     1.0000 0.53590  0.75270  0.04730  Biso   1.000  H
  H259     1.0000 0.00270  0.71410  0.29730  Biso   1.000  H
  H260     1.0000 0.03590  0.25270  0.54730  Biso   1.000  H
  H261     1.0000 0.46410  0.74730  0.04730  Biso   1.000  H
  H262     1.0000 0.99730  0.78590  0.29730  Biso   1.000  H
  H263     1.0000 0.96410  0.24730  0.54730  Biso   1.000  H
  H264     1.0000 0.49730  0.28590  0.79730  Biso   1.000  H
  H265     1.0000 0.49730  0.78590  0.20270  Biso   1.000  H
  H266     1.0000 0.96410  0.74730  0.45270  Biso   1.000  H
  H267     1.0000 0.99730  0.28590  0.70270  Biso   1.000  H
  H268     1.0000 0.46410  0.24730  0.95270  Biso   1.000  H
  H269     1.0000 0.03590  0.75270  0.45270  Biso   1.000  H
  H270     1.0000 0.00270  0.21410  0.70270  Biso   1.000  H
  H271     1.0000 0.53590  0.25270  0.95270  Biso   1.000  H
  H272     1.0000 0.50270  0.71410  0.20270  Biso   1.000  H
  H273     1.0000 0.53410  0.32230  0.81200  Biso   1.000  H
  H274     1.0000 0.42770  0.78410  0.06200  Biso   1.000  H
  H275     1.0000 0.03410  0.82230  0.31200  Biso   1.000  H
  H276     1.0000 0.92770  0.28410  0.56200  Biso   1.000  H
  H277     1.0000 0.57230  0.71590  0.06200  Biso   1.000  H
  H278     1.0000 0.96590  0.67770  0.31200  Biso   1.000  H
  H279     1.0000 0.07230  0.21590  0.56200  Biso   1.000  H
  H280     1.0000 0.46590  0.17770  0.81200  Biso   1.000  H
  H281     1.0000 0.46590  0.67770  0.18800  Biso   1.000  H
  H282     1.0000 0.07230  0.71590  0.43800  Biso   1.000  H
  H283     1.0000 0.96590  0.17770  0.68800  Biso   1.000  H
  H284     1.0000 0.57230  0.21590  0.93800  Biso   1.000  H
  H285     1.0000 0.92770  0.78410  0.43800  Biso   1.000  H
  H286     1.0000 0.03410  0.32230  0.68800  Biso   1.000  H
  H287     1.0000 0.42770  0.28410  0.93800  Biso   1.000  H
  H288     1.0000 0.53410  0.82230  0.18800  Biso   1.000  H
