data_image0
_cell_length_a       31.8272
_cell_length_b       31.8272
_cell_length_c       27.8945
_cell_angle_alpha    90
_cell_angle_beta     90
_cell_angle_gamma    90

_symmetry_space_group_name_H-M    "P 1"
_symmetry_int_tables_number       1

loop_
  _symmetry_equiv_pos_as_xyz
  'x, y, z'

loop_
  _atom_site_label
  _atom_site_occupancy
  _atom_site_fract_x
  _atom_site_fract_y
  _atom_site_fract_z
  _atom_site_thermal_displace_type
  _atom_site_B_iso_or_equiv
  _atom_site_type_symbol
  Cu1      1.0000 0.75000  0.75000  0.36237  Biso   1.000  Cu
  Cu2      1.0000 0.75000  0.75000  0.86237  Biso   1.000  Cu
  Cu3      1.0000 0.25000  0.25000  0.63763  Biso   1.000  Cu
  Cu4      1.0000 0.25000  0.25000  0.13763  Biso   1.000  Cu
  Cu5      1.0000 0.75000  0.75000  0.45671  Biso   1.000  Cu
  Cu6      1.0000 0.75000  0.75000  0.95671  Biso   1.000  Cu
  Cu7      1.0000 0.25000  0.25000  0.54329  Biso   1.000  Cu
  Cu8      1.0000 0.25000  0.25000  0.04329  Biso   1.000  Cu
  Cu9      1.0000 0.25000  0.57167  0.18333  Biso   1.000  Cu
  Cu10     1.0000 0.25000  0.92833  0.18333  Biso   1.000  Cu
  Cu11     1.0000 0.92833  0.25000  0.68333  Biso   1.000  Cu
  Cu12     1.0000 0.57167  0.25000  0.68333  Biso   1.000  Cu
  Cu13     1.0000 0.75000  0.07167  0.81667  Biso   1.000  Cu
  Cu14     1.0000 0.75000  0.42833  0.81667  Biso   1.000  Cu
  Cu15     1.0000 0.07167  0.75000  0.31667  Biso   1.000  Cu
  Cu16     1.0000 0.42833  0.75000  0.31667  Biso   1.000  Cu
  Cu17     1.0000 0.25000  0.48910  0.17765  Biso   1.000  Cu
  Cu18     1.0000 0.25000  0.01090  0.17765  Biso   1.000  Cu
  Cu19     1.0000 0.01090  0.25000  0.67765  Biso   1.000  Cu
  Cu20     1.0000 0.48910  0.25000  0.67765  Biso   1.000  Cu
  Cu21     1.0000 0.75000  0.98910  0.82235  Biso   1.000  Cu
  Cu22     1.0000 0.75000  0.51090  0.82235  Biso   1.000  Cu
  Cu23     1.0000 0.98910  0.75000  0.32235  Biso   1.000  Cu
  Cu24     1.0000 0.51090  0.75000  0.32235  Biso   1.000  Cu
  O1       1.0000 0.20547  0.49444  0.22688  Biso   1.000  O
  O2       1.0000 0.29453  0.00556  0.22688  Biso   1.000  O
  O3       1.0000 0.00556  0.20547  0.72688  Biso   1.000  O
  O4       1.0000 0.49444  0.29453  0.72688  Biso   1.000  O
  O5       1.0000 0.79453  0.99444  0.77312  Biso   1.000  O
  O6       1.0000 0.70547  0.50556  0.77312  Biso   1.000  O
  O7       1.0000 0.99444  0.70547  0.27312  Biso   1.000  O
  O8       1.0000 0.50556  0.79453  0.27312  Biso   1.000  O
  O9       1.0000 0.79453  0.50556  0.77312  Biso   1.000  O
  O10      1.0000 0.70547  0.99444  0.77312  Biso   1.000  O
  O11      1.0000 0.99444  0.79453  0.27312  Biso   1.000  O
  O12      1.0000 0.50556  0.70547  0.27312  Biso   1.000  O
  O13      1.0000 0.20547  0.00556  0.22688  Biso   1.000  O
  O14      1.0000 0.29453  0.49444  0.22688  Biso   1.000  O
  O15      1.0000 0.00556  0.29453  0.72688  Biso   1.000  O
  O16      1.0000 0.49444  0.20547  0.72688  Biso   1.000  O
  O17      1.0000 0.93209  0.29329  0.63430  Biso   1.000  O
  O18      1.0000 0.56791  0.20671  0.63430  Biso   1.000  O
  O19      1.0000 0.20671  0.93209  0.13430  Biso   1.000  O
  O20      1.0000 0.29329  0.56791  0.13430  Biso   1.000  O
  O21      1.0000 0.06791  0.79329  0.36570  Biso   1.000  O
  O22      1.0000 0.43209  0.70671  0.36570  Biso   1.000  O
  O23      1.0000 0.79329  0.43209  0.86570  Biso   1.000  O
  O24      1.0000 0.70671  0.06791  0.86570  Biso   1.000  O
  O25      1.0000 0.06791  0.70671  0.36570  Biso   1.000  O
  O26      1.0000 0.43209  0.79329  0.36570  Biso   1.000  O
  O27      1.0000 0.79329  0.06791  0.86570  Biso   1.000  O
  O28      1.0000 0.70671  0.43209  0.86570  Biso   1.000  O
  O29      1.0000 0.93209  0.20671  0.63430  Biso   1.000  O
  O30      1.0000 0.56791  0.29329  0.63430  Biso   1.000  O
  O31      1.0000 0.20671  0.56791  0.13430  Biso   1.000  O
  O32      1.0000 0.29329  0.93209  0.13430  Biso   1.000  O
  O33      1.0000 0.20705  0.56459  0.23139  Biso   1.000  O
  O34      1.0000 0.29295  0.93541  0.23139  Biso   1.000  O
  O35      1.0000 0.93541  0.20705  0.73139  Biso   1.000  O
  O36      1.0000 0.56459  0.29295  0.73139  Biso   1.000  O
  O37      1.0000 0.79295  0.06459  0.76861  Biso   1.000  O
  O38      1.0000 0.70705  0.43541  0.76861  Biso   1.000  O
  O39      1.0000 0.06459  0.70705  0.26861  Biso   1.000  O
  O40      1.0000 0.43541  0.79295  0.26861  Biso   1.000  O
  O41      1.0000 0.79295  0.43541  0.76861  Biso   1.000  O
  O42      1.0000 0.70705  0.06459  0.76861  Biso   1.000  O
  O43      1.0000 0.06459  0.79295  0.26861  Biso   1.000  O
  O44      1.0000 0.43541  0.70705  0.26861  Biso   1.000  O
  O45      1.0000 0.20705  0.93541  0.23139  Biso   1.000  O
  O46      1.0000 0.29295  0.56459  0.23139  Biso   1.000  O
  O47      1.0000 0.93541  0.29295  0.73139  Biso   1.000  O
  O48      1.0000 0.56459  0.20705  0.73139  Biso   1.000  O
  O49      1.0000 0.00056  0.29366  0.62745  Biso   1.000  O
  O50      1.0000 0.49944  0.20634  0.62745  Biso   1.000  O
  O51      1.0000 0.20634  0.00056  0.12745  Biso   1.000  O
  O52      1.0000 0.29366  0.49944  0.12745  Biso   1.000  O
  O53      1.0000 0.99944  0.79366  0.37255  Biso   1.000  O
  O54      1.0000 0.50056  0.70634  0.37255  Biso   1.000  O
  O55      1.0000 0.79366  0.50056  0.87255  Biso   1.000  O
  O56      1.0000 0.70634  0.99944  0.87255  Biso   1.000  O
  O57      1.0000 0.99944  0.70634  0.37255  Biso   1.000  O
  O58      1.0000 0.50056  0.79366  0.37255  Biso   1.000  O
  O59      1.0000 0.79366  0.99944  0.87255  Biso   1.000  O
  O60      1.0000 0.70634  0.50056  0.87255  Biso   1.000  O
  O61      1.0000 0.00056  0.20634  0.62745  Biso   1.000  O
  O62      1.0000 0.49944  0.29366  0.62745  Biso   1.000  O
  O63      1.0000 0.20634  0.49944  0.12745  Biso   1.000  O
  O64      1.0000 0.29366  0.00056  0.12745  Biso   1.000  O
  O65      1.0000 0.79292  0.70611  0.44923  Biso   1.000  O
  O66      1.0000 0.70708  0.79389  0.44923  Biso   1.000  O
  O67      1.0000 0.79389  0.79292  0.94923  Biso   1.000  O
  O68      1.0000 0.70611  0.70708  0.94923  Biso   1.000  O
  O69      1.0000 0.20708  0.20611  0.55077  Biso   1.000  O
  O70      1.0000 0.29292  0.29389  0.55077  Biso   1.000  O
  O71      1.0000 0.20611  0.29292  0.05077  Biso   1.000  O
  O72      1.0000 0.29389  0.20708  0.05077  Biso   1.000  O
  O73      1.0000 0.20708  0.29389  0.55077  Biso   1.000  O
  O74      1.0000 0.29292  0.20611  0.55077  Biso   1.000  O
  O75      1.0000 0.20611  0.20708  0.05077  Biso   1.000  O
  O76      1.0000 0.29389  0.29292  0.05077  Biso   1.000  O
  O77      1.0000 0.79292  0.79389  0.44923  Biso   1.000  O
  O78      1.0000 0.70708  0.70611  0.44923  Biso   1.000  O
  O79      1.0000 0.79389  0.70708  0.94923  Biso   1.000  O
  O80      1.0000 0.70611  0.79292  0.94923  Biso   1.000  O
  O81      1.0000 0.79270  0.70637  0.36962  Biso   1.000  O
  O82      1.0000 0.70730  0.79363  0.36962  Biso   1.000  O
  O83      1.0000 0.79363  0.79270  0.86962  Biso   1.000  O
  O84      1.0000 0.70637  0.70730  0.86962  Biso   1.000  O
  O85      1.0000 0.20730  0.20637  0.63038  Biso   1.000  O
  O86      1.0000 0.29270  0.29363  0.63038  Biso   1.000  O
  O87      1.0000 0.20637  0.29270  0.13038  Biso   1.000  O
  O88      1.0000 0.29363  0.20730  0.13038  Biso   1.000  O
  O89      1.0000 0.20730  0.29363  0.63038  Biso   1.000  O
  O90      1.0000 0.29270  0.20637  0.63038  Biso   1.000  O
  O91      1.0000 0.20637  0.20730  0.13038  Biso   1.000  O
  O92      1.0000 0.29363  0.29270  0.13038  Biso   1.000  O
  O93      1.0000 0.79270  0.79363  0.36962  Biso   1.000  O
  O94      1.0000 0.70730  0.70637  0.36962  Biso   1.000  O
  O95      1.0000 0.79363  0.70730  0.86962  Biso   1.000  O
  O96      1.0000 0.70637  0.79270  0.86962  Biso   1.000  O
  N1       1.0000 0.92020  0.55730  0.41160  Biso   1.000  N
  N2       1.0000 0.57980  0.94270  0.41160  Biso   1.000  N
  N3       1.0000 0.94270  0.92020  0.91160  Biso   1.000  N
  N4       1.0000 0.55730  0.57980  0.91160  Biso   1.000  N
  N5       1.0000 0.07980  0.05730  0.58840  Biso   1.000  N
  N6       1.0000 0.42020  0.44270  0.58840  Biso   1.000  N
  N7       1.0000 0.05730  0.42020  0.08840  Biso   1.000  N
  N8       1.0000 0.44270  0.07980  0.08840  Biso   1.000  N
  N9       1.0000 0.07980  0.44270  0.58840  Biso   1.000  N
  N10      1.0000 0.42020  0.05730  0.58840  Biso   1.000  N
  N11      1.0000 0.05730  0.07980  0.08840  Biso   1.000  N
  N12      1.0000 0.44270  0.42020  0.08840  Biso   1.000  N
  N13      1.0000 0.92020  0.94270  0.41160  Biso   1.000  N
  N14      1.0000 0.57980  0.55730  0.41160  Biso   1.000  N
  N15      1.0000 0.94270  0.57980  0.91160  Biso   1.000  N
  N16      1.0000 0.55730  0.92020  0.91160  Biso   1.000  N
  N17      1.0000 0.75000  0.75000  0.28500  Biso   1.000  N
  N18      1.0000 0.75000  0.75000  0.78500  Biso   1.000  N
  N19      1.0000 0.25000  0.25000  0.71500  Biso   1.000  N
  N20      1.0000 0.25000  0.25000  0.21500  Biso   1.000  N
  N21      1.0000 0.75000  0.75000  0.03370  Biso   1.000  N
  N22      1.0000 0.75000  0.75000  0.53370  Biso   1.000  N
  N23      1.0000 0.25000  0.25000  0.96630  Biso   1.000  N
  N24      1.0000 0.25000  0.25000  0.46630  Biso   1.000  N
  N25      1.0000 0.25000  0.64003  0.18522  Biso   1.000  N
  N26      1.0000 0.25000  0.85997  0.18522  Biso   1.000  N
  N27      1.0000 0.85997  0.25000  0.68522  Biso   1.000  N
  N28      1.0000 0.64003  0.25000  0.68522  Biso   1.000  N
  N29      1.0000 0.75000  0.14003  0.81478  Biso   1.000  N
  N30      1.0000 0.75000  0.35997  0.81478  Biso   1.000  N
  N31      1.0000 0.14003  0.75000  0.31478  Biso   1.000  N
  N32      1.0000 0.35997  0.75000  0.31478  Biso   1.000  N
  N33      1.0000 0.25000  0.42060  0.17500  Biso   1.000  N
  N34      1.0000 0.25000  0.07940  0.17500  Biso   1.000  N
  N35      1.0000 0.07940  0.25000  0.67500  Biso   1.000  N
  N36      1.0000 0.42060  0.25000  0.67500  Biso   1.000  N
  N37      1.0000 0.75000  0.92060  0.82500  Biso   1.000  N
  N38      1.0000 0.75000  0.57940  0.82500  Biso   1.000  N
  N39      1.0000 0.92060  0.75000  0.32500  Biso   1.000  N
  N40      1.0000 0.57940  0.75000  0.32500  Biso   1.000  N
  C1       1.0000 0.80410  0.69316  0.40980  Biso   1.000  C
  C2       1.0000 0.69590  0.80684  0.40980  Biso   1.000  C
  C3       1.0000 0.80684  0.80410  0.90980  Biso   1.000  C
  C4       1.0000 0.69316  0.69590  0.90980  Biso   1.000  C
  C5       1.0000 0.19590  0.19316  0.59020  Biso   1.000  C
  C6       1.0000 0.30410  0.30684  0.59020  Biso   1.000  C
  C7       1.0000 0.19316  0.30410  0.09020  Biso   1.000  C
  C8       1.0000 0.30684  0.19590  0.09020  Biso   1.000  C
  C9       1.0000 0.19590  0.30684  0.59020  Biso   1.000  C
  C10      1.0000 0.30410  0.19316  0.59020  Biso   1.000  C
  C11      1.0000 0.19316  0.19590  0.09020  Biso   1.000  C
  C12      1.0000 0.30684  0.30410  0.09020  Biso   1.000  C
  C13      1.0000 0.80410  0.80684  0.40980  Biso   1.000  C
  C14      1.0000 0.69590  0.69316  0.40980  Biso   1.000  C
  C15      1.0000 0.80684  0.69590  0.90980  Biso   1.000  C
  C16      1.0000 0.69316  0.80410  0.90980  Biso   1.000  C
  C17      1.0000 0.83466  0.65687  0.40988  Biso   1.000  C
  C18      1.0000 0.66534  0.84313  0.40988  Biso   1.000  C
  C19      1.0000 0.84313  0.83466  0.90988  Biso   1.000  C
  C20      1.0000 0.65687  0.66534  0.90988  Biso   1.000  C
  C21      1.0000 0.16534  0.15687  0.59012  Biso   1.000  C
  C22      1.0000 0.33466  0.34313  0.59012  Biso   1.000  C
  C23      1.0000 0.15687  0.33466  0.09012  Biso   1.000  C
  C24      1.0000 0.34313  0.16534  0.09012  Biso   1.000  C
  C25      1.0000 0.16534  0.34313  0.59012  Biso   1.000  C
  C26      1.0000 0.33466  0.15687  0.59012  Biso   1.000  C
  C27      1.0000 0.15687  0.16534  0.09012  Biso   1.000  C
  C28      1.0000 0.34313  0.33466  0.09012  Biso   1.000  C
  C29      1.0000 0.83466  0.84313  0.40988  Biso   1.000  C
  C30      1.0000 0.66534  0.65687  0.40988  Biso   1.000  C
  C31      1.0000 0.84313  0.66534  0.90988  Biso   1.000  C
  C32      1.0000 0.65687  0.83466  0.90988  Biso   1.000  C
  C33      1.0000 0.85356  0.64316  0.45040  Biso   1.000  C
  C34      1.0000 0.64644  0.85684  0.45040  Biso   1.000  C
  C35      1.0000 0.85684  0.85356  0.95040  Biso   1.000  C
  C36      1.0000 0.64316  0.64644  0.95040  Biso   1.000  C
  C37      1.0000 0.14644  0.14316  0.54960  Biso   1.000  C
  C38      1.0000 0.35356  0.35684  0.54960  Biso   1.000  C
  C39      1.0000 0.14316  0.35356  0.04960  Biso   1.000  C
  C40      1.0000 0.35684  0.14644  0.04960  Biso   1.000  C
  C41      1.0000 0.14644  0.35684  0.54960  Biso   1.000  C
  C42      1.0000 0.35356  0.14316  0.54960  Biso   1.000  C
  C43      1.0000 0.14316  0.14644  0.04960  Biso   1.000  C
  C44      1.0000 0.35684  0.35356  0.04960  Biso   1.000  C
  C45      1.0000 0.85356  0.85684  0.45040  Biso   1.000  C
  C46      1.0000 0.64644  0.64316  0.45040  Biso   1.000  C
  C47      1.0000 0.85684  0.64644  0.95040  Biso   1.000  C
  C48      1.0000 0.64316  0.85356  0.95040  Biso   1.000  C
  H1       1.0000 0.84674  0.65657  0.47902  Biso   1.000  H
  H2       1.0000 0.65326  0.84343  0.47902  Biso   1.000  H
  H3       1.0000 0.84343  0.84674  0.97902  Biso   1.000  H
  H4       1.0000 0.65657  0.65326  0.97902  Biso   1.000  H
  H5       1.0000 0.15326  0.15657  0.52098  Biso   1.000  H
  H6       1.0000 0.34674  0.34343  0.52098  Biso   1.000  H
  H7       1.0000 0.15657  0.34674  0.02098  Biso   1.000  H
  H8       1.0000 0.34343  0.15326  0.02098  Biso   1.000  H
  H9       1.0000 0.15326  0.34343  0.52098  Biso   1.000  H
  H10      1.0000 0.34674  0.15657  0.52098  Biso   1.000  H
  H11      1.0000 0.15657  0.15326  0.02098  Biso   1.000  H
  H12      1.0000 0.34343  0.34674  0.02098  Biso   1.000  H
  H13      1.0000 0.84674  0.84343  0.47902  Biso   1.000  H
  H14      1.0000 0.65326  0.65657  0.47902  Biso   1.000  H
  H15      1.0000 0.84343  0.65326  0.97902  Biso   1.000  H
  H16      1.0000 0.65657  0.84674  0.97902  Biso   1.000  H
  C49      1.0000 0.88140  0.61160  0.45230  Biso   1.000  C
  C50      1.0000 0.61860  0.88840  0.45230  Biso   1.000  C
  C51      1.0000 0.88840  0.88140  0.95230  Biso   1.000  C
  C52      1.0000 0.61160  0.61860  0.95230  Biso   1.000  C
  C53      1.0000 0.11860  0.11160  0.54770  Biso   1.000  C
  C54      1.0000 0.38140  0.38840  0.54770  Biso   1.000  C
  C55      1.0000 0.11160  0.38140  0.04770  Biso   1.000  C
  C56      1.0000 0.38840  0.11860  0.04770  Biso   1.000  C
  C57      1.0000 0.11860  0.38840  0.54770  Biso   1.000  C
  C58      1.0000 0.38140  0.11160  0.54770  Biso   1.000  C
  C59      1.0000 0.11160  0.11860  0.04770  Biso   1.000  C
  C60      1.0000 0.38840  0.38140  0.04770  Biso   1.000  C
  C61      1.0000 0.88140  0.88840  0.45230  Biso   1.000  C
  C62      1.0000 0.61860  0.61160  0.45230  Biso   1.000  C
  C63      1.0000 0.88840  0.61860  0.95230  Biso   1.000  C
  C64      1.0000 0.61160  0.88140  0.95230  Biso   1.000  C
  H17      1.0000 0.89418  0.60410  0.48105  Biso   1.000  H
  H18      1.0000 0.60582  0.89590  0.48105  Biso   1.000  H
  H19      1.0000 0.89590  0.89418  0.98105  Biso   1.000  H
  H20      1.0000 0.60410  0.60582  0.98105  Biso   1.000  H
  H21      1.0000 0.10582  0.10410  0.51895  Biso   1.000  H
  H22      1.0000 0.39418  0.39590  0.51895  Biso   1.000  H
  H23      1.0000 0.10410  0.39418  0.01895  Biso   1.000  H
  H24      1.0000 0.39590  0.10582  0.01895  Biso   1.000  H
  H25      1.0000 0.10582  0.39590  0.51895  Biso   1.000  H
  H26      1.0000 0.39418  0.10410  0.51895  Biso   1.000  H
  H27      1.0000 0.10410  0.10582  0.01895  Biso   1.000  H
  H28      1.0000 0.39590  0.39418  0.01895  Biso   1.000  H
  H29      1.0000 0.89418  0.89590  0.48105  Biso   1.000  H
  H30      1.0000 0.60582  0.60410  0.48105  Biso   1.000  H
  H31      1.0000 0.89590  0.60582  0.98105  Biso   1.000  H
  H32      1.0000 0.60410  0.89418  0.98105  Biso   1.000  H
  C65      1.0000 0.89010  0.59160  0.41230  Biso   1.000  C
  C66      1.0000 0.60990  0.90840  0.41230  Biso   1.000  C
  C67      1.0000 0.90840  0.89010  0.91230  Biso   1.000  C
  C68      1.0000 0.59160  0.60990  0.91230  Biso   1.000  C
  C69      1.0000 0.10990  0.09160  0.58770  Biso   1.000  C
  C70      1.0000 0.39010  0.40840  0.58770  Biso   1.000  C
  C71      1.0000 0.09160  0.39010  0.08770  Biso   1.000  C
  C72      1.0000 0.40840  0.10990  0.08770  Biso   1.000  C
  C73      1.0000 0.10990  0.40840  0.58770  Biso   1.000  C
  C74      1.0000 0.39010  0.09160  0.58770  Biso   1.000  C
  C75      1.0000 0.09160  0.10990  0.08770  Biso   1.000  C
  C76      1.0000 0.40840  0.39010  0.08770  Biso   1.000  C
  C77      1.0000 0.89010  0.90840  0.41230  Biso   1.000  C
  C78      1.0000 0.60990  0.59160  0.41230  Biso   1.000  C
  C79      1.0000 0.90840  0.60990  0.91230  Biso   1.000  C
  C80      1.0000 0.59160  0.89010  0.91230  Biso   1.000  C
  C81      1.0000 0.87160  0.60250  0.37000  Biso   1.000  C
  C82      1.0000 0.62840  0.89750  0.37000  Biso   1.000  C
  C83      1.0000 0.89750  0.87160  0.87000  Biso   1.000  C
  C84      1.0000 0.60250  0.62840  0.87000  Biso   1.000  C
  C85      1.0000 0.12840  0.10250  0.63000  Biso   1.000  C
  C86      1.0000 0.37160  0.39750  0.63000  Biso   1.000  C
  C87      1.0000 0.10250  0.37160  0.13000  Biso   1.000  C
  C88      1.0000 0.39750  0.12840  0.13000  Biso   1.000  C
  C89      1.0000 0.12840  0.39750  0.63000  Biso   1.000  C
  C90      1.0000 0.37160  0.10250  0.63000  Biso   1.000  C
  C91      1.0000 0.10250  0.12840  0.13000  Biso   1.000  C
  C92      1.0000 0.39750  0.37160  0.13000  Biso   1.000  C
  C93      1.0000 0.87160  0.89750  0.37000  Biso   1.000  C
  C94      1.0000 0.62840  0.60250  0.37000  Biso   1.000  C
  C95      1.0000 0.89750  0.62840  0.87000  Biso   1.000  C
  C96      1.0000 0.60250  0.87160  0.87000  Biso   1.000  C
  H33      1.0000 0.87771  0.58723  0.34236  Biso   1.000  H
  H34      1.0000 0.62229  0.91277  0.34236  Biso   1.000  H
  H35      1.0000 0.91277  0.87771  0.84236  Biso   1.000  H
  H36      1.0000 0.58723  0.62229  0.84236  Biso   1.000  H
  H37      1.0000 0.12229  0.08723  0.65764  Biso   1.000  H
  H38      1.0000 0.37771  0.41277  0.65764  Biso   1.000  H
  H39      1.0000 0.08723  0.37771  0.15764  Biso   1.000  H
  H40      1.0000 0.41277  0.12229  0.15764  Biso   1.000  H
  H41      1.0000 0.12229  0.41277  0.65764  Biso   1.000  H
  H42      1.0000 0.37771  0.08723  0.65764  Biso   1.000  H
  H43      1.0000 0.08723  0.12229  0.15764  Biso   1.000  H
  H44      1.0000 0.41277  0.37771  0.15764  Biso   1.000  H
  H45      1.0000 0.87771  0.91277  0.34236  Biso   1.000  H
  H46      1.0000 0.62229  0.58723  0.34236  Biso   1.000  H
  H47      1.0000 0.91277  0.62229  0.84236  Biso   1.000  H
  H48      1.0000 0.58723  0.87771  0.84236  Biso   1.000  H
  C97      1.0000 0.84392  0.63583  0.36760  Biso   1.000  C
  C98      1.0000 0.65608  0.86417  0.36760  Biso   1.000  C
  C99      1.0000 0.86417  0.84392  0.86760  Biso   1.000  C
  C100     1.0000 0.63583  0.65608  0.86760  Biso   1.000  C
  C101     1.0000 0.15608  0.13583  0.63240  Biso   1.000  C
  C102     1.0000 0.34392  0.36417  0.63240  Biso   1.000  C
  C103     1.0000 0.13583  0.34392  0.13240  Biso   1.000  C
  C104     1.0000 0.36417  0.15608  0.13240  Biso   1.000  C
  C105     1.0000 0.15608  0.36417  0.63240  Biso   1.000  C
  C106     1.0000 0.34392  0.13583  0.63240  Biso   1.000  C
  C107     1.0000 0.13583  0.15608  0.13240  Biso   1.000  C
  C108     1.0000 0.36417  0.34392  0.13240  Biso   1.000  C
  C109     1.0000 0.84392  0.86417  0.36760  Biso   1.000  C
  C110     1.0000 0.65608  0.63583  0.36760  Biso   1.000  C
  C111     1.0000 0.86417  0.65608  0.86760  Biso   1.000  C
  C112     1.0000 0.63583  0.84392  0.86760  Biso   1.000  C
  H49      1.0000 0.83189  0.64393  0.33868  Biso   1.000  H
  H50      1.0000 0.66811  0.85607  0.33868  Biso   1.000  H
  H51      1.0000 0.85607  0.83189  0.83868  Biso   1.000  H
  H52      1.0000 0.64393  0.66811  0.83868  Biso   1.000  H
  H53      1.0000 0.16811  0.14393  0.66132  Biso   1.000  H
  H54      1.0000 0.33189  0.35607  0.66132  Biso   1.000  H
  H55      1.0000 0.14393  0.33189  0.16132  Biso   1.000  H
  H56      1.0000 0.35607  0.16811  0.16132  Biso   1.000  H
  H57      1.0000 0.16811  0.35607  0.66132  Biso   1.000  H
  H58      1.0000 0.33189  0.14393  0.66132  Biso   1.000  H
  H59      1.0000 0.14393  0.16811  0.16132  Biso   1.000  H
  H60      1.0000 0.35607  0.33189  0.16132  Biso   1.000  H
  H61      1.0000 0.83189  0.85607  0.33868  Biso   1.000  H
  H62      1.0000 0.66811  0.64393  0.33868  Biso   1.000  H
  H63      1.0000 0.85607  0.66811  0.83868  Biso   1.000  H
  H64      1.0000 0.64393  0.83189  0.83868  Biso   1.000  H
  C113     1.0000 0.92320  0.52470  0.44270  Biso   1.000  C
  C114     1.0000 0.57680  0.97530  0.44270  Biso   1.000  C
  C115     1.0000 0.97530  0.92320  0.94270  Biso   1.000  C
  C116     1.0000 0.52470  0.57680  0.94270  Biso   1.000  C
  C117     1.0000 0.07680  0.02470  0.55730  Biso   1.000  C
  C118     1.0000 0.42320  0.47530  0.55730  Biso   1.000  C
  C119     1.0000 0.02470  0.42320  0.05730  Biso   1.000  C
  C120     1.0000 0.47530  0.07680  0.05730  Biso   1.000  C
  C121     1.0000 0.07680  0.47530  0.55730  Biso   1.000  C
  C122     1.0000 0.42320  0.02470  0.55730  Biso   1.000  C
  C123     1.0000 0.02470  0.07680  0.05730  Biso   1.000  C
  C124     1.0000 0.47530  0.42320  0.05730  Biso   1.000  C
  C125     1.0000 0.92320  0.97530  0.44270  Biso   1.000  C
  C126     1.0000 0.57680  0.52470  0.44270  Biso   1.000  C
  C127     1.0000 0.97530  0.57680  0.94270  Biso   1.000  C
  C128     1.0000 0.52470  0.92320  0.94270  Biso   1.000  C
  C129     1.0000 0.89300  0.51250  0.48200  Biso   1.000  C
  C130     1.0000 0.60700  0.98750  0.48200  Biso   1.000  C
  C131     1.0000 0.98750  0.89300  0.98200  Biso   1.000  C
  C132     1.0000 0.51250  0.60700  0.98200  Biso   1.000  C
  C133     1.0000 0.10700  0.01250  0.51800  Biso   1.000  C
  C134     1.0000 0.39300  0.48750  0.51800  Biso   1.000  C
  C135     1.0000 0.01250  0.39300  0.01800  Biso   1.000  C
  C136     1.0000 0.48750  0.10700  0.01800  Biso   1.000  C
  C137     1.0000 0.10700  0.48750  0.51800  Biso   1.000  C
  C138     1.0000 0.39300  0.01250  0.51800  Biso   1.000  C
  C139     1.0000 0.01250  0.10700  0.01800  Biso   1.000  C
  C140     1.0000 0.48750  0.39300  0.01800  Biso   1.000  C
  C141     1.0000 0.89300  0.98750  0.48200  Biso   1.000  C
  C142     1.0000 0.60700  0.51250  0.48200  Biso   1.000  C
  C143     1.0000 0.98750  0.60700  0.98200  Biso   1.000  C
  C144     1.0000 0.51250  0.89300  0.98200  Biso   1.000  C
  H65      1.0000 0.86934  0.52857  0.48918  Biso   1.000  H
  H66      1.0000 0.63066  0.97143  0.48918  Biso   1.000  H
  H67      1.0000 0.97143  0.86934  0.98918  Biso   1.000  H
  H68      1.0000 0.52857  0.63066  0.98918  Biso   1.000  H
  H69      1.0000 0.13066  0.02857  0.51082  Biso   1.000  H
  H70      1.0000 0.36934  0.47143  0.51082  Biso   1.000  H
  H71      1.0000 0.02857  0.36934  0.01082  Biso   1.000  H
  H72      1.0000 0.47143  0.13066  0.01082  Biso   1.000  H
  H73      1.0000 0.13066  0.47143  0.51082  Biso   1.000  H
  H74      1.0000 0.36934  0.02857  0.51082  Biso   1.000  H
  H75      1.0000 0.02857  0.13066  0.01082  Biso   1.000  H
  H76      1.0000 0.47143  0.36934  0.01082  Biso   1.000  H
  H77      1.0000 0.86934  0.97143  0.48918  Biso   1.000  H
  H78      1.0000 0.63066  0.52857  0.48918  Biso   1.000  H
  H79      1.0000 0.97143  0.63066  0.98918  Biso   1.000  H
  H80      1.0000 0.52857  0.86934  0.98918  Biso   1.000  H
  C145     1.0000 0.90210  0.47700  0.50420  Biso   1.000  C
  C146     1.0000 0.59790  0.02300  0.50420  Biso   1.000  C
  C147     1.0000 0.02300  0.90210  0.00420  Biso   1.000  C
  C148     1.0000 0.47700  0.59790  0.00420  Biso   1.000  C
  C149     1.0000 0.09790  0.97700  0.49580  Biso   1.000  C
  C150     1.0000 0.40210  0.52300  0.49580  Biso   1.000  C
  C151     1.0000 0.97700  0.40210  0.99580  Biso   1.000  C
  C152     1.0000 0.52300  0.09790  0.99580  Biso   1.000  C
  C153     1.0000 0.09790  0.52300  0.49580  Biso   1.000  C
  C154     1.0000 0.40210  0.97700  0.49580  Biso   1.000  C
  C155     1.0000 0.97700  0.09790  0.99580  Biso   1.000  C
  C156     1.0000 0.52300  0.40210  0.99580  Biso   1.000  C
  C157     1.0000 0.90210  0.02300  0.50420  Biso   1.000  C
  C158     1.0000 0.59790  0.47700  0.50420  Biso   1.000  C
  C159     1.0000 0.02300  0.59790  0.00420  Biso   1.000  C
  C160     1.0000 0.47700  0.90210  0.00420  Biso   1.000  C
  H81      1.0000 0.88236  0.46669  0.52573  Biso   1.000  H
  H82      1.0000 0.61764  0.03331  0.52573  Biso   1.000  H
  H83      1.0000 0.03331  0.88236  0.02573  Biso   1.000  H
  H84      1.0000 0.46669  0.61764  0.02573  Biso   1.000  H
  H85      1.0000 0.11764  0.96669  0.47427  Biso   1.000  H
  H86      1.0000 0.38236  0.53331  0.47427  Biso   1.000  H
  H87      1.0000 0.96669  0.38236  0.97427  Biso   1.000  H
  H88      1.0000 0.53331  0.11764  0.97427  Biso   1.000  H
  H89      1.0000 0.11764  0.53331  0.47427  Biso   1.000  H
  H90      1.0000 0.38236  0.96669  0.47427  Biso   1.000  H
  H91      1.0000 0.96669  0.11764  0.97427  Biso   1.000  H
  H92      1.0000 0.53331  0.38236  0.97427  Biso   1.000  H
  H93      1.0000 0.88236  0.03331  0.52573  Biso   1.000  H
  H94      1.0000 0.61764  0.46669  0.52573  Biso   1.000  H
  H95      1.0000 0.03331  0.61764  0.02573  Biso   1.000  H
  H96      1.0000 0.46669  0.88236  0.02573  Biso   1.000  H
  C161     1.0000 0.93950  0.45320  0.49810  Biso   1.000  C
  C162     1.0000 0.56050  0.04680  0.49810  Biso   1.000  C
  C163     1.0000 0.04680  0.93950  0.99810  Biso   1.000  C
  C164     1.0000 0.45320  0.56050  0.99810  Biso   1.000  C
  C165     1.0000 0.06050  0.95320  0.50190  Biso   1.000  C
  C166     1.0000 0.43950  0.54680  0.50190  Biso   1.000  C
  C167     1.0000 0.95320  0.43950  0.00190  Biso   1.000  C
  C168     1.0000 0.54680  0.06050  0.00190  Biso   1.000  C
  C169     1.0000 0.06050  0.54680  0.50190  Biso   1.000  C
  C170     1.0000 0.43950  0.95320  0.50190  Biso   1.000  C
  C171     1.0000 0.95320  0.06050  0.00190  Biso   1.000  C
  C172     1.0000 0.54680  0.43950  0.00190  Biso   1.000  C
  C173     1.0000 0.93950  0.04680  0.49810  Biso   1.000  C
  C174     1.0000 0.56050  0.45320  0.49810  Biso   1.000  C
  C175     1.0000 0.04680  0.56050  0.99810  Biso   1.000  C
  C176     1.0000 0.45320  0.93950  0.99810  Biso   1.000  C
  C177     1.0000 0.96680  0.46560  0.46300  Biso   1.000  C
  C178     1.0000 0.53320  0.03440  0.46300  Biso   1.000  C
  C179     1.0000 0.03440  0.96680  0.96300  Biso   1.000  C
  C180     1.0000 0.46560  0.53320  0.96300  Biso   1.000  C
  C181     1.0000 0.03320  0.96560  0.53700  Biso   1.000  C
  C182     1.0000 0.46680  0.53440  0.53700  Biso   1.000  C
  C183     1.0000 0.96560  0.46680  0.03700  Biso   1.000  C
  C184     1.0000 0.53440  0.03320  0.03700  Biso   1.000  C
  C185     1.0000 0.03320  0.53440  0.53700  Biso   1.000  C
  C186     1.0000 0.46680  0.96560  0.53700  Biso   1.000  C
  C187     1.0000 0.96560  0.03320  0.03700  Biso   1.000  C
  C188     1.0000 0.53440  0.46680  0.03700  Biso   1.000  C
  C189     1.0000 0.96680  0.03440  0.46300  Biso   1.000  C
  C190     1.0000 0.53320  0.46560  0.46300  Biso   1.000  C
  C191     1.0000 0.03440  0.53320  0.96300  Biso   1.000  C
  C192     1.0000 0.46560  0.96680  0.96300  Biso   1.000  C
  H97      1.0000 0.99100  0.45002  0.45735  Biso   1.000  H
  H98      1.0000 0.50900  0.04998  0.45735  Biso   1.000  H
  H99      1.0000 0.04998  0.99100  0.95735  Biso   1.000  H
  H100     1.0000 0.45002  0.50900  0.95735  Biso   1.000  H
  H101     1.0000 0.00900  0.95002  0.54265  Biso   1.000  H
  H102     1.0000 0.49100  0.54998  0.54265  Biso   1.000  H
  H103     1.0000 0.95002  0.49100  0.04265  Biso   1.000  H
  H104     1.0000 0.54998  0.00900  0.04265  Biso   1.000  H
  H105     1.0000 0.00900  0.54998  0.54265  Biso   1.000  H
  H106     1.0000 0.49100  0.95002  0.54265  Biso   1.000  H
  H107     1.0000 0.95002  0.00900  0.04265  Biso   1.000  H
  H108     1.0000 0.54998  0.49100  0.04265  Biso   1.000  H
  H109     1.0000 0.99100  0.04998  0.45735  Biso   1.000  H
  H110     1.0000 0.50900  0.45002  0.45735  Biso   1.000  H
  H111     1.0000 0.04998  0.50900  0.95735  Biso   1.000  H
  H112     1.0000 0.45002  0.99100  0.95735  Biso   1.000  H
  C193     1.0000 0.95900  0.50050  0.43620  Biso   1.000  C
  C194     1.0000 0.54100  0.99950  0.43620  Biso   1.000  C
  C195     1.0000 0.99950  0.95900  0.93620  Biso   1.000  C
  C196     1.0000 0.50050  0.54100  0.93620  Biso   1.000  C
  C197     1.0000 0.04100  0.00050  0.56380  Biso   1.000  C
  C198     1.0000 0.45900  0.49950  0.56380  Biso   1.000  C
  C199     1.0000 0.00050  0.45900  0.06380  Biso   1.000  C
  C200     1.0000 0.49950  0.04100  0.06380  Biso   1.000  C
  C201     1.0000 0.04100  0.49950  0.56380  Biso   1.000  C
  C202     1.0000 0.45900  0.00050  0.56380  Biso   1.000  C
  C203     1.0000 0.00050  0.04100  0.06380  Biso   1.000  C
  C204     1.0000 0.49950  0.45900  0.06380  Biso   1.000  C
  C205     1.0000 0.95900  0.99950  0.43620  Biso   1.000  C
  C206     1.0000 0.54100  0.50050  0.43620  Biso   1.000  C
  C207     1.0000 0.99950  0.54100  0.93620  Biso   1.000  C
  C208     1.0000 0.50050  0.95900  0.93620  Biso   1.000  C
  C209     1.0000 0.98256  0.52123  0.39820  Biso   1.000  C
  C210     1.0000 0.51744  0.97877  0.39820  Biso   1.000  C
  C211     1.0000 0.97877  0.98256  0.89820  Biso   1.000  C
  C212     1.0000 0.52123  0.51744  0.89820  Biso   1.000  C
  C213     1.0000 0.01744  0.02123  0.60180  Biso   1.000  C
  C214     1.0000 0.48256  0.47877  0.60180  Biso   1.000  C
  C215     1.0000 0.02123  0.48256  0.10180  Biso   1.000  C
  C216     1.0000 0.47877  0.01744  0.10180  Biso   1.000  C
  C217     1.0000 0.01744  0.47877  0.60180  Biso   1.000  C
  C218     1.0000 0.48256  0.02123  0.60180  Biso   1.000  C
  C219     1.0000 0.02123  0.01744  0.10180  Biso   1.000  C
  C220     1.0000 0.47877  0.48256  0.10180  Biso   1.000  C
  C221     1.0000 0.98256  0.97877  0.39820  Biso   1.000  C
  C222     1.0000 0.51744  0.52123  0.39820  Biso   1.000  C
  C223     1.0000 0.97877  0.51744  0.89820  Biso   1.000  C
  C224     1.0000 0.52123  0.98256  0.89820  Biso   1.000  C
  C225     1.0000 0.02020  0.51730  0.37640  Biso   1.000  C
  C226     1.0000 0.47980  0.98270  0.37640  Biso   1.000  C
  C227     1.0000 0.98270  0.02020  0.87640  Biso   1.000  C
  C228     1.0000 0.51730  0.47980  0.87640  Biso   1.000  C
  C229     1.0000 0.97980  0.01730  0.62360  Biso   1.000  C
  C230     1.0000 0.52020  0.48270  0.62360  Biso   1.000  C
  C231     1.0000 0.01730  0.52020  0.12360  Biso   1.000  C
  C232     1.0000 0.48270  0.97980  0.12360  Biso   1.000  C
  C233     1.0000 0.97980  0.48270  0.62360  Biso   1.000  C
  C234     1.0000 0.52020  0.01730  0.62360  Biso   1.000  C
  C235     1.0000 0.01730  0.97980  0.12360  Biso   1.000  C
  C236     1.0000 0.48270  0.52020  0.12360  Biso   1.000  C
  C237     1.0000 0.02020  0.98270  0.37640  Biso   1.000  C
  C238     1.0000 0.47980  0.51730  0.37640  Biso   1.000  C
  C239     1.0000 0.98270  0.47980  0.87640  Biso   1.000  C
  C240     1.0000 0.51730  0.02020  0.87640  Biso   1.000  C
  H113     1.0000 0.03659  0.49430  0.38496  Biso   1.000  H
  H114     1.0000 0.46341  0.00570  0.38496  Biso   1.000  H
  H115     1.0000 0.00570  0.03659  0.88496  Biso   1.000  H
  H116     1.0000 0.49430  0.46341  0.88496  Biso   1.000  H
  H117     1.0000 0.96341  0.99430  0.61504  Biso   1.000  H
  H118     1.0000 0.53659  0.50570  0.61504  Biso   1.000  H
  H119     1.0000 0.99430  0.53659  0.11504  Biso   1.000  H
  H120     1.0000 0.50570  0.96341  0.11504  Biso   1.000  H
  H121     1.0000 0.96341  0.50570  0.61504  Biso   1.000  H
  H122     1.0000 0.53659  0.99430  0.61504  Biso   1.000  H
  H123     1.0000 0.99430  0.96341  0.11504  Biso   1.000  H
  H124     1.0000 0.50570  0.53659  0.11504  Biso   1.000  H
  H125     1.0000 0.03659  0.00570  0.38496  Biso   1.000  H
  H126     1.0000 0.46341  0.49430  0.38496  Biso   1.000  H
  H127     1.0000 0.00570  0.46341  0.88496  Biso   1.000  H
  H128     1.0000 0.49430  0.03659  0.88496  Biso   1.000  H
  C241     1.0000 0.03630  0.54370  0.34350  Biso   1.000  C
  C242     1.0000 0.46370  0.95630  0.34350  Biso   1.000  C
  C243     1.0000 0.95630  0.03630  0.84350  Biso   1.000  C
  C244     1.0000 0.54370  0.46370  0.84350  Biso   1.000  C
  C245     1.0000 0.96370  0.04370  0.65650  Biso   1.000  C
  C246     1.0000 0.53630  0.45630  0.65650  Biso   1.000  C
  C247     1.0000 0.04370  0.53630  0.15650  Biso   1.000  C
  C248     1.0000 0.45630  0.96370  0.15650  Biso   1.000  C
  C249     1.0000 0.96370  0.45630  0.65650  Biso   1.000  C
  C250     1.0000 0.53630  0.04370  0.65650  Biso   1.000  C
  C251     1.0000 0.04370  0.96370  0.15650  Biso   1.000  C
  C252     1.0000 0.45630  0.53630  0.15650  Biso   1.000  C
  C253     1.0000 0.03630  0.95630  0.34350  Biso   1.000  C
  C254     1.0000 0.46370  0.54370  0.34350  Biso   1.000  C
  C255     1.0000 0.95630  0.46370  0.84350  Biso   1.000  C
  C256     1.0000 0.54370  0.03630  0.84350  Biso   1.000  C
  C257     1.0000 0.00910  0.57580  0.33050  Biso   1.000  C
  C258     1.0000 0.49090  0.92420  0.33050  Biso   1.000  C
  C259     1.0000 0.92420  0.00910  0.83050  Biso   1.000  C
  C260     1.0000 0.57580  0.49090  0.83050  Biso   1.000  C
  C261     1.0000 0.99090  0.07580  0.66950  Biso   1.000  C
  C262     1.0000 0.50910  0.42420  0.66950  Biso   1.000  C
  C263     1.0000 0.07580  0.50910  0.16950  Biso   1.000  C
  C264     1.0000 0.42420  0.99090  0.16950  Biso   1.000  C
  C265     1.0000 0.99090  0.42420  0.66950  Biso   1.000  C
  C266     1.0000 0.50910  0.07580  0.66950  Biso   1.000  C
  C267     1.0000 0.07580  0.99090  0.16950  Biso   1.000  C
  C268     1.0000 0.42420  0.50910  0.16950  Biso   1.000  C
  C269     1.0000 0.00910  0.92420  0.33050  Biso   1.000  C
  C270     1.0000 0.49090  0.57580  0.33050  Biso   1.000  C
  C271     1.0000 0.92420  0.49090  0.83050  Biso   1.000  C
  C272     1.0000 0.57580  0.00910  0.83050  Biso   1.000  C
  H129     1.0000 0.01889  0.59349  0.30639  Biso   1.000  H
  H130     1.0000 0.48111  0.90651  0.30639  Biso   1.000  H
  H131     1.0000 0.90651  0.01889  0.80639  Biso   1.000  H
  H132     1.0000 0.59349  0.48111  0.80639  Biso   1.000  H
  H133     1.0000 0.98111  0.09349  0.69361  Biso   1.000  H
  H134     1.0000 0.51889  0.40651  0.69361  Biso   1.000  H
  H135     1.0000 0.09349  0.51889  0.19361  Biso   1.000  H
  H136     1.0000 0.40651  0.98111  0.19361  Biso   1.000  H
  H137     1.0000 0.98111  0.40651  0.69361  Biso   1.000  H
  H138     1.0000 0.51889  0.09349  0.69361  Biso   1.000  H
  H139     1.0000 0.09349  0.98111  0.19361  Biso   1.000  H
  H140     1.0000 0.40651  0.51889  0.19361  Biso   1.000  H
  H141     1.0000 0.01889  0.90651  0.30639  Biso   1.000  H
  H142     1.0000 0.48111  0.59349  0.30639  Biso   1.000  H
  H143     1.0000 0.90651  0.48111  0.80639  Biso   1.000  H
  H144     1.0000 0.59349  0.01889  0.80639  Biso   1.000  H
  C273     1.0000 0.97054  0.58520  0.34740  Biso   1.000  C
  C274     1.0000 0.52946  0.91480  0.34740  Biso   1.000  C
  C275     1.0000 0.91480  0.97054  0.84740  Biso   1.000  C
  C276     1.0000 0.58520  0.52946  0.84740  Biso   1.000  C
  C277     1.0000 0.02946  0.08520  0.65260  Biso   1.000  C
  C278     1.0000 0.47054  0.41480  0.65260  Biso   1.000  C
  C279     1.0000 0.08520  0.47054  0.15260  Biso   1.000  C
  C280     1.0000 0.41480  0.02946  0.15260  Biso   1.000  C
  C281     1.0000 0.02946  0.41480  0.65260  Biso   1.000  C
  C282     1.0000 0.47054  0.08520  0.65260  Biso   1.000  C
  C283     1.0000 0.08520  0.02946  0.15260  Biso   1.000  C
  C284     1.0000 0.41480  0.47054  0.15260  Biso   1.000  C
  C285     1.0000 0.97054  0.91480  0.34740  Biso   1.000  C
  C286     1.0000 0.52946  0.58520  0.34740  Biso   1.000  C
  C287     1.0000 0.91480  0.52946  0.84740  Biso   1.000  C
  C288     1.0000 0.58520  0.97054  0.84740  Biso   1.000  C
  H145     1.0000 0.95444  0.60746  0.33599  Biso   1.000  H
  H146     1.0000 0.54556  0.89254  0.33599  Biso   1.000  H
  H147     1.0000 0.89254  0.95444  0.83599  Biso   1.000  H
  H148     1.0000 0.60746  0.54556  0.83599  Biso   1.000  H
  H149     1.0000 0.04556  0.10746  0.66401  Biso   1.000  H
  H150     1.0000 0.45444  0.39254  0.66401  Biso   1.000  H
  H151     1.0000 0.10746  0.45444  0.16401  Biso   1.000  H
  H152     1.0000 0.39254  0.04556  0.16401  Biso   1.000  H
  H153     1.0000 0.04556  0.39254  0.66401  Biso   1.000  H
  H154     1.0000 0.45444  0.10746  0.66401  Biso   1.000  H
  H155     1.0000 0.10746  0.04556  0.16401  Biso   1.000  H
  H156     1.0000 0.39254  0.45444  0.16401  Biso   1.000  H
  H157     1.0000 0.95444  0.89254  0.33599  Biso   1.000  H
  H158     1.0000 0.54556  0.60746  0.33599  Biso   1.000  H
  H159     1.0000 0.89254  0.54556  0.83599  Biso   1.000  H
  H160     1.0000 0.60746  0.95444  0.83599  Biso   1.000  H
  C289     1.0000 0.95640  0.55670  0.38610  Biso   1.000  C
  C290     1.0000 0.54360  0.94330  0.38610  Biso   1.000  C
  C291     1.0000 0.94330  0.95640  0.88610  Biso   1.000  C
  C292     1.0000 0.55670  0.54360  0.88610  Biso   1.000  C
  C293     1.0000 0.04360  0.05670  0.61390  Biso   1.000  C
  C294     1.0000 0.45640  0.44330  0.61390  Biso   1.000  C
  C295     1.0000 0.05670  0.45640  0.11390  Biso   1.000  C
  C296     1.0000 0.44330  0.04360  0.11390  Biso   1.000  C
  C297     1.0000 0.04360  0.44330  0.61390  Biso   1.000  C
  C298     1.0000 0.45640  0.05670  0.61390  Biso   1.000  C
  C299     1.0000 0.05670  0.04360  0.11390  Biso   1.000  C
  C300     1.0000 0.44330  0.45640  0.11390  Biso   1.000  C
  C301     1.0000 0.95640  0.94330  0.38610  Biso   1.000  C
  C302     1.0000 0.54360  0.55670  0.38610  Biso   1.000  C
  C303     1.0000 0.94330  0.54360  0.88610  Biso   1.000  C
  C304     1.0000 0.55670  0.95640  0.88610  Biso   1.000  C
  C305     1.0000 0.94510  0.41280  0.52610  Biso   1.000  C
  C306     1.0000 0.55490  0.08720  0.52610  Biso   1.000  C
  C307     1.0000 0.08720  0.94510  0.02610  Biso   1.000  C
  C308     1.0000 0.41280  0.55490  0.02610  Biso   1.000  C
  C309     1.0000 0.05490  0.91280  0.47390  Biso   1.000  C
  C310     1.0000 0.44510  0.58720  0.47390  Biso   1.000  C
  C311     1.0000 0.91280  0.44510  0.97390  Biso   1.000  C
  C312     1.0000 0.58720  0.05490  0.97390  Biso   1.000  C
  C313     1.0000 0.05490  0.58720  0.47390  Biso   1.000  C
  C314     1.0000 0.44510  0.91280  0.47390  Biso   1.000  C
  C315     1.0000 0.91280  0.05490  0.97390  Biso   1.000  C
  C316     1.0000 0.58720  0.44510  0.97390  Biso   1.000  C
  C317     1.0000 0.94510  0.08720  0.52610  Biso   1.000  C
  C318     1.0000 0.55490  0.41280  0.52610  Biso   1.000  C
  C319     1.0000 0.08720  0.55490  0.02610  Biso   1.000  C
  C320     1.0000 0.41280  0.94510  0.02610  Biso   1.000  C
  C321     1.0000 0.91140  0.39280  0.54680  Biso   1.000  C
  C322     1.0000 0.58860  0.10720  0.54680  Biso   1.000  C
  C323     1.0000 0.10720  0.91140  0.04680  Biso   1.000  C
  C324     1.0000 0.39280  0.58860  0.04680  Biso   1.000  C
  C325     1.0000 0.08860  0.89280  0.45320  Biso   1.000  C
  C326     1.0000 0.41140  0.60720  0.45320  Biso   1.000  C
  C327     1.0000 0.89280  0.41140  0.95320  Biso   1.000  C
  C328     1.0000 0.60720  0.08860  0.95320  Biso   1.000  C
  C329     1.0000 0.08860  0.60720  0.45320  Biso   1.000  C
  C330     1.0000 0.41140  0.89280  0.45320  Biso   1.000  C
  C331     1.0000 0.89280  0.08860  0.95320  Biso   1.000  C
  C332     1.0000 0.60720  0.41140  0.95320  Biso   1.000  C
  C333     1.0000 0.91140  0.10720  0.54680  Biso   1.000  C
  C334     1.0000 0.58860  0.39280  0.54680  Biso   1.000  C
  C335     1.0000 0.10720  0.58860  0.04680  Biso   1.000  C
  C336     1.0000 0.39280  0.91140  0.04680  Biso   1.000  C
  H161     1.0000 0.88441  0.40385  0.54398  Biso   1.000  H
  H162     1.0000 0.61559  0.09615  0.54398  Biso   1.000  H
  H163     1.0000 0.09615  0.88441  0.04398  Biso   1.000  H
  H164     1.0000 0.40385  0.61559  0.04398  Biso   1.000  H
  H165     1.0000 0.11559  0.90385  0.45602  Biso   1.000  H
  H166     1.0000 0.38441  0.59615  0.45602  Biso   1.000  H
  H167     1.0000 0.90385  0.38441  0.95602  Biso   1.000  H
  H168     1.0000 0.59615  0.11559  0.95602  Biso   1.000  H
  H169     1.0000 0.11559  0.59615  0.45602  Biso   1.000  H
  H170     1.0000 0.38441  0.90385  0.45602  Biso   1.000  H
  H171     1.0000 0.90385  0.11559  0.95602  Biso   1.000  H
  H172     1.0000 0.59615  0.38441  0.95602  Biso   1.000  H
  H173     1.0000 0.88441  0.09615  0.54398  Biso   1.000  H
  H174     1.0000 0.61559  0.40385  0.54398  Biso   1.000  H
  H175     1.0000 0.09615  0.61559  0.04398  Biso   1.000  H
  H176     1.0000 0.40385  0.88441  0.04398  Biso   1.000  H
  C337     1.0000 0.91830  0.35640  0.57180  Biso   1.000  C
  C338     1.0000 0.58170  0.14360  0.57180  Biso   1.000  C
  C339     1.0000 0.14360  0.91830  0.07180  Biso   1.000  C
  C340     1.0000 0.35640  0.58170  0.07180  Biso   1.000  C
  C341     1.0000 0.08170  0.85640  0.42820  Biso   1.000  C
  C342     1.0000 0.41830  0.64360  0.42820  Biso   1.000  C
  C343     1.0000 0.85640  0.41830  0.92820  Biso   1.000  C
  C344     1.0000 0.64360  0.08170  0.92820  Biso   1.000  C
  C345     1.0000 0.08170  0.64360  0.42820  Biso   1.000  C
  C346     1.0000 0.41830  0.85640  0.42820  Biso   1.000  C
  C347     1.0000 0.85640  0.08170  0.92820  Biso   1.000  C
  C348     1.0000 0.64360  0.41830  0.92820  Biso   1.000  C
  C349     1.0000 0.91830  0.14360  0.57180  Biso   1.000  C
  C350     1.0000 0.58170  0.35640  0.57180  Biso   1.000  C
  C351     1.0000 0.14360  0.58170  0.07180  Biso   1.000  C
  C352     1.0000 0.35640  0.91830  0.07180  Biso   1.000  C
  H177     1.0000 0.89524  0.34123  0.58276  Biso   1.000  H
  H178     1.0000 0.60476  0.15877  0.58276  Biso   1.000  H
  H179     1.0000 0.15877  0.89524  0.08276  Biso   1.000  H
  H180     1.0000 0.34123  0.60476  0.08276  Biso   1.000  H
  H181     1.0000 0.10476  0.84123  0.41724  Biso   1.000  H
  H182     1.0000 0.39524  0.65877  0.41724  Biso   1.000  H
  H183     1.0000 0.84123  0.39524  0.91724  Biso   1.000  H
  H184     1.0000 0.65877  0.10476  0.91724  Biso   1.000  H
  H185     1.0000 0.10476  0.65877  0.41724  Biso   1.000  H
  H186     1.0000 0.39524  0.84123  0.41724  Biso   1.000  H
  H187     1.0000 0.84123  0.10476  0.91724  Biso   1.000  H
  H188     1.0000 0.65877  0.39524  0.91724  Biso   1.000  H
  H189     1.0000 0.89524  0.15877  0.58276  Biso   1.000  H
  H190     1.0000 0.60476  0.34123  0.58276  Biso   1.000  H
  H191     1.0000 0.15877  0.60476  0.08276  Biso   1.000  H
  H192     1.0000 0.34123  0.89524  0.08276  Biso   1.000  H
  C353     1.0000 0.96000  0.34067  0.58170  Biso   1.000  C
  C354     1.0000 0.54000  0.15933  0.58170  Biso   1.000  C
  C355     1.0000 0.15933  0.96000  0.08170  Biso   1.000  C
  C356     1.0000 0.34067  0.54000  0.08170  Biso   1.000  C
  C357     1.0000 0.04000  0.84067  0.41830  Biso   1.000  C
  C358     1.0000 0.46000  0.65933  0.41830  Biso   1.000  C
  C359     1.0000 0.84067  0.46000  0.91830  Biso   1.000  C
  C360     1.0000 0.65933  0.04000  0.91830  Biso   1.000  C
  C361     1.0000 0.04000  0.65933  0.41830  Biso   1.000  C
  C362     1.0000 0.46000  0.84067  0.41830  Biso   1.000  C
  C363     1.0000 0.84067  0.04000  0.91830  Biso   1.000  C
  C364     1.0000 0.65933  0.46000  0.91830  Biso   1.000  C
  C365     1.0000 0.96000  0.15933  0.58170  Biso   1.000  C
  C366     1.0000 0.54000  0.34067  0.58170  Biso   1.000  C
  C367     1.0000 0.15933  0.54000  0.08170  Biso   1.000  C
  C368     1.0000 0.34067  0.96000  0.08170  Biso   1.000  C
  C369     1.0000 0.99170  0.36180  0.56440  Biso   1.000  C
  C370     1.0000 0.50830  0.13820  0.56440  Biso   1.000  C
  C371     1.0000 0.13820  0.99170  0.06440  Biso   1.000  C
  C372     1.0000 0.36180  0.50830  0.06440  Biso   1.000  C
  C373     1.0000 0.00830  0.86180  0.43560  Biso   1.000  C
  C374     1.0000 0.49170  0.63820  0.43560  Biso   1.000  C
  C375     1.0000 0.86180  0.49170  0.93560  Biso   1.000  C
  C376     1.0000 0.63820  0.00830  0.93560  Biso   1.000  C
  C377     1.0000 0.00830  0.63820  0.43560  Biso   1.000  C
  C378     1.0000 0.49170  0.86180  0.43560  Biso   1.000  C
  C379     1.0000 0.86180  0.00830  0.93560  Biso   1.000  C
  C380     1.0000 0.63820  0.49170  0.93560  Biso   1.000  C
  C381     1.0000 0.99170  0.13820  0.56440  Biso   1.000  C
  C382     1.0000 0.50830  0.36180  0.56440  Biso   1.000  C
  C383     1.0000 0.13820  0.50830  0.06440  Biso   1.000  C
  C384     1.0000 0.36180  0.99170  0.06440  Biso   1.000  C
  H193     1.0000 0.01923  0.35479  0.57204  Biso   1.000  H
  H194     1.0000 0.48077  0.14521  0.57204  Biso   1.000  H
  H195     1.0000 0.14521  0.01923  0.07204  Biso   1.000  H
  H196     1.0000 0.35479  0.48077  0.07204  Biso   1.000  H
  H197     1.0000 0.98077  0.85479  0.42796  Biso   1.000  H
  H198     1.0000 0.51923  0.64521  0.42796  Biso   1.000  H
  H199     1.0000 0.85479  0.51923  0.92796  Biso   1.000  H
  H200     1.0000 0.64521  0.98077  0.92796  Biso   1.000  H
  H201     1.0000 0.98077  0.64521  0.42796  Biso   1.000  H
  H202     1.0000 0.51923  0.85479  0.42796  Biso   1.000  H
  H203     1.0000 0.85479  0.98077  0.92796  Biso   1.000  H
  H204     1.0000 0.64521  0.51923  0.92796  Biso   1.000  H
  H205     1.0000 0.01923  0.14521  0.57204  Biso   1.000  H
  H206     1.0000 0.48077  0.35479  0.57204  Biso   1.000  H
  H207     1.0000 0.14521  0.48077  0.07204  Biso   1.000  H
  H208     1.0000 0.35479  0.01923  0.07204  Biso   1.000  H
  C385     1.0000 0.98200  0.39690  0.53240  Biso   1.000  C
  C386     1.0000 0.51800  0.10310  0.53240  Biso   1.000  C
  C387     1.0000 0.10310  0.98200  0.03240  Biso   1.000  C
  C388     1.0000 0.39690  0.51800  0.03240  Biso   1.000  C
  C389     1.0000 0.01800  0.89690  0.46760  Biso   1.000  C
  C390     1.0000 0.48200  0.60310  0.46760  Biso   1.000  C
  C391     1.0000 0.89690  0.48200  0.96760  Biso   1.000  C
  C392     1.0000 0.60310  0.01800  0.96760  Biso   1.000  C
  C393     1.0000 0.01800  0.60310  0.46760  Biso   1.000  C
  C394     1.0000 0.48200  0.89690  0.46760  Biso   1.000  C
  C395     1.0000 0.89690  0.01800  0.96760  Biso   1.000  C
  C396     1.0000 0.60310  0.48200  0.96760  Biso   1.000  C
  C397     1.0000 0.98200  0.10310  0.53240  Biso   1.000  C
  C398     1.0000 0.51800  0.39690  0.53240  Biso   1.000  C
  C399     1.0000 0.10310  0.51800  0.03240  Biso   1.000  C
  C400     1.0000 0.39690  0.98200  0.03240  Biso   1.000  C
  H209     1.0000 0.00418  0.40871  0.51532  Biso   1.000  H
  H210     1.0000 0.49582  0.09129  0.51532  Biso   1.000  H
  H211     1.0000 0.09129  0.00418  0.01532  Biso   1.000  H
  H212     1.0000 0.40871  0.49582  0.01532  Biso   1.000  H
  H213     1.0000 0.99582  0.90871  0.48468  Biso   1.000  H
  H214     1.0000 0.50418  0.59129  0.48468  Biso   1.000  H
  H215     1.0000 0.90871  0.50418  0.98468  Biso   1.000  H
  H216     1.0000 0.59129  0.99582  0.98468  Biso   1.000  H
  H217     1.0000 0.99582  0.59129  0.48468  Biso   1.000  H
  H218     1.0000 0.50418  0.90871  0.48468  Biso   1.000  H
  H219     1.0000 0.90871  0.99582  0.98468  Biso   1.000  H
  H220     1.0000 0.59129  0.50418  0.98468  Biso   1.000  H
  H221     1.0000 0.00418  0.09129  0.51532  Biso   1.000  H
  H222     1.0000 0.49582  0.40871  0.51532  Biso   1.000  H
  H223     1.0000 0.09129  0.49582  0.01532  Biso   1.000  H
  H224     1.0000 0.40871  0.00418  0.01532  Biso   1.000  H
  C401     1.0000 0.96465  0.30653  0.61768  Biso   1.000  C
  C402     1.0000 0.53535  0.19347  0.61768  Biso   1.000  C
  C403     1.0000 0.19347  0.96465  0.11768  Biso   1.000  C
  C404     1.0000 0.30653  0.53535  0.11768  Biso   1.000  C
  C405     1.0000 0.03535  0.80653  0.38232  Biso   1.000  C
  C406     1.0000 0.46465  0.69347  0.38232  Biso   1.000  C
  C407     1.0000 0.80653  0.46465  0.88232  Biso   1.000  C
  C408     1.0000 0.69347  0.03535  0.88232  Biso   1.000  C
  C409     1.0000 0.03535  0.69347  0.38232  Biso   1.000  C
  C410     1.0000 0.46465  0.80653  0.38232  Biso   1.000  C
  C411     1.0000 0.80653  0.03535  0.88232  Biso   1.000  C
  C412     1.0000 0.69347  0.46465  0.88232  Biso   1.000  C
  C413     1.0000 0.96465  0.19347  0.61768  Biso   1.000  C
  C414     1.0000 0.53535  0.30653  0.61768  Biso   1.000  C
  C415     1.0000 0.19347  0.53535  0.11768  Biso   1.000  C
  C416     1.0000 0.30653  0.96465  0.11768  Biso   1.000  C
  C417     1.0000 0.07830  0.54100  0.32220  Biso   1.000  C
  C418     1.0000 0.42170  0.95900  0.32220  Biso   1.000  C
  C419     1.0000 0.95900  0.07830  0.82220  Biso   1.000  C
  C420     1.0000 0.54100  0.42170  0.82220  Biso   1.000  C
  C421     1.0000 0.92170  0.04100  0.67780  Biso   1.000  C
  C422     1.0000 0.57830  0.45900  0.67780  Biso   1.000  C
  C423     1.0000 0.04100  0.57830  0.17780  Biso   1.000  C
  C424     1.0000 0.45900  0.92170  0.17780  Biso   1.000  C
  C425     1.0000 0.92170  0.45900  0.67780  Biso   1.000  C
  C426     1.0000 0.57830  0.04100  0.67780  Biso   1.000  C
  C427     1.0000 0.04100  0.92170  0.17780  Biso   1.000  C
  C428     1.0000 0.45900  0.57830  0.17780  Biso   1.000  C
  C429     1.0000 0.07830  0.95900  0.32220  Biso   1.000  C
  C430     1.0000 0.42170  0.54100  0.32220  Biso   1.000  C
  C431     1.0000 0.95900  0.42170  0.82220  Biso   1.000  C
  C432     1.0000 0.54100  0.07830  0.82220  Biso   1.000  C
  C433     1.0000 0.10020  0.57640  0.31030  Biso   1.000  C
  C434     1.0000 0.39980  0.92360  0.31030  Biso   1.000  C
  C435     1.0000 0.92360  0.10020  0.81030  Biso   1.000  C
  C436     1.0000 0.57640  0.39980  0.81030  Biso   1.000  C
  C437     1.0000 0.89980  0.07640  0.68970  Biso   1.000  C
  C438     1.0000 0.60020  0.42360  0.68970  Biso   1.000  C
  C439     1.0000 0.07640  0.60020  0.18970  Biso   1.000  C
  C440     1.0000 0.42360  0.89980  0.18970  Biso   1.000  C
  C441     1.0000 0.89980  0.42360  0.68970  Biso   1.000  C
  C442     1.0000 0.60020  0.07640  0.68970  Biso   1.000  C
  C443     1.0000 0.07640  0.89980  0.18970  Biso   1.000  C
  C444     1.0000 0.42360  0.60020  0.18970  Biso   1.000  C
  C445     1.0000 0.10020  0.92360  0.31030  Biso   1.000  C
  C446     1.0000 0.39980  0.57640  0.31030  Biso   1.000  C
  C447     1.0000 0.92360  0.39980  0.81030  Biso   1.000  C
  C448     1.0000 0.57640  0.10020  0.81030  Biso   1.000  C
  H225     1.0000 0.08966  0.60309  0.31643  Biso   1.000  H
  H226     1.0000 0.41034  0.89691  0.31643  Biso   1.000  H
  H227     1.0000 0.89691  0.08966  0.81643  Biso   1.000  H
  H228     1.0000 0.60309  0.41034  0.81643  Biso   1.000  H
  H229     1.0000 0.91034  0.10309  0.68357  Biso   1.000  H
  H230     1.0000 0.58966  0.39691  0.68357  Biso   1.000  H
  H231     1.0000 0.10309  0.58966  0.18357  Biso   1.000  H
  H232     1.0000 0.39691  0.91034  0.18357  Biso   1.000  H
  H233     1.0000 0.91034  0.39691  0.68357  Biso   1.000  H
  H234     1.0000 0.58966  0.10309  0.68357  Biso   1.000  H
  H235     1.0000 0.10309  0.91034  0.18357  Biso   1.000  H
  H236     1.0000 0.39691  0.58966  0.18357  Biso   1.000  H
  H237     1.0000 0.08966  0.89691  0.31643  Biso   1.000  H
  H238     1.0000 0.41034  0.60309  0.31643  Biso   1.000  H
  H239     1.0000 0.89691  0.41034  0.81643  Biso   1.000  H
  H240     1.0000 0.60309  0.08966  0.81643  Biso   1.000  H
  C449     1.0000 0.13840  0.57050  0.28880  Biso   1.000  C
  C450     1.0000 0.36160  0.92950  0.28880  Biso   1.000  C
  C451     1.0000 0.92950  0.13840  0.78880  Biso   1.000  C
  C452     1.0000 0.57050  0.36160  0.78880  Biso   1.000  C
  C453     1.0000 0.86160  0.07050  0.71120  Biso   1.000  C
  C454     1.0000 0.63840  0.42950  0.71120  Biso   1.000  C
  C455     1.0000 0.07050  0.63840  0.21120  Biso   1.000  C
  C456     1.0000 0.42950  0.86160  0.21120  Biso   1.000  C
  C457     1.0000 0.86160  0.42950  0.71120  Biso   1.000  C
  C458     1.0000 0.63840  0.07050  0.71120  Biso   1.000  C
  C459     1.0000 0.07050  0.86160  0.21120  Biso   1.000  C
  C460     1.0000 0.42950  0.63840  0.21120  Biso   1.000  C
  C461     1.0000 0.13840  0.92950  0.28880  Biso   1.000  C
  C462     1.0000 0.36160  0.57050  0.28880  Biso   1.000  C
  C463     1.0000 0.92950  0.36160  0.78880  Biso   1.000  C
  C464     1.0000 0.57050  0.13840  0.78880  Biso   1.000  C
  H241     1.0000 0.15544  0.59382  0.28415  Biso   1.000  H
  H242     1.0000 0.34456  0.90618  0.28415  Biso   1.000  H
  H243     1.0000 0.90618  0.15544  0.78415  Biso   1.000  H
  H244     1.0000 0.59382  0.34456  0.78415  Biso   1.000  H
  H245     1.0000 0.84456  0.09382  0.71585  Biso   1.000  H
  H246     1.0000 0.65544  0.40618  0.71585  Biso   1.000  H
  H247     1.0000 0.09382  0.65544  0.21585  Biso   1.000  H
  H248     1.0000 0.40618  0.84456  0.21585  Biso   1.000  H
  H249     1.0000 0.84456  0.40618  0.71585  Biso   1.000  H
  H250     1.0000 0.65544  0.09382  0.71585  Biso   1.000  H
  H251     1.0000 0.09382  0.84456  0.21585  Biso   1.000  H
  H252     1.0000 0.40618  0.65544  0.21585  Biso   1.000  H
  H253     1.0000 0.15544  0.90618  0.28415  Biso   1.000  H
  H254     1.0000 0.34456  0.59382  0.28415  Biso   1.000  H
  H255     1.0000 0.90618  0.34456  0.78415  Biso   1.000  H
  H256     1.0000 0.59382  0.15544  0.78415  Biso   1.000  H
  C465     1.0000 0.15375  0.53020  0.27290  Biso   1.000  C
  C466     1.0000 0.34625  0.96980  0.27290  Biso   1.000  C
  C467     1.0000 0.96980  0.15375  0.77290  Biso   1.000  C
  C468     1.0000 0.53020  0.34625  0.77290  Biso   1.000  C
  C469     1.0000 0.84625  0.03020  0.72710  Biso   1.000  C
  C470     1.0000 0.65375  0.46980  0.72710  Biso   1.000  C
  C471     1.0000 0.03020  0.65375  0.22710  Biso   1.000  C
  C472     1.0000 0.46980  0.84625  0.22710  Biso   1.000  C
  C473     1.0000 0.84625  0.46980  0.72710  Biso   1.000  C
  C474     1.0000 0.65375  0.03020  0.72710  Biso   1.000  C
  C475     1.0000 0.03020  0.84625  0.22710  Biso   1.000  C
  C476     1.0000 0.46980  0.65375  0.22710  Biso   1.000  C
  C477     1.0000 0.15375  0.96980  0.27290  Biso   1.000  C
  C478     1.0000 0.34625  0.53020  0.27290  Biso   1.000  C
  C479     1.0000 0.96980  0.34625  0.77290  Biso   1.000  C
  C480     1.0000 0.53020  0.15375  0.77290  Biso   1.000  C
  C481     1.0000 0.13296  0.49440  0.28300  Biso   1.000  C
  C482     1.0000 0.36704  0.00560  0.28300  Biso   1.000  C
  C483     1.0000 0.00560  0.13296  0.78300  Biso   1.000  C
  C484     1.0000 0.49440  0.36704  0.78300  Biso   1.000  C
  C485     1.0000 0.86704  0.99440  0.71700  Biso   1.000  C
  C486     1.0000 0.63296  0.50560  0.71700  Biso   1.000  C
  C487     1.0000 0.99440  0.63296  0.21700  Biso   1.000  C
  C488     1.0000 0.50560  0.86704  0.21700  Biso   1.000  C
  C489     1.0000 0.86704  0.50560  0.71700  Biso   1.000  C
  C490     1.0000 0.63296  0.99440  0.71700  Biso   1.000  C
  C491     1.0000 0.99440  0.86704  0.21700  Biso   1.000  C
  C492     1.0000 0.50560  0.63296  0.21700  Biso   1.000  C
  C493     1.0000 0.13296  0.00560  0.28300  Biso   1.000  C
  C494     1.0000 0.36704  0.49440  0.28300  Biso   1.000  C
  C495     1.0000 0.00560  0.36704  0.78300  Biso   1.000  C
  C496     1.0000 0.49440  0.13296  0.78300  Biso   1.000  C
  H257     1.0000 0.14136  0.46796  0.27265  Biso   1.000  H
  H258     1.0000 0.35864  0.03204  0.27265  Biso   1.000  H
  H259     1.0000 0.03204  0.14136  0.77265  Biso   1.000  H
  H260     1.0000 0.46796  0.35864  0.77265  Biso   1.000  H
  H261     1.0000 0.85864  0.96796  0.72735  Biso   1.000  H
  H262     1.0000 0.64136  0.53204  0.72735  Biso   1.000  H
  H263     1.0000 0.96796  0.64136  0.22735  Biso   1.000  H
  H264     1.0000 0.53204  0.85864  0.22735  Biso   1.000  H
  H265     1.0000 0.85864  0.53204  0.72735  Biso   1.000  H
  H266     1.0000 0.64136  0.96796  0.72735  Biso   1.000  H
  H267     1.0000 0.96796  0.85864  0.22735  Biso   1.000  H
  H268     1.0000 0.53204  0.64136  0.22735  Biso   1.000  H
  H269     1.0000 0.14136  0.03204  0.27265  Biso   1.000  H
  H270     1.0000 0.35864  0.46796  0.27265  Biso   1.000  H
  H271     1.0000 0.03204  0.35864  0.77265  Biso   1.000  H
  H272     1.0000 0.46796  0.14136  0.77265  Biso   1.000  H
  C497     1.0000 0.09380  0.50250  0.31350  Biso   1.000  C
  C498     1.0000 0.40620  0.99750  0.31350  Biso   1.000  C
  C499     1.0000 0.99750  0.09380  0.81350  Biso   1.000  C
  C500     1.0000 0.50250  0.40620  0.81350  Biso   1.000  C
  C501     1.0000 0.90620  0.00250  0.68650  Biso   1.000  C
  C502     1.0000 0.59380  0.49750  0.68650  Biso   1.000  C
  C503     1.0000 0.00250  0.59380  0.18650  Biso   1.000  C
  C504     1.0000 0.49750  0.90620  0.18650  Biso   1.000  C
  C505     1.0000 0.90620  0.49750  0.68650  Biso   1.000  C
  C506     1.0000 0.59380  0.00250  0.68650  Biso   1.000  C
  C507     1.0000 0.00250  0.90620  0.18650  Biso   1.000  C
  C508     1.0000 0.49750  0.59380  0.18650  Biso   1.000  C
  C509     1.0000 0.09380  0.99750  0.31350  Biso   1.000  C
  C510     1.0000 0.40620  0.50250  0.31350  Biso   1.000  C
  C511     1.0000 0.99750  0.40620  0.81350  Biso   1.000  C
  C512     1.0000 0.50250  0.09380  0.81350  Biso   1.000  C
  H273     1.0000 0.08007  0.47954  0.32672  Biso   1.000  H
  H274     1.0000 0.41993  0.02046  0.32672  Biso   1.000  H
  H275     1.0000 0.02046  0.08007  0.82672  Biso   1.000  H
  H276     1.0000 0.47954  0.41993  0.82672  Biso   1.000  H
  H277     1.0000 0.91993  0.97954  0.67328  Biso   1.000  H
  H278     1.0000 0.58007  0.52046  0.67328  Biso   1.000  H
  H279     1.0000 0.97954  0.58007  0.17328  Biso   1.000  H
  H280     1.0000 0.52046  0.91993  0.17328  Biso   1.000  H
  H281     1.0000 0.91993  0.52046  0.67328  Biso   1.000  H
  H282     1.0000 0.58007  0.97954  0.67328  Biso   1.000  H
  H283     1.0000 0.97954  0.91993  0.17328  Biso   1.000  H
  H284     1.0000 0.52046  0.58007  0.17328  Biso   1.000  H
  H285     1.0000 0.08007  0.02046  0.32672  Biso   1.000  H
  H286     1.0000 0.41993  0.47954  0.32672  Biso   1.000  H
  H287     1.0000 0.02046  0.41993  0.82672  Biso   1.000  H
  H288     1.0000 0.47954  0.08007  0.82672  Biso   1.000  H
  C513     1.0000 0.19231  0.53053  0.24140  Biso   1.000  C
  C514     1.0000 0.30769  0.96947  0.24140  Biso   1.000  C
  C515     1.0000 0.96947  0.19231  0.74140  Biso   1.000  C
  C516     1.0000 0.53053  0.30769  0.74140  Biso   1.000  C
  C517     1.0000 0.80769  0.03053  0.75860  Biso   1.000  C
  C518     1.0000 0.69231  0.46947  0.75860  Biso   1.000  C
  C519     1.0000 0.03053  0.69231  0.25860  Biso   1.000  C
  C520     1.0000 0.46947  0.80769  0.25860  Biso   1.000  C
  C521     1.0000 0.80769  0.46947  0.75860  Biso   1.000  C
  C522     1.0000 0.69231  0.03053  0.75860  Biso   1.000  C
  C523     1.0000 0.03053  0.80769  0.25860  Biso   1.000  C
  C524     1.0000 0.46947  0.69231  0.25860  Biso   1.000  C
  C525     1.0000 0.19231  0.96947  0.24140  Biso   1.000  C
  C526     1.0000 0.30769  0.53053  0.24140  Biso   1.000  C
  C527     1.0000 0.96947  0.30769  0.74140  Biso   1.000  C
  C528     1.0000 0.53053  0.19231  0.74140  Biso   1.000  C
  C529     1.0000 0.77320  0.72500  0.26100  Biso   1.000  C
  C530     1.0000 0.72680  0.77500  0.26100  Biso   1.000  C
  C531     1.0000 0.77500  0.77320  0.76100  Biso   1.000  C
  C532     1.0000 0.72500  0.72680  0.76100  Biso   1.000  C
  C533     1.0000 0.22680  0.22500  0.73900  Biso   1.000  C
  C534     1.0000 0.27320  0.27500  0.73900  Biso   1.000  C
  C535     1.0000 0.22500  0.27320  0.23900  Biso   1.000  C
  C536     1.0000 0.27500  0.22680  0.23900  Biso   1.000  C
  C537     1.0000 0.22680  0.27500  0.73900  Biso   1.000  C
  C538     1.0000 0.27320  0.22500  0.73900  Biso   1.000  C
  C539     1.0000 0.22500  0.22680  0.23900  Biso   1.000  C
  C540     1.0000 0.27500  0.27320  0.23900  Biso   1.000  C
  C541     1.0000 0.77320  0.77500  0.26100  Biso   1.000  C
  C542     1.0000 0.72680  0.72500  0.26100  Biso   1.000  C
  C543     1.0000 0.77500  0.72680  0.76100  Biso   1.000  C
  C544     1.0000 0.72500  0.77320  0.76100  Biso   1.000  C
  H289     1.0000 0.79207  0.70660  0.27792  Biso   1.000  H
  H290     1.0000 0.70793  0.79340  0.27792  Biso   1.000  H
  H291     1.0000 0.79340  0.79207  0.77792  Biso   1.000  H
  H292     1.0000 0.70660  0.70793  0.77792  Biso   1.000  H
  H293     1.0000 0.20793  0.20660  0.72208  Biso   1.000  H
  H294     1.0000 0.29207  0.29340  0.72208  Biso   1.000  H
  H295     1.0000 0.20660  0.29207  0.22208  Biso   1.000  H
  H296     1.0000 0.29340  0.20793  0.22208  Biso   1.000  H
  H297     1.0000 0.20793  0.29340  0.72208  Biso   1.000  H
  H298     1.0000 0.29207  0.20660  0.72208  Biso   1.000  H
  H299     1.0000 0.20660  0.20793  0.22208  Biso   1.000  H
  H300     1.0000 0.29340  0.29207  0.22208  Biso   1.000  H
  H301     1.0000 0.79207  0.79340  0.27792  Biso   1.000  H
  H302     1.0000 0.70793  0.70660  0.27792  Biso   1.000  H
  H303     1.0000 0.79340  0.70793  0.77792  Biso   1.000  H
  H304     1.0000 0.70660  0.79207  0.77792  Biso   1.000  H
  C545     1.0000 0.77450  0.72520  0.21190  Biso   1.000  C
  C546     1.0000 0.72550  0.77480  0.21190  Biso   1.000  C
  C547     1.0000 0.77480  0.77450  0.71190  Biso   1.000  C
  C548     1.0000 0.72520  0.72550  0.71190  Biso   1.000  C
  C549     1.0000 0.22550  0.22520  0.78810  Biso   1.000  C
  C550     1.0000 0.27450  0.27480  0.78810  Biso   1.000  C
  C551     1.0000 0.22520  0.27450  0.28810  Biso   1.000  C
  C552     1.0000 0.27480  0.22550  0.28810  Biso   1.000  C
  C553     1.0000 0.22550  0.27480  0.78810  Biso   1.000  C
  C554     1.0000 0.27450  0.22520  0.78810  Biso   1.000  C
  C555     1.0000 0.22520  0.22550  0.28810  Biso   1.000  C
  C556     1.0000 0.27480  0.27450  0.28810  Biso   1.000  C
  C557     1.0000 0.77450  0.77480  0.21190  Biso   1.000  C
  C558     1.0000 0.72550  0.72520  0.21190  Biso   1.000  C
  C559     1.0000 0.77480  0.72550  0.71190  Biso   1.000  C
  C560     1.0000 0.72520  0.77450  0.71190  Biso   1.000  C
  H305     1.0000 0.79157  0.70505  0.19525  Biso   1.000  H
  H306     1.0000 0.70843  0.79495  0.19525  Biso   1.000  H
  H307     1.0000 0.79495  0.79157  0.69525  Biso   1.000  H
  H308     1.0000 0.70505  0.70843  0.69525  Biso   1.000  H
  H309     1.0000 0.20843  0.20505  0.80475  Biso   1.000  H
  H310     1.0000 0.29157  0.29495  0.80475  Biso   1.000  H
  H311     1.0000 0.20505  0.29157  0.30475  Biso   1.000  H
  H312     1.0000 0.29495  0.20843  0.30475  Biso   1.000  H
  H313     1.0000 0.20843  0.29495  0.80475  Biso   1.000  H
  H314     1.0000 0.29157  0.20505  0.80475  Biso   1.000  H
  H315     1.0000 0.20505  0.20843  0.30475  Biso   1.000  H
  H316     1.0000 0.29495  0.29157  0.30475  Biso   1.000  H
  H317     1.0000 0.79157  0.79495  0.19525  Biso   1.000  H
  H318     1.0000 0.70843  0.70505  0.19525  Biso   1.000  H
  H319     1.0000 0.79495  0.70843  0.69525  Biso   1.000  H
  H320     1.0000 0.70505  0.79157  0.69525  Biso   1.000  H
  C561     1.0000 0.75000  0.75000  0.18630  Biso   1.000  C
  C562     1.0000 0.75000  0.75000  0.68630  Biso   1.000  C
  C563     1.0000 0.25000  0.25000  0.81370  Biso   1.000  C
  C564     1.0000 0.25000  0.25000  0.31370  Biso   1.000  C
  C565     1.0000 0.75000  0.75000  0.13260  Biso   1.000  C
  C566     1.0000 0.75000  0.75000  0.63260  Biso   1.000  C
  C567     1.0000 0.25000  0.25000  0.86740  Biso   1.000  C
  C568     1.0000 0.25000  0.25000  0.36740  Biso   1.000  C
  C569     1.0000 0.75000  0.71450  0.10740  Biso   1.000  C
  C570     1.0000 0.75000  0.78550  0.10740  Biso   1.000  C
  C571     1.0000 0.78550  0.75000  0.60740  Biso   1.000  C
  C572     1.0000 0.71450  0.75000  0.60740  Biso   1.000  C
  C573     1.0000 0.25000  0.21450  0.89260  Biso   1.000  C
  C574     1.0000 0.25000  0.28550  0.89260  Biso   1.000  C
  C575     1.0000 0.21450  0.25000  0.39260  Biso   1.000  C
  C576     1.0000 0.28550  0.25000  0.39260  Biso   1.000  C
  H321     1.0000 0.75000  0.68740  0.12248  Biso   1.000  H
  H322     1.0000 0.75000  0.81260  0.12248  Biso   1.000  H
  H323     1.0000 0.81260  0.75000  0.62248  Biso   1.000  H
  H324     1.0000 0.68740  0.75000  0.62248  Biso   1.000  H
  H325     1.0000 0.25000  0.18740  0.87752  Biso   1.000  H
  H326     1.0000 0.25000  0.31260  0.87752  Biso   1.000  H
  H327     1.0000 0.18740  0.25000  0.37752  Biso   1.000  H
  H328     1.0000 0.31260  0.25000  0.37752  Biso   1.000  H
  C577     1.0000 0.75000  0.71520  0.05700  Biso   1.000  C
  C578     1.0000 0.75000  0.78480  0.05700  Biso   1.000  C
  C579     1.0000 0.78480  0.75000  0.55700  Biso   1.000  C
  C580     1.0000 0.71520  0.75000  0.55700  Biso   1.000  C
  C581     1.0000 0.25000  0.21520  0.94300  Biso   1.000  C
  C582     1.0000 0.25000  0.28480  0.94300  Biso   1.000  C
  C583     1.0000 0.21520  0.25000  0.44300  Biso   1.000  C
  C584     1.0000 0.28480  0.25000  0.44300  Biso   1.000  C
  H329     1.0000 0.75000  0.68852  0.04112  Biso   1.000  H
  H330     1.0000 0.75000  0.81148  0.04112  Biso   1.000  H
  H331     1.0000 0.81148  0.75000  0.54112  Biso   1.000  H
  H332     1.0000 0.68852  0.75000  0.54112  Biso   1.000  H
  H333     1.0000 0.25000  0.18852  0.95888  Biso   1.000  H
  H334     1.0000 0.25000  0.31148  0.95888  Biso   1.000  H
  H335     1.0000 0.18852  0.25000  0.45888  Biso   1.000  H
  H336     1.0000 0.31148  0.25000  0.45888  Biso   1.000  H
  C585     1.0000 0.21490  0.66138  0.18430  Biso   1.000  C
  C586     1.0000 0.28510  0.83862  0.18430  Biso   1.000  C
  C587     1.0000 0.83862  0.21490  0.68430  Biso   1.000  C
  C588     1.0000 0.66138  0.28510  0.68430  Biso   1.000  C
  C589     1.0000 0.78510  0.16138  0.81570  Biso   1.000  C
  C590     1.0000 0.71490  0.33862  0.81570  Biso   1.000  C
  C591     1.0000 0.16138  0.71490  0.31570  Biso   1.000  C
  C592     1.0000 0.33862  0.78510  0.31570  Biso   1.000  C
  C593     1.0000 0.78510  0.33862  0.81570  Biso   1.000  C
  C594     1.0000 0.71490  0.16138  0.81570  Biso   1.000  C
  C595     1.0000 0.16138  0.78510  0.31570  Biso   1.000  C
  C596     1.0000 0.33862  0.71490  0.31570  Biso   1.000  C
  C597     1.0000 0.21490  0.83862  0.18430  Biso   1.000  C
  C598     1.0000 0.28510  0.66138  0.18430  Biso   1.000  C
  C599     1.0000 0.83862  0.28510  0.68430  Biso   1.000  C
  C600     1.0000 0.66138  0.21490  0.68430  Biso   1.000  C
  H337     1.0000 0.18975  0.64660  0.18306  Biso   1.000  H
  H338     1.0000 0.31025  0.85340  0.18306  Biso   1.000  H
  H339     1.0000 0.85340  0.18975  0.68306  Biso   1.000  H
  H340     1.0000 0.64660  0.31025  0.68306  Biso   1.000  H
  H341     1.0000 0.81025  0.14660  0.81694  Biso   1.000  H
  H342     1.0000 0.68975  0.35340  0.81694  Biso   1.000  H
  H343     1.0000 0.14660  0.68975  0.31694  Biso   1.000  H
  H344     1.0000 0.35340  0.81025  0.31694  Biso   1.000  H
  H345     1.0000 0.81025  0.35340  0.81694  Biso   1.000  H
  H346     1.0000 0.68975  0.14660  0.81694  Biso   1.000  H
  H347     1.0000 0.14660  0.81025  0.31694  Biso   1.000  H
  H348     1.0000 0.35340  0.68975  0.31694  Biso   1.000  H
  H349     1.0000 0.18975  0.85340  0.18306  Biso   1.000  H
  H350     1.0000 0.31025  0.64660  0.18306  Biso   1.000  H
  H351     1.0000 0.85340  0.31025  0.68306  Biso   1.000  H
  H352     1.0000 0.64660  0.18975  0.68306  Biso   1.000  H
  C601     1.0000 0.21330  0.70442  0.18510  Biso   1.000  C
  C602     1.0000 0.28670  0.79558  0.18510  Biso   1.000  C
  C603     1.0000 0.79558  0.21330  0.68510  Biso   1.000  C
  C604     1.0000 0.70442  0.28670  0.68510  Biso   1.000  C
  C605     1.0000 0.78670  0.20442  0.81490  Biso   1.000  C
  C606     1.0000 0.71330  0.29558  0.81490  Biso   1.000  C
  C607     1.0000 0.20442  0.71330  0.31490  Biso   1.000  C
  C608     1.0000 0.29558  0.78670  0.31490  Biso   1.000  C
  C609     1.0000 0.78670  0.29558  0.81490  Biso   1.000  C
  C610     1.0000 0.71330  0.20442  0.81490  Biso   1.000  C
  C611     1.0000 0.20442  0.78670  0.31490  Biso   1.000  C
  C612     1.0000 0.29558  0.71330  0.31490  Biso   1.000  C
  C613     1.0000 0.21330  0.79558  0.18510  Biso   1.000  C
  C614     1.0000 0.28670  0.70442  0.18510  Biso   1.000  C
  C615     1.0000 0.79558  0.28670  0.68510  Biso   1.000  C
  C616     1.0000 0.70442  0.21330  0.68510  Biso   1.000  C
  H353     1.0000 0.18767  0.71833  0.18631  Biso   1.000  H
  H354     1.0000 0.31233  0.78167  0.18631  Biso   1.000  H
  H355     1.0000 0.78167  0.18767  0.68631  Biso   1.000  H
  H356     1.0000 0.71833  0.31233  0.68631  Biso   1.000  H
  H357     1.0000 0.81233  0.21833  0.81369  Biso   1.000  H
  H358     1.0000 0.68767  0.28167  0.81369  Biso   1.000  H
  H359     1.0000 0.21833  0.68767  0.31369  Biso   1.000  H
  H360     1.0000 0.28167  0.81233  0.31369  Biso   1.000  H
  H361     1.0000 0.81233  0.28167  0.81369  Biso   1.000  H
  H362     1.0000 0.68767  0.21833  0.81369  Biso   1.000  H
  H363     1.0000 0.21833  0.81233  0.31369  Biso   1.000  H
  H364     1.0000 0.28167  0.68767  0.31369  Biso   1.000  H
  H365     1.0000 0.18767  0.78167  0.18631  Biso   1.000  H
  H366     1.0000 0.31233  0.71833  0.18631  Biso   1.000  H
  H367     1.0000 0.78167  0.31233  0.68631  Biso   1.000  H
  H368     1.0000 0.71833  0.18767  0.68631  Biso   1.000  H
  C617     1.0000 0.25000  0.72642  0.18410  Biso   1.000  C
  C618     1.0000 0.25000  0.77358  0.18410  Biso   1.000  C
  C619     1.0000 0.77358  0.25000  0.68410  Biso   1.000  C
  C620     1.0000 0.72642  0.25000  0.68410  Biso   1.000  C
  C621     1.0000 0.75000  0.22642  0.81590  Biso   1.000  C
  C622     1.0000 0.75000  0.27358  0.81590  Biso   1.000  C
  C623     1.0000 0.22642  0.75000  0.31590  Biso   1.000  C
  C624     1.0000 0.27358  0.75000  0.31590  Biso   1.000  C
  C625     1.0000 0.25000  0.40730  0.11980  Biso   1.000  C
  C626     1.0000 0.25000  0.09270  0.11980  Biso   1.000  C
  C627     1.0000 0.09270  0.25000  0.61980  Biso   1.000  C
  C628     1.0000 0.40730  0.25000  0.61980  Biso   1.000  C
  C629     1.0000 0.75000  0.90730  0.88020  Biso   1.000  C
  C630     1.0000 0.75000  0.59270  0.88020  Biso   1.000  C
  C631     1.0000 0.90730  0.75000  0.38020  Biso   1.000  C
  C632     1.0000 0.59270  0.75000  0.38020  Biso   1.000  C
  H369     1.0000 0.27410  0.41921  0.10422  Biso   1.000  H
  H370     1.0000 0.22590  0.08079  0.10422  Biso   1.000  H
  H371     1.0000 0.08079  0.27410  0.60422  Biso   1.000  H
  H372     1.0000 0.41921  0.22590  0.60422  Biso   1.000  H
  H373     1.0000 0.72590  0.91921  0.89578  Biso   1.000  H
  H374     1.0000 0.77410  0.58079  0.89578  Biso   1.000  H
  H375     1.0000 0.91921  0.77410  0.39578  Biso   1.000  H
  H376     1.0000 0.58079  0.72590  0.39578  Biso   1.000  H
  H377     1.0000 0.72590  0.58079  0.89578  Biso   1.000  H
  H378     1.0000 0.77410  0.91921  0.89578  Biso   1.000  H
  H379     1.0000 0.91921  0.72590  0.39578  Biso   1.000  H
  H380     1.0000 0.58079  0.77410  0.39578  Biso   1.000  H
  H381     1.0000 0.27410  0.08079  0.10422  Biso   1.000  H
  H382     1.0000 0.22590  0.41921  0.10422  Biso   1.000  H
  H383     1.0000 0.08079  0.22590  0.60422  Biso   1.000  H
  H384     1.0000 0.41921  0.27410  0.60422  Biso   1.000  H
  H385     1.0000 0.25102  0.37726  0.11739  Biso   1.000  H
  H386     1.0000 0.24898  0.12274  0.11739  Biso   1.000  H
  H387     1.0000 0.12274  0.25102  0.61739  Biso   1.000  H
  H388     1.0000 0.37726  0.24898  0.61739  Biso   1.000  H
  H389     1.0000 0.74898  0.87726  0.88261  Biso   1.000  H
  H390     1.0000 0.75102  0.62274  0.88261  Biso   1.000  H
  H391     1.0000 0.87726  0.75102  0.38261  Biso   1.000  H
  H392     1.0000 0.62274  0.74898  0.38261  Biso   1.000  H
  H393     1.0000 0.74898  0.62274  0.88261  Biso   1.000  H
  H394     1.0000 0.75102  0.87726  0.88261  Biso   1.000  H
  H395     1.0000 0.87726  0.74898  0.38261  Biso   1.000  H
  H396     1.0000 0.62274  0.75102  0.38261  Biso   1.000  H
  H397     1.0000 0.25102  0.12274  0.11739  Biso   1.000  H
  H398     1.0000 0.24898  0.37726  0.11739  Biso   1.000  H
  H399     1.0000 0.12274  0.24898  0.61739  Biso   1.000  H
  H400     1.0000 0.37726  0.25102  0.61739  Biso   1.000  H
  H401     1.0000 0.22488  0.41751  0.10475  Biso   1.000  H
  H402     1.0000 0.27512  0.08249  0.10475  Biso   1.000  H
  H403     1.0000 0.08249  0.22488  0.60475  Biso   1.000  H
  H404     1.0000 0.41751  0.27512  0.60475  Biso   1.000  H
  H405     1.0000 0.77512  0.91751  0.89525  Biso   1.000  H
  H406     1.0000 0.72488  0.58249  0.89525  Biso   1.000  H
  H407     1.0000 0.91751  0.72488  0.39525  Biso   1.000  H
  H408     1.0000 0.58249  0.77512  0.39525  Biso   1.000  H
  H409     1.0000 0.77512  0.58249  0.89525  Biso   1.000  H
  H410     1.0000 0.72488  0.91751  0.89525  Biso   1.000  H
  H411     1.0000 0.91751  0.77512  0.39525  Biso   1.000  H
  H412     1.0000 0.58249  0.72488  0.39525  Biso   1.000  H
  H413     1.0000 0.22488  0.08249  0.10475  Biso   1.000  H
  H414     1.0000 0.27512  0.41751  0.10475  Biso   1.000  H
  H415     1.0000 0.08249  0.27512  0.60475  Biso   1.000  H
  H416     1.0000 0.41751  0.22488  0.60475  Biso   1.000  H
  C633     1.0000 0.28620  0.40180  0.19450  Biso   1.000  C
  C634     1.0000 0.21380  0.09820  0.19450  Biso   1.000  C
  C635     1.0000 0.09820  0.28620  0.69450  Biso   1.000  C
  C636     1.0000 0.40180  0.21380  0.69450  Biso   1.000  C
  C637     1.0000 0.71380  0.90180  0.80550  Biso   1.000  C
  C638     1.0000 0.78620  0.59820  0.80550  Biso   1.000  C
  C639     1.0000 0.90180  0.78620  0.30550  Biso   1.000  C
  C640     1.0000 0.59820  0.71380  0.30550  Biso   1.000  C
  C641     1.0000 0.71380  0.59820  0.80550  Biso   1.000  C
  C642     1.0000 0.78620  0.90180  0.80550  Biso   1.000  C
  C643     1.0000 0.90180  0.71380  0.30550  Biso   1.000  C
  C644     1.0000 0.59820  0.78620  0.30550  Biso   1.000  C
  C645     1.0000 0.28620  0.09820  0.19450  Biso   1.000  C
  C646     1.0000 0.21380  0.40180  0.19450  Biso   1.000  C
  C647     1.0000 0.09820  0.21380  0.69450  Biso   1.000  C
  C648     1.0000 0.40180  0.28620  0.69450  Biso   1.000  C
  H417     1.0000 0.31076  0.41476  0.18109  Biso   1.000  H
  H418     1.0000 0.18924  0.08524  0.18109  Biso   1.000  H
  H419     1.0000 0.08524  0.31076  0.68109  Biso   1.000  H
  H420     1.0000 0.41476  0.18924  0.68109  Biso   1.000  H
  H421     1.0000 0.68924  0.91476  0.81891  Biso   1.000  H
  H422     1.0000 0.81076  0.58524  0.81891  Biso   1.000  H
  H423     1.0000 0.91476  0.81076  0.31891  Biso   1.000  H
  H424     1.0000 0.58524  0.68924  0.31891  Biso   1.000  H
  H425     1.0000 0.68924  0.58524  0.81891  Biso   1.000  H
  H426     1.0000 0.81076  0.91476  0.81891  Biso   1.000  H
  H427     1.0000 0.91476  0.68924  0.31891  Biso   1.000  H
  H428     1.0000 0.58524  0.81076  0.31891  Biso   1.000  H
  H429     1.0000 0.31076  0.08524  0.18109  Biso   1.000  H
  H430     1.0000 0.18924  0.41476  0.18109  Biso   1.000  H
  H431     1.0000 0.08524  0.18924  0.68109  Biso   1.000  H
  H432     1.0000 0.41476  0.31076  0.68109  Biso   1.000  H
  H433     1.0000 0.28623  0.40559  0.22870  Biso   1.000  H
  H434     1.0000 0.21377  0.09441  0.22870  Biso   1.000  H
  H435     1.0000 0.09441  0.28623  0.72870  Biso   1.000  H
  H436     1.0000 0.40559  0.21377  0.72870  Biso   1.000  H
  H437     1.0000 0.71377  0.90559  0.77130  Biso   1.000  H
  H438     1.0000 0.78623  0.59441  0.77130  Biso   1.000  H
  H439     1.0000 0.90559  0.78623  0.27130  Biso   1.000  H
  H440     1.0000 0.59441  0.71377  0.27130  Biso   1.000  H
  H441     1.0000 0.71377  0.59441  0.77130  Biso   1.000  H
  H442     1.0000 0.78623  0.90559  0.77130  Biso   1.000  H
  H443     1.0000 0.90559  0.71377  0.27130  Biso   1.000  H
  H444     1.0000 0.59441  0.78623  0.27130  Biso   1.000  H
  H445     1.0000 0.28623  0.09441  0.22870  Biso   1.000  H
  H446     1.0000 0.21377  0.40559  0.22870  Biso   1.000  H
  H447     1.0000 0.09441  0.21377  0.72870  Biso   1.000  H
  H448     1.0000 0.40559  0.28623  0.72870  Biso   1.000  H
  H449     1.0000 0.28624  0.37238  0.18720  Biso   1.000  H
  H450     1.0000 0.21376  0.12762  0.18720  Biso   1.000  H
  H451     1.0000 0.12762  0.28624  0.68720  Biso   1.000  H
  H452     1.0000 0.37238  0.21376  0.68720  Biso   1.000  H
  H453     1.0000 0.71376  0.87238  0.81280  Biso   1.000  H
  H454     1.0000 0.78624  0.62762  0.81280  Biso   1.000  H
  H455     1.0000 0.87238  0.78624  0.31280  Biso   1.000  H
  H456     1.0000 0.62762  0.71376  0.31280  Biso   1.000  H
  H457     1.0000 0.71376  0.62762  0.81280  Biso   1.000  H
  H458     1.0000 0.78624  0.87238  0.81280  Biso   1.000  H
  H459     1.0000 0.87238  0.71376  0.31280  Biso   1.000  H
  H460     1.0000 0.62762  0.78624  0.31280  Biso   1.000  H
  H461     1.0000 0.28624  0.12762  0.18720  Biso   1.000  H
  H462     1.0000 0.21376  0.37238  0.18720  Biso   1.000  H
  H463     1.0000 0.12762  0.21376  0.68720  Biso   1.000  H
  H464     1.0000 0.37238  0.28624  0.68720  Biso   1.000  H
  C649     1.0000 0.71370  0.75000  0.10620  Biso   1.000  C
  C650     1.0000 0.78630  0.75000  0.10620  Biso   1.000  C
  C651     1.0000 0.75000  0.71370  0.60620  Biso   1.000  C
  C652     1.0000 0.75000  0.78630  0.60620  Biso   1.000  C
  C653     1.0000 0.28630  0.25000  0.89380  Biso   1.000  C
  C654     1.0000 0.21370  0.25000  0.89380  Biso   1.000  C
  C655     1.0000 0.25000  0.21370  0.39380  Biso   1.000  C
  C656     1.0000 0.25000  0.28630  0.39380  Biso   1.000  C
  H465     1.0000 0.68768  0.75000  0.12143  Biso   1.000  H
  H466     1.0000 0.81232  0.75000  0.12143  Biso   1.000  H
  H467     1.0000 0.75000  0.68768  0.62143  Biso   1.000  H
  H468     1.0000 0.75000  0.81232  0.62143  Biso   1.000  H
  H469     1.0000 0.31232  0.25000  0.87857  Biso   1.000  H
  H470     1.0000 0.18768  0.25000  0.87857  Biso   1.000  H
  H471     1.0000 0.25000  0.18768  0.37857  Biso   1.000  H
  H472     1.0000 0.25000  0.31232  0.37857  Biso   1.000  H
  C657     1.0000 0.71600  0.75000  0.05620  Biso   1.000  C
  C658     1.0000 0.78400  0.75000  0.05620  Biso   1.000  C
  C659     1.0000 0.75000  0.71600  0.55620  Biso   1.000  C
  C660     1.0000 0.75000  0.78400  0.55620  Biso   1.000  C
  C661     1.0000 0.28400  0.25000  0.94380  Biso   1.000  C
  C662     1.0000 0.21600  0.25000  0.94380  Biso   1.000  C
  C663     1.0000 0.25000  0.21600  0.44380  Biso   1.000  C
  C664     1.0000 0.25000  0.28400  0.44380  Biso   1.000  C
  H473     1.0000 0.69102  0.75000  0.03885  Biso   1.000  H
  H474     1.0000 0.80898  0.75000  0.03885  Biso   1.000  H
  H475     1.0000 0.75000  0.69102  0.53885  Biso   1.000  H
  H476     1.0000 0.75000  0.80898  0.53885  Biso   1.000  H
  H477     1.0000 0.30898  0.25000  0.96115  Biso   1.000  H
  H478     1.0000 0.19102  0.25000  0.96115  Biso   1.000  H
  H479     1.0000 0.25000  0.19102  0.46115  Biso   1.000  H
  H480     1.0000 0.25000  0.30898  0.46115  Biso   1.000  H
