data_image0
_cell_length_a       31.476
_cell_length_b       10.0561
_cell_length_c       19.549
_cell_angle_alpha    90
_cell_angle_beta     90.21
_cell_angle_gamma    90

_symmetry_space_group_name_H-M    "P 1"
_symmetry_int_tables_number       1

loop_
  _symmetry_equiv_pos_as_xyz
  'x, y, z'

loop_
  _atom_site_label
  _atom_site_occupancy
  _atom_site_fract_x
  _atom_site_fract_y
  _atom_site_fract_z
  _atom_site_thermal_displace_type
  _atom_site_B_iso_or_equiv
  _atom_site_type_symbol
  Cu1      1.0000 0.28971  0.38441  0.97515  Biso   1.000  Cu
  Cu2      1.0000 0.78971  0.88441  0.97515  Biso   1.000  Cu
  Cu3      1.0000 0.28971  0.61559  0.47515  Biso   1.000  Cu
  Cu4      1.0000 0.78971  0.11559  0.47515  Biso   1.000  Cu
  Cu5      1.0000 0.71028  0.61559  0.02485  Biso   1.000  Cu
  Cu6      1.0000 0.21028  0.11559  0.02485  Biso   1.000  Cu
  Cu7      1.0000 0.71028  0.38441  0.52485  Biso   1.000  Cu
  Cu8      1.0000 0.21028  0.88441  0.52485  Biso   1.000  Cu
  Cu9      1.0000 0.50000  0.83067  0.75000  Biso   1.000  Cu
  Cu10     1.0000 0.00000  0.33067  0.75000  Biso   1.000  Cu
  Cu11     1.0000 0.50000  0.16933  0.25000  Biso   1.000  Cu
  Cu12     1.0000 0.00000  0.66933  0.25000  Biso   1.000  Cu
  O1       1.0000 0.29178  0.60210  0.96366  Biso   1.000  O
  O2       1.0000 0.79178  0.10210  0.96366  Biso   1.000  O
  O3       1.0000 0.29178  0.39790  0.46366  Biso   1.000  O
  O4       1.0000 0.79178  0.89790  0.46366  Biso   1.000  O
  O5       1.0000 0.70822  0.39790  0.03634  Biso   1.000  O
  O6       1.0000 0.20822  0.89790  0.03634  Biso   1.000  O
  O7       1.0000 0.70822  0.60210  0.53634  Biso   1.000  O
  O8       1.0000 0.20822  0.10210  0.53634  Biso   1.000  O
  O9       1.0000 0.35324  0.52480  0.92833  Biso   1.000  O
  O10      1.0000 0.85324  0.02480  0.92833  Biso   1.000  O
  O11      1.0000 0.35324  0.47520  0.42833  Biso   1.000  O
  O12      1.0000 0.85324  0.97520  0.42833  Biso   1.000  O
  O13      1.0000 0.64676  0.47520  0.07167  Biso   1.000  O
  O14      1.0000 0.14676  0.97520  0.07167  Biso   1.000  O
  O15      1.0000 0.64676  0.52480  0.57167  Biso   1.000  O
  O16      1.0000 0.14676  0.02480  0.57167  Biso   1.000  O
  O17      1.0000 0.44679  0.82240  0.80122  Biso   1.000  O
  O18      1.0000 0.94679  0.32240  0.80122  Biso   1.000  O
  O19      1.0000 0.44679  0.17760  0.30122  Biso   1.000  O
  O20      1.0000 0.94679  0.67760  0.30122  Biso   1.000  O
  O21      1.0000 0.55321  0.17760  0.19878  Biso   1.000  O
  O22      1.0000 0.05321  0.67760  0.19878  Biso   1.000  O
  O23      1.0000 0.55321  0.82240  0.69878  Biso   1.000  O
  O24      1.0000 0.05321  0.32240  0.69878  Biso   1.000  O
  O25      1.0000 0.44498  0.04180  0.81721  Biso   1.000  O
  O26      1.0000 0.94498  0.54180  0.81721  Biso   1.000  O
  O27      1.0000 0.44498  0.95820  0.31721  Biso   1.000  O
  O28      1.0000 0.94498  0.45820  0.31721  Biso   1.000  O
  O29      1.0000 0.55502  0.95820  0.18279  Biso   1.000  O
  O30      1.0000 0.05502  0.45820  0.18279  Biso   1.000  O
  O31      1.0000 0.55502  0.04180  0.68279  Biso   1.000  O
  O32      1.0000 0.05502  0.54180  0.68279  Biso   1.000  O
  O33      1.0000 0.32544  0.22530  0.95672  Biso   1.000  O
  O34      1.0000 0.82544  0.72530  0.95672  Biso   1.000  O
  O35      1.0000 0.32544  0.77470  0.45672  Biso   1.000  O
  O36      1.0000 0.82544  0.27470  0.45672  Biso   1.000  O
  O37      1.0000 0.67456  0.77470  0.04328  Biso   1.000  O
  O38      1.0000 0.17456  0.27470  0.04328  Biso   1.000  O
  O39      1.0000 0.67456  0.22530  0.54328  Biso   1.000  O
  O40      1.0000 0.17456  0.72530  0.54328  Biso   1.000  O
  O41      1.0000 0.27228  0.08690  0.98320  Biso   1.000  O
  O42      1.0000 0.77228  0.58690  0.98320  Biso   1.000  O
  O43      1.0000 0.27228  0.91310  0.48320  Biso   1.000  O
  O44      1.0000 0.77228  0.41310  0.48320  Biso   1.000  O
  O45      1.0000 0.72772  0.91310  0.01680  Biso   1.000  O
  O46      1.0000 0.22772  0.41310  0.01680  Biso   1.000  O
  O47      1.0000 0.72772  0.08690  0.51680  Biso   1.000  O
  O48      1.0000 0.22772  0.58690  0.51680  Biso   1.000  O
  O49      1.0000 0.50000  0.60990  0.75000  Biso   1.000  O
  O50      1.0000 0.00000  0.10990  0.75000  Biso   1.000  O
  O51      1.0000 0.50000  0.39010  0.25000  Biso   1.000  O
  O52      1.0000 0.00000  0.89010  0.25000  Biso   1.000  O
  O53      1.0000 0.56203  0.53810  0.52410  Biso   1.000  O
  O54      1.0000 0.06203  0.03810  0.52410  Biso   1.000  O
  O55      1.0000 0.56203  0.46190  0.02410  Biso   1.000  O
  O56      1.0000 0.06203  0.96190  0.02410  Biso   1.000  O
  O57      1.0000 0.43797  0.46190  0.47590  Biso   1.000  O
  O58      1.0000 0.93797  0.96190  0.47590  Biso   1.000  O
  O59      1.0000 0.43797  0.53810  0.97590  Biso   1.000  O
  O60      1.0000 0.93797  0.03810  0.97590  Biso   1.000  O
  O61      1.0000 0.43435  0.21660  0.53860  Biso   1.000  O
  O62      1.0000 0.93435  0.71660  0.53860  Biso   1.000  O
  O63      1.0000 0.43435  0.78340  0.03860  Biso   1.000  O
  O64      1.0000 0.93435  0.28340  0.03860  Biso   1.000  O
  O65      1.0000 0.56565  0.78340  0.46140  Biso   1.000  O
  O66      1.0000 0.06565  0.28340  0.46140  Biso   1.000  O
  O67      1.0000 0.56565  0.21660  0.96140  Biso   1.000  O
  O68      1.0000 0.06565  0.71660  0.96140  Biso   1.000  O
  O69      1.0000 0.35729  0.14660  0.61170  Biso   1.000  O
  O70      1.0000 0.85729  0.64660  0.61170  Biso   1.000  O
  O71      1.0000 0.35729  0.85340  0.11170  Biso   1.000  O
  O72      1.0000 0.85729  0.35340  0.11170  Biso   1.000  O
  O73      1.0000 0.64271  0.85340  0.38830  Biso   1.000  O
  O74      1.0000 0.14271  0.35340  0.38830  Biso   1.000  O
  O75      1.0000 0.64271  0.14660  0.88830  Biso   1.000  O
  O76      1.0000 0.14271  0.64660  0.88830  Biso   1.000  O
  O77      1.0000 0.27512  0.25500  0.59882  Biso   1.000  O
  O78      1.0000 0.77512  0.75500  0.59882  Biso   1.000  O
  O79      1.0000 0.27512  0.74500  0.09882  Biso   1.000  O
  O80      1.0000 0.77512  0.24500  0.09882  Biso   1.000  O
  O81      1.0000 0.72488  0.74500  0.40118  Biso   1.000  O
  O82      1.0000 0.22488  0.24500  0.40118  Biso   1.000  O
  O83      1.0000 0.72488  0.25500  0.90118  Biso   1.000  O
  O84      1.0000 0.22488  0.75500  0.90118  Biso   1.000  O
  O85      1.0000 0.52499  0.45290  0.64380  Biso   1.000  O
  O86      1.0000 0.02499  0.95290  0.64380  Biso   1.000  O
  O87      1.0000 0.52499  0.54710  0.14380  Biso   1.000  O
  O88      1.0000 0.02499  0.04710  0.14380  Biso   1.000  O
  O89      1.0000 0.47501  0.54710  0.35620  Biso   1.000  O
  O90      1.0000 0.97501  0.04710  0.35620  Biso   1.000  O
  O91      1.0000 0.47501  0.45290  0.85620  Biso   1.000  O
  O92      1.0000 0.97501  0.95290  0.85620  Biso   1.000  O
  O93      1.0000 0.48402  0.20940  0.65910  Biso   1.000  O
  O94      1.0000 0.98402  0.70940  0.65910  Biso   1.000  O
  O95      1.0000 0.48402  0.79060  0.15910  Biso   1.000  O
  O96      1.0000 0.98402  0.29060  0.15910  Biso   1.000  O
  O97      1.0000 0.51598  0.79060  0.34090  Biso   1.000  O
  O98      1.0000 0.01598  0.29060  0.34090  Biso   1.000  O
  O99      1.0000 0.51598  0.20940  0.84090  Biso   1.000  O
  O100     1.0000 0.01598  0.70940  0.84090  Biso   1.000  O
  O101     1.0000 0.40344  0.21100  0.73210  Biso   1.000  O
  O102     1.0000 0.90344  0.71100  0.73210  Biso   1.000  O
  O103     1.0000 0.40344  0.78900  0.23210  Biso   1.000  O
  O104     1.0000 0.90344  0.28900  0.23210  Biso   1.000  O
  O105     1.0000 0.59656  0.78900  0.26790  Biso   1.000  O
  O106     1.0000 0.09656  0.28900  0.26790  Biso   1.000  O
  O107     1.0000 0.59656  0.21100  0.76790  Biso   1.000  O
  O108     1.0000 0.09656  0.71100  0.76790  Biso   1.000  O
  O109     1.0000 0.39112  0.42760  0.81180  Biso   1.000  O
  O110     1.0000 0.89112  0.92760  0.81180  Biso   1.000  O
  O111     1.0000 0.39112  0.57240  0.31180  Biso   1.000  O
  O112     1.0000 0.89112  0.07240  0.31180  Biso   1.000  O
  O113     1.0000 0.60888  0.57240  0.18820  Biso   1.000  O
  O114     1.0000 0.10888  0.07240  0.18820  Biso   1.000  O
  O115     1.0000 0.60888  0.42760  0.68820  Biso   1.000  O
  O116     1.0000 0.10888  0.92760  0.68820  Biso   1.000  O
  N1       1.0000 0.31534  0.40120  0.06460  Biso   1.000  N
  N2       1.0000 0.81534  0.90120  0.06460  Biso   1.000  N
  N3       1.0000 0.31534  0.59880  0.56460  Biso   1.000  N
  N4       1.0000 0.81534  0.09880  0.56460  Biso   1.000  N
  N5       1.0000 0.68466  0.59880  0.93540  Biso   1.000  N
  N6       1.0000 0.18466  0.09880  0.93540  Biso   1.000  N
  N7       1.0000 0.68466  0.40120  0.43540  Biso   1.000  N
  N8       1.0000 0.18466  0.90120  0.43540  Biso   1.000  N
  N9       1.0000 0.36836  0.42850  0.13900  Biso   1.000  N
  N10      1.0000 0.86836  0.92850  0.13900  Biso   1.000  N
  N11      1.0000 0.36836  0.57150  0.63900  Biso   1.000  N
  N12      1.0000 0.86836  0.07150  0.63900  Biso   1.000  N
  N13      1.0000 0.63164  0.57150  0.86100  Biso   1.000  N
  N14      1.0000 0.13164  0.07150  0.86100  Biso   1.000  N
  N15      1.0000 0.63164  0.42850  0.36100  Biso   1.000  N
  N16      1.0000 0.13164  0.92850  0.36100  Biso   1.000  N
  N17      1.0000 0.26683  0.36950  0.88290  Biso   1.000  N
  N18      1.0000 0.76683  0.86950  0.88290  Biso   1.000  N
  N19      1.0000 0.26683  0.63050  0.38290  Biso   1.000  N
  N20      1.0000 0.76683  0.13050  0.38290  Biso   1.000  N
  N21      1.0000 0.73317  0.63050  0.11710  Biso   1.000  N
  N22      1.0000 0.23317  0.13050  0.11710  Biso   1.000  N
  N23      1.0000 0.73317  0.36950  0.61710  Biso   1.000  N
  N24      1.0000 0.23317  0.86950  0.61710  Biso   1.000  N
  N25      1.0000 0.22420  0.38930  0.79380  Biso   1.000  N
  N26      1.0000 0.72420  0.88930  0.79380  Biso   1.000  N
  N27      1.0000 0.22420  0.61070  0.29380  Biso   1.000  N
  N28      1.0000 0.72420  0.11070  0.29380  Biso   1.000  N
  N29      1.0000 0.77580  0.61070  0.20620  Biso   1.000  N
  N30      1.0000 0.27580  0.11070  0.20620  Biso   1.000  N
  N31      1.0000 0.77580  0.38930  0.70620  Biso   1.000  N
  N32      1.0000 0.27580  0.88930  0.70620  Biso   1.000  N
  N33      1.0000 0.46940  0.85440  0.66250  Biso   1.000  N
  N34      1.0000 0.96940  0.35440  0.66250  Biso   1.000  N
  N35      1.0000 0.46940  0.14560  0.16250  Biso   1.000  N
  N36      1.0000 0.96940  0.64560  0.16250  Biso   1.000  N
  N37      1.0000 0.53060  0.14560  0.33750  Biso   1.000  N
  N38      1.0000 0.03060  0.64560  0.33750  Biso   1.000  N
  N39      1.0000 0.53060  0.85440  0.83750  Biso   1.000  N
  N40      1.0000 0.03060  0.35440  0.83750  Biso   1.000  N
  N41      1.0000 0.45231  0.84180  0.55370  Biso   1.000  N
  N42      1.0000 0.95231  0.34180  0.55370  Biso   1.000  N
  N43      1.0000 0.45231  0.15820  0.05370  Biso   1.000  N
  N44      1.0000 0.95231  0.65820  0.05370  Biso   1.000  N
  N45      1.0000 0.54769  0.15820  0.44630  Biso   1.000  N
  N46      1.0000 0.04769  0.65820  0.44630  Biso   1.000  N
  N47      1.0000 0.54769  0.84180  0.94630  Biso   1.000  N
  N48      1.0000 0.04769  0.34180  0.94630  Biso   1.000  N
  C1       1.0000 0.29913  0.42690  0.12900  Biso   1.000  C
  C2       1.0000 0.79913  0.92690  0.12900  Biso   1.000  C
  C3       1.0000 0.29913  0.57310  0.62900  Biso   1.000  C
  C4       1.0000 0.79913  0.07310  0.62900  Biso   1.000  C
  C5       1.0000 0.70087  0.57310  0.87100  Biso   1.000  C
  C6       1.0000 0.20087  0.07310  0.87100  Biso   1.000  C
  C7       1.0000 0.70087  0.42690  0.37100  Biso   1.000  C
  C8       1.0000 0.20087  0.92690  0.37100  Biso   1.000  C
  H1       1.0000 0.26980  0.43190  0.14020  Biso   1.000  H
  H2       1.0000 0.76980  0.93190  0.14020  Biso   1.000  H
  H3       1.0000 0.26980  0.56810  0.64020  Biso   1.000  H
  H4       1.0000 0.76980  0.06810  0.64020  Biso   1.000  H
  H5       1.0000 0.73020  0.56810  0.85980  Biso   1.000  H
  H6       1.0000 0.23020  0.06810  0.85980  Biso   1.000  H
  H7       1.0000 0.73020  0.43190  0.35980  Biso   1.000  H
  H8       1.0000 0.23020  0.93190  0.35980  Biso   1.000  H
  C9       1.0000 0.33190  0.44380  0.17370  Biso   1.000  C
  C10      1.0000 0.83190  0.94380  0.17370  Biso   1.000  C
  C11      1.0000 0.33190  0.55620  0.67370  Biso   1.000  C
  C12      1.0000 0.83190  0.05620  0.67370  Biso   1.000  C
  C13      1.0000 0.66810  0.55620  0.82630  Biso   1.000  C
  C14      1.0000 0.16810  0.05620  0.82630  Biso   1.000  C
  C15      1.0000 0.66810  0.44380  0.32630  Biso   1.000  C
  C16      1.0000 0.16810  0.94380  0.32630  Biso   1.000  C
  H9       1.0000 0.32940  0.46310  0.22110  Biso   1.000  H
  H10      1.0000 0.82940  0.96310  0.22110  Biso   1.000  H
  H11      1.0000 0.32940  0.53690  0.72110  Biso   1.000  H
  H12      1.0000 0.82940  0.03690  0.72110  Biso   1.000  H
  H13      1.0000 0.67060  0.53690  0.77890  Biso   1.000  H
  H14      1.0000 0.17060  0.03690  0.77890  Biso   1.000  H
  H15      1.0000 0.67060  0.46310  0.27890  Biso   1.000  H
  H16      1.0000 0.17060  0.96310  0.27890  Biso   1.000  H
  C17      1.0000 0.41197  0.44230  0.16240  Biso   1.000  C
  C18      1.0000 0.91197  0.94230  0.16240  Biso   1.000  C
  C19      1.0000 0.41197  0.55770  0.66240  Biso   1.000  C
  C20      1.0000 0.91197  0.05770  0.66240  Biso   1.000  C
  C21      1.0000 0.58803  0.55770  0.83760  Biso   1.000  C
  C22      1.0000 0.08803  0.05770  0.83760  Biso   1.000  C
  C23      1.0000 0.58803  0.44230  0.33760  Biso   1.000  C
  C24      1.0000 0.08803  0.94230  0.33760  Biso   1.000  C
  H17      1.0000 0.41710  0.38120  0.20060  Biso   1.000  H
  H18      1.0000 0.91710  0.88120  0.20060  Biso   1.000  H
  H19      1.0000 0.41710  0.61880  0.70060  Biso   1.000  H
  H20      1.0000 0.91710  0.11880  0.70060  Biso   1.000  H
  H21      1.0000 0.58290  0.61880  0.79940  Biso   1.000  H
  H22      1.0000 0.08290  0.11880  0.79940  Biso   1.000  H
  H23      1.0000 0.58290  0.38120  0.29940  Biso   1.000  H
  H24      1.0000 0.08290  0.88120  0.29940  Biso   1.000  H
  H25      1.0000 0.41690  0.53390  0.17760  Biso   1.000  H
  H26      1.0000 0.91690  0.03390  0.17760  Biso   1.000  H
  H27      1.0000 0.41690  0.46610  0.67760  Biso   1.000  H
  H28      1.0000 0.91690  0.96610  0.67760  Biso   1.000  H
  H29      1.0000 0.58310  0.46610  0.82240  Biso   1.000  H
  H30      1.0000 0.08310  0.96610  0.82240  Biso   1.000  H
  H31      1.0000 0.58310  0.53390  0.32240  Biso   1.000  H
  H32      1.0000 0.08310  0.03390  0.32240  Biso   1.000  H
  H33      1.0000 0.43140  0.42100  0.12480  Biso   1.000  H
  H34      1.0000 0.93140  0.92100  0.12480  Biso   1.000  H
  H35      1.0000 0.43140  0.57900  0.62480  Biso   1.000  H
  H36      1.0000 0.93140  0.07900  0.62480  Biso   1.000  H
  H37      1.0000 0.56860  0.57900  0.87520  Biso   1.000  H
  H38      1.0000 0.06860  0.07900  0.87520  Biso   1.000  H
  H39      1.0000 0.56860  0.42100  0.37520  Biso   1.000  H
  H40      1.0000 0.06860  0.92100  0.37520  Biso   1.000  H
  C25      1.0000 0.35711  0.40310  0.07380  Biso   1.000  C
  C26      1.0000 0.85711  0.90310  0.07380  Biso   1.000  C
  C27      1.0000 0.35711  0.59690  0.57380  Biso   1.000  C
  C28      1.0000 0.85711  0.09690  0.57380  Biso   1.000  C
  C29      1.0000 0.64289  0.59690  0.92620  Biso   1.000  C
  C30      1.0000 0.14289  0.09690  0.92620  Biso   1.000  C
  C31      1.0000 0.64289  0.40310  0.42620  Biso   1.000  C
  C32      1.0000 0.14289  0.90310  0.42620  Biso   1.000  C
  H41      1.0000 0.37700  0.38820  0.03820  Biso   1.000  H
  H42      1.0000 0.87700  0.88820  0.03820  Biso   1.000  H
  H43      1.0000 0.37700  0.61180  0.53820  Biso   1.000  H
  H44      1.0000 0.87700  0.11180  0.53820  Biso   1.000  H
  H45      1.0000 0.62300  0.61180  0.96180  Biso   1.000  H
  H46      1.0000 0.12300  0.11180  0.96180  Biso   1.000  H
  H47      1.0000 0.62300  0.38820  0.46180  Biso   1.000  H
  H48      1.0000 0.12300  0.88820  0.46180  Biso   1.000  H
  C33      1.0000 0.28598  0.32150  0.82560  Biso   1.000  C
  C34      1.0000 0.78598  0.82150  0.82560  Biso   1.000  C
  C35      1.0000 0.28598  0.67850  0.32560  Biso   1.000  C
  C36      1.0000 0.78598  0.17850  0.32560  Biso   1.000  C
  C37      1.0000 0.71402  0.67850  0.17440  Biso   1.000  C
  C38      1.0000 0.21402  0.17850  0.17440  Biso   1.000  C
  C39      1.0000 0.71402  0.32150  0.67440  Biso   1.000  C
  C40      1.0000 0.21402  0.82150  0.67440  Biso   1.000  C
  H49      1.0000 0.31370  0.28410  0.82500  Biso   1.000  H
  H50      1.0000 0.81370  0.78410  0.82500  Biso   1.000  H
  H51      1.0000 0.31370  0.71590  0.32500  Biso   1.000  H
  H52      1.0000 0.81370  0.21590  0.32500  Biso   1.000  H
  H53      1.0000 0.68630  0.71590  0.17500  Biso   1.000  H
  H54      1.0000 0.18630  0.21590  0.17500  Biso   1.000  H
  H55      1.0000 0.68630  0.28410  0.67500  Biso   1.000  H
  H56      1.0000 0.18630  0.78410  0.67500  Biso   1.000  H
  C41      1.0000 0.26126  0.33310  0.77040  Biso   1.000  C
  C42      1.0000 0.76126  0.83310  0.77040  Biso   1.000  C
  C43      1.0000 0.26126  0.66690  0.27040  Biso   1.000  C
  C44      1.0000 0.76126  0.16690  0.27040  Biso   1.000  C
  C45      1.0000 0.73874  0.66690  0.22960  Biso   1.000  C
  C46      1.0000 0.23874  0.16690  0.22960  Biso   1.000  C
  C47      1.0000 0.73874  0.33310  0.72960  Biso   1.000  C
  C48      1.0000 0.23874  0.83310  0.72960  Biso   1.000  C
  H57      1.0000 0.26780  0.30800  0.72480  Biso   1.000  H
  H58      1.0000 0.76780  0.80800  0.72480  Biso   1.000  H
  H59      1.0000 0.26780  0.69200  0.22480  Biso   1.000  H
  H60      1.0000 0.76780  0.19200  0.22480  Biso   1.000  H
  H61      1.0000 0.73220  0.69200  0.27520  Biso   1.000  H
  H62      1.0000 0.23220  0.19200  0.27520  Biso   1.000  H
  H63      1.0000 0.73220  0.30800  0.77520  Biso   1.000  H
  H64      1.0000 0.23220  0.80800  0.77520  Biso   1.000  H
  C49      1.0000 0.18620  0.41690  0.75310  Biso   1.000  C
  C50      1.0000 0.68620  0.91690  0.75310  Biso   1.000  C
  C51      1.0000 0.18620  0.58310  0.25310  Biso   1.000  C
  C52      1.0000 0.68620  0.08310  0.25310  Biso   1.000  C
  C53      1.0000 0.81380  0.58310  0.24690  Biso   1.000  C
  C54      1.0000 0.31380  0.08310  0.24690  Biso   1.000  C
  C55      1.0000 0.81380  0.41690  0.74690  Biso   1.000  C
  C56      1.0000 0.31380  0.91690  0.74690  Biso   1.000  C
  H65      1.0000 0.16940  0.48610  0.77560  Biso   1.000  H
  H66      1.0000 0.66940  0.98610  0.77560  Biso   1.000  H
  H67      1.0000 0.16940  0.51390  0.27560  Biso   1.000  H
  H68      1.0000 0.66940  0.01390  0.27560  Biso   1.000  H
  H69      1.0000 0.83060  0.51390  0.22440  Biso   1.000  H
  H70      1.0000 0.33060  0.01390  0.22440  Biso   1.000  H
  H71      1.0000 0.83060  0.48610  0.72440  Biso   1.000  H
  H72      1.0000 0.33060  0.98610  0.72440  Biso   1.000  H
  H73      1.0000 0.16920  0.33560  0.74900  Biso   1.000  H
  H74      1.0000 0.66920  0.83560  0.74900  Biso   1.000  H
  H75      1.0000 0.16920  0.66440  0.24900  Biso   1.000  H
  H76      1.0000 0.66920  0.16440  0.24900  Biso   1.000  H
  H77      1.0000 0.83080  0.66440  0.25100  Biso   1.000  H
  H78      1.0000 0.33080  0.16440  0.25100  Biso   1.000  H
  H79      1.0000 0.83080  0.33560  0.75100  Biso   1.000  H
  H80      1.0000 0.33080  0.83560  0.75100  Biso   1.000  H
  H81      1.0000 0.19450  0.44730  0.70750  Biso   1.000  H
  H82      1.0000 0.69450  0.94730  0.70750  Biso   1.000  H
  H83      1.0000 0.19450  0.55270  0.20750  Biso   1.000  H
  H84      1.0000 0.69450  0.05270  0.20750  Biso   1.000  H
  H85      1.0000 0.80550  0.55270  0.29250  Biso   1.000  H
  H86      1.0000 0.30550  0.05270  0.29250  Biso   1.000  H
  H87      1.0000 0.80550  0.44730  0.79250  Biso   1.000  H
  H88      1.0000 0.30550  0.94730  0.79250  Biso   1.000  H
  C57      1.0000 0.22858  0.40920  0.86050  Biso   1.000  C
  C58      1.0000 0.72858  0.90920  0.86050  Biso   1.000  C
  C59      1.0000 0.22858  0.59080  0.36050  Biso   1.000  C
  C60      1.0000 0.72858  0.09080  0.36050  Biso   1.000  C
  C61      1.0000 0.77142  0.59080  0.13950  Biso   1.000  C
  C62      1.0000 0.27142  0.09080  0.13950  Biso   1.000  C
  C63      1.0000 0.77142  0.40920  0.63950  Biso   1.000  C
  C64      1.0000 0.27142  0.90920  0.63950  Biso   1.000  C
  H89      1.0000 0.20730  0.44690  0.88880  Biso   1.000  H
  H90      1.0000 0.70730  0.94690  0.88880  Biso   1.000  H
  H91      1.0000 0.20730  0.55310  0.38880  Biso   1.000  H
  H92      1.0000 0.70730  0.05310  0.38880  Biso   1.000  H
  H93      1.0000 0.79270  0.55310  0.11120  Biso   1.000  H
  H94      1.0000 0.29270  0.05310  0.11120  Biso   1.000  H
  H95      1.0000 0.79270  0.44690  0.61120  Biso   1.000  H
  H96      1.0000 0.29270  0.94690  0.61120  Biso   1.000  H
  C65      1.0000 0.32820  0.61850  0.93980  Biso   1.000  C
  C66      1.0000 0.82820  0.11850  0.93980  Biso   1.000  C
  C67      1.0000 0.32820  0.38150  0.43980  Biso   1.000  C
  C68      1.0000 0.82820  0.88150  0.43980  Biso   1.000  C
  C69      1.0000 0.67180  0.38150  0.06020  Biso   1.000  C
  C70      1.0000 0.17180  0.88150  0.06020  Biso   1.000  C
  C71      1.0000 0.67180  0.61850  0.56020  Biso   1.000  C
  C72      1.0000 0.17180  0.11850  0.56020  Biso   1.000  C
  C73      1.0000 0.34284  0.75830  0.92360  Biso   1.000  C
  C74      1.0000 0.84284  0.25830  0.92360  Biso   1.000  C
  C75      1.0000 0.34284  0.24170  0.42360  Biso   1.000  C
  C76      1.0000 0.84284  0.74170  0.42360  Biso   1.000  C
  C77      1.0000 0.65716  0.24170  0.07640  Biso   1.000  C
  C78      1.0000 0.15716  0.74170  0.07640  Biso   1.000  C
  C79      1.0000 0.65716  0.75830  0.57640  Biso   1.000  C
  C80      1.0000 0.15716  0.25830  0.57640  Biso   1.000  C
  C81      1.0000 0.37853  0.77930  0.88440  Biso   1.000  C
  C82      1.0000 0.87853  0.27930  0.88440  Biso   1.000  C
  C83      1.0000 0.37853  0.22070  0.38440  Biso   1.000  C
  C84      1.0000 0.87853  0.72070  0.38440  Biso   1.000  C
  C85      1.0000 0.62147  0.22070  0.11560  Biso   1.000  C
  C86      1.0000 0.12147  0.72070  0.11560  Biso   1.000  C
  C87      1.0000 0.62147  0.77930  0.61560  Biso   1.000  C
  C88      1.0000 0.12147  0.27930  0.61560  Biso   1.000  C
  H97      1.0000 0.39390  0.70520  0.86720  Biso   1.000  H
  H98      1.0000 0.89390  0.20520  0.86720  Biso   1.000  H
  H99      1.0000 0.39390  0.29480  0.36720  Biso   1.000  H
  H100     1.0000 0.89390  0.79480  0.36720  Biso   1.000  H
  H101     1.0000 0.60610  0.29480  0.13280  Biso   1.000  H
  H102     1.0000 0.10610  0.79480  0.13280  Biso   1.000  H
  H103     1.0000 0.60610  0.70520  0.63280  Biso   1.000  H
  H104     1.0000 0.10610  0.20520  0.63280  Biso   1.000  H
  C89      1.0000 0.39246  0.90760  0.86950  Biso   1.000  C
  C90      1.0000 0.89246  0.40760  0.86950  Biso   1.000  C
  C91      1.0000 0.39246  0.09240  0.36950  Biso   1.000  C
  C92      1.0000 0.89246  0.59240  0.36950  Biso   1.000  C
  C93      1.0000 0.60754  0.09240  0.13050  Biso   1.000  C
  C94      1.0000 0.10754  0.59240  0.13050  Biso   1.000  C
  C95      1.0000 0.60754  0.90760  0.63050  Biso   1.000  C
  C96      1.0000 0.10754  0.40760  0.63050  Biso   1.000  C
  C97      1.0000 0.43077  0.92650  0.82620  Biso   1.000  C
  C98      1.0000 0.93077  0.42650  0.82620  Biso   1.000  C
  C99      1.0000 0.43077  0.07350  0.32620  Biso   1.000  C
  C100     1.0000 0.93077  0.57350  0.32620  Biso   1.000  C
  C101     1.0000 0.56923  0.07350  0.17380  Biso   1.000  C
  C102     1.0000 0.06923  0.57350  0.17380  Biso   1.000  C
  C103     1.0000 0.56923  0.92650  0.67380  Biso   1.000  C
  C104     1.0000 0.06923  0.42650  0.67380  Biso   1.000  C
  C105     1.0000 0.36970  0.01560  0.89540  Biso   1.000  C
  C106     1.0000 0.86970  0.51560  0.89540  Biso   1.000  C
  C107     1.0000 0.36970  0.98440  0.39540  Biso   1.000  C
  C108     1.0000 0.86970  0.48440  0.39540  Biso   1.000  C
  C109     1.0000 0.63030  0.98440  0.10460  Biso   1.000  C
  C110     1.0000 0.13030  0.48440  0.10460  Biso   1.000  C
  C111     1.0000 0.63030  0.01560  0.60460  Biso   1.000  C
  C112     1.0000 0.13030  0.51560  0.60460  Biso   1.000  C
  H105     1.0000 0.37910  0.10360  0.88610  Biso   1.000  H
  H106     1.0000 0.87910  0.60360  0.88610  Biso   1.000  H
  H107     1.0000 0.37910  0.89640  0.38610  Biso   1.000  H
  H108     1.0000 0.87910  0.39640  0.38610  Biso   1.000  H
  H109     1.0000 0.62090  0.89640  0.11390  Biso   1.000  H
  H110     1.0000 0.12090  0.39640  0.11390  Biso   1.000  H
  H111     1.0000 0.62090  0.10360  0.61390  Biso   1.000  H
  H112     1.0000 0.12090  0.60360  0.61390  Biso   1.000  H
  C113     1.0000 0.33406  0.99610  0.93400  Biso   1.000  C
  C114     1.0000 0.83406  0.49610  0.93400  Biso   1.000  C
  C115     1.0000 0.33406  0.00390  0.43400  Biso   1.000  C
  C116     1.0000 0.83406  0.50390  0.43400  Biso   1.000  C
  C117     1.0000 0.66594  0.00390  0.06600  Biso   1.000  C
  C118     1.0000 0.16594  0.50390  0.06600  Biso   1.000  C
  C119     1.0000 0.66594  0.99610  0.56600  Biso   1.000  C
  C120     1.0000 0.16594  0.49610  0.56600  Biso   1.000  C
  C121     1.0000 0.30804  0.11180  0.96100  Biso   1.000  C
  C122     1.0000 0.80804  0.61180  0.96100  Biso   1.000  C
  C123     1.0000 0.30804  0.88820  0.46100  Biso   1.000  C
  C124     1.0000 0.80804  0.38820  0.46100  Biso   1.000  C
  C125     1.0000 0.69196  0.88820  0.03900  Biso   1.000  C
  C126     1.0000 0.19196  0.38820  0.03900  Biso   1.000  C
  C127     1.0000 0.69196  0.11180  0.53900  Biso   1.000  C
  C128     1.0000 0.19196  0.61180  0.53900  Biso   1.000  C
  C129     1.0000 0.32028  0.86740  0.94860  Biso   1.000  C
  C130     1.0000 0.82028  0.36740  0.94860  Biso   1.000  C
  C131     1.0000 0.32028  0.13260  0.44860  Biso   1.000  C
  C132     1.0000 0.82028  0.63260  0.44860  Biso   1.000  C
  C133     1.0000 0.67972  0.13260  0.05140  Biso   1.000  C
  C134     1.0000 0.17972  0.63260  0.05140  Biso   1.000  C
  C135     1.0000 0.67972  0.86740  0.55140  Biso   1.000  C
  C136     1.0000 0.17972  0.36740  0.55140  Biso   1.000  C
  H113     1.0000 0.29560  0.85390  0.97560  Biso   1.000  H
  H114     1.0000 0.79560  0.35390  0.97560  Biso   1.000  H
  H115     1.0000 0.29560  0.14610  0.47560  Biso   1.000  H
  H116     1.0000 0.79560  0.64610  0.47560  Biso   1.000  H
  H117     1.0000 0.70440  0.14610  0.02440  Biso   1.000  H
  H118     1.0000 0.20440  0.64610  0.02440  Biso   1.000  H
  H119     1.0000 0.70440  0.85390  0.52440  Biso   1.000  H
  H120     1.0000 0.20440  0.35390  0.52440  Biso   1.000  H
  C137     1.0000 0.42863  0.90450  0.65190  Biso   1.000  C
  C138     1.0000 0.92863  0.40450  0.65190  Biso   1.000  C
  C139     1.0000 0.42863  0.09550  0.15190  Biso   1.000  C
  C140     1.0000 0.92863  0.59550  0.15190  Biso   1.000  C
  C141     1.0000 0.57137  0.09550  0.34810  Biso   1.000  C
  C142     1.0000 0.07137  0.59550  0.34810  Biso   1.000  C
  C143     1.0000 0.57137  0.90450  0.84810  Biso   1.000  C
  C144     1.0000 0.07137  0.40450  0.84810  Biso   1.000  C
  H121     1.0000 0.41080  0.93850  0.68690  Biso   1.000  H
  H122     1.0000 0.91080  0.43850  0.68690  Biso   1.000  H
  H123     1.0000 0.41080  0.06150  0.18690  Biso   1.000  H
  H124     1.0000 0.91080  0.56150  0.18690  Biso   1.000  H
  H125     1.0000 0.58920  0.06150  0.31310  Biso   1.000  H
  H126     1.0000 0.08920  0.56150  0.31310  Biso   1.000  H
  H127     1.0000 0.58920  0.93850  0.81310  Biso   1.000  H
  H128     1.0000 0.08920  0.43850  0.81310  Biso   1.000  H
  C145     1.0000 0.41816  0.89820  0.58610  Biso   1.000  C
  C146     1.0000 0.91816  0.39820  0.58610  Biso   1.000  C
  C147     1.0000 0.41816  0.10180  0.08610  Biso   1.000  C
  C148     1.0000 0.91816  0.60180  0.08610  Biso   1.000  C
  C149     1.0000 0.58184  0.10180  0.41390  Biso   1.000  C
  C150     1.0000 0.08184  0.60180  0.41390  Biso   1.000  C
  C151     1.0000 0.58184  0.89820  0.91390  Biso   1.000  C
  C152     1.0000 0.08184  0.39820  0.91390  Biso   1.000  C
  H129     1.0000 0.39230  0.92680  0.56560  Biso   1.000  H
  H130     1.0000 0.89230  0.42680  0.56560  Biso   1.000  H
  H131     1.0000 0.39230  0.07320  0.06560  Biso   1.000  H
  H132     1.0000 0.89230  0.57320  0.06560  Biso   1.000  H
  H133     1.0000 0.60770  0.07320  0.43440  Biso   1.000  H
  H134     1.0000 0.10770  0.57320  0.43440  Biso   1.000  H
  H135     1.0000 0.60770  0.92680  0.93440  Biso   1.000  H
  H136     1.0000 0.10770  0.42680  0.93440  Biso   1.000  H
  C153     1.0000 0.45670  0.81490  0.48060  Biso   1.000  C
  C154     1.0000 0.95670  0.31490  0.48060  Biso   1.000  C
  C155     1.0000 0.45670  0.18510  0.98060  Biso   1.000  C
  C156     1.0000 0.95670  0.68510  0.98060  Biso   1.000  C
  C157     1.0000 0.54330  0.18510  0.51940  Biso   1.000  C
  C158     1.0000 0.04330  0.68510  0.51940  Biso   1.000  C
  C159     1.0000 0.54330  0.81490  0.01940  Biso   1.000  C
  C160     1.0000 0.04330  0.31490  0.01940  Biso   1.000  C
  H137     1.0000 0.47530  0.73800  0.47400  Biso   1.000  H
  H138     1.0000 0.97530  0.23800  0.47400  Biso   1.000  H
  H139     1.0000 0.47530  0.26200  0.97400  Biso   1.000  H
  H140     1.0000 0.97530  0.76200  0.97400  Biso   1.000  H
  H141     1.0000 0.52470  0.26200  0.52600  Biso   1.000  H
  H142     1.0000 0.02470  0.76200  0.52600  Biso   1.000  H
  H143     1.0000 0.52470  0.73800  0.02600  Biso   1.000  H
  H144     1.0000 0.02470  0.23800  0.02600  Biso   1.000  H
  H145     1.0000 0.46890  0.89280  0.45790  Biso   1.000  H
  H146     1.0000 0.96890  0.39280  0.45790  Biso   1.000  H
  H147     1.0000 0.46890  0.10720  0.95790  Biso   1.000  H
  H148     1.0000 0.96890  0.60720  0.95790  Biso   1.000  H
  H149     1.0000 0.53110  0.10720  0.54210  Biso   1.000  H
  H150     1.0000 0.03110  0.60720  0.54210  Biso   1.000  H
  H151     1.0000 0.53110  0.89280  0.04210  Biso   1.000  H
  H152     1.0000 0.03110  0.39280  0.04210  Biso   1.000  H
  H153     1.0000 0.42870  0.79580  0.46090  Biso   1.000  H
  H154     1.0000 0.92870  0.29580  0.46090  Biso   1.000  H
  H155     1.0000 0.42870  0.20420  0.96090  Biso   1.000  H
  H156     1.0000 0.92870  0.70420  0.96090  Biso   1.000  H
  H157     1.0000 0.57130  0.20420  0.53910  Biso   1.000  H
  H158     1.0000 0.07130  0.70420  0.53910  Biso   1.000  H
  H159     1.0000 0.57130  0.79580  0.03910  Biso   1.000  H
  H160     1.0000 0.07130  0.29580  0.03910  Biso   1.000  H
  C161     1.0000 0.48101  0.81810  0.60210  Biso   1.000  C
  C162     1.0000 0.98101  0.31810  0.60210  Biso   1.000  C
  C163     1.0000 0.48101  0.18190  0.10210  Biso   1.000  C
  C164     1.0000 0.98101  0.68190  0.10210  Biso   1.000  C
  C165     1.0000 0.51899  0.18190  0.39790  Biso   1.000  C
  C166     1.0000 0.01899  0.68190  0.39790  Biso   1.000  C
  C167     1.0000 0.51899  0.81810  0.89790  Biso   1.000  C
  C168     1.0000 0.01899  0.31810  0.89790  Biso   1.000  C
  H161     1.0000 0.50770  0.77800  0.59300  Biso   1.000  H
  H162     1.0000 0.00770  0.27800  0.59300  Biso   1.000  H
  H163     1.0000 0.50770  0.22200  0.09300  Biso   1.000  H
  H164     1.0000 0.00770  0.72200  0.09300  Biso   1.000  H
  H165     1.0000 0.49230  0.22200  0.40700  Biso   1.000  H
  H166     1.0000 0.99230  0.72200  0.40700  Biso   1.000  H
  H167     1.0000 0.49230  0.77800  0.90700  Biso   1.000  H
  H168     1.0000 0.99230  0.27800  0.90700  Biso   1.000  H
  H169     1.0000 0.50690  0.56600  0.70670  Biso   1.000  H
  H170     1.0000 0.00690  0.06600  0.70670  Biso   1.000  H
  H171     1.0000 0.50690  0.43400  0.20670  Biso   1.000  H
  H172     1.0000 0.00690  0.93400  0.20670  Biso   1.000  H
  H173     1.0000 0.49310  0.43400  0.29330  Biso   1.000  H
  H174     1.0000 0.99310  0.93400  0.29330  Biso   1.000  H
  H175     1.0000 0.49310  0.56600  0.79330  Biso   1.000  H
  H176     1.0000 0.99310  0.06600  0.79330  Biso   1.000  H
  H177     1.0000 0.37300  0.44100  0.85190  Biso   1.000  H
  H178     1.0000 0.87300  0.94100  0.85190  Biso   1.000  H
  H179     1.0000 0.37300  0.55900  0.35190  Biso   1.000  H
  H180     1.0000 0.87300  0.05900  0.35190  Biso   1.000  H
  H181     1.0000 0.62700  0.55900  0.14810  Biso   1.000  H
  H182     1.0000 0.12700  0.05900  0.14810  Biso   1.000  H
  H183     1.0000 0.62700  0.44100  0.64810  Biso   1.000  H
  H184     1.0000 0.12700  0.94100  0.64810  Biso   1.000  H
  H185     1.0000 0.41950  0.44100  0.83130  Biso   1.000  H
  H186     1.0000 0.91950  0.94100  0.83130  Biso   1.000  H
  H187     1.0000 0.41950  0.55900  0.33130  Biso   1.000  H
  H188     1.0000 0.91950  0.05900  0.33130  Biso   1.000  H
  H189     1.0000 0.58050  0.55900  0.16870  Biso   1.000  H
  H190     1.0000 0.08050  0.05900  0.16870  Biso   1.000  H
  H191     1.0000 0.58050  0.44100  0.66870  Biso   1.000  H
  H192     1.0000 0.08050  0.94100  0.66870  Biso   1.000  H
  H193     1.0000 0.57810  0.56100  0.56570  Biso   1.000  H
  H194     1.0000 0.07810  0.06100  0.56570  Biso   1.000  H
  H195     1.0000 0.57810  0.43900  0.06570  Biso   1.000  H
  H196     1.0000 0.07810  0.93900  0.06570  Biso   1.000  H
  H197     1.0000 0.42190  0.43900  0.43430  Biso   1.000  H
  H198     1.0000 0.92190  0.93900  0.43430  Biso   1.000  H
  H199     1.0000 0.42190  0.56100  0.93430  Biso   1.000  H
  H200     1.0000 0.92190  0.06100  0.93430  Biso   1.000  H
  H201     1.0000 0.55510  0.62610  0.50570  Biso   1.000  H
  H202     1.0000 0.05510  0.12610  0.50570  Biso   1.000  H
  H203     1.0000 0.55510  0.37390  0.00570  Biso   1.000  H
  H204     1.0000 0.05510  0.87390  0.00570  Biso   1.000  H
  H205     1.0000 0.44490  0.37390  0.49430  Biso   1.000  H
  H206     1.0000 0.94490  0.87390  0.49430  Biso   1.000  H
  H207     1.0000 0.44490  0.62610  0.99430  Biso   1.000  H
  H208     1.0000 0.94490  0.12610  0.99430  Biso   1.000  H
  H209     1.0000 0.45700  0.21800  0.57370  Biso   1.000  H
  H210     1.0000 0.95700  0.71800  0.57370  Biso   1.000  H
  H211     1.0000 0.45700  0.78200  0.07370  Biso   1.000  H
  H212     1.0000 0.95700  0.28200  0.07370  Biso   1.000  H
  H213     1.0000 0.54300  0.78200  0.42630  Biso   1.000  H
  H214     1.0000 0.04300  0.28200  0.42630  Biso   1.000  H
  H215     1.0000 0.54300  0.21800  0.92630  Biso   1.000  H
  H216     1.0000 0.04300  0.71800  0.92630  Biso   1.000  H
  H217     1.0000 0.40950  0.19600  0.56740  Biso   1.000  H
  H218     1.0000 0.90950  0.69600  0.56740  Biso   1.000  H
  H219     1.0000 0.40950  0.80400  0.06740  Biso   1.000  H
  H220     1.0000 0.90950  0.30400  0.06740  Biso   1.000  H
  H221     1.0000 0.59050  0.80400  0.43260  Biso   1.000  H
  H222     1.0000 0.09050  0.30400  0.43260  Biso   1.000  H
  H223     1.0000 0.59050  0.19600  0.93260  Biso   1.000  H
  H224     1.0000 0.09050  0.69600  0.93260  Biso   1.000  H
  H225     1.0000 0.36670  0.15600  0.65940  Biso   1.000  H
  H226     1.0000 0.86670  0.65600  0.65940  Biso   1.000  H
  H227     1.0000 0.36670  0.84400  0.15940  Biso   1.000  H
  H228     1.0000 0.86670  0.34400  0.15940  Biso   1.000  H
  H229     1.0000 0.63330  0.84400  0.34060  Biso   1.000  H
  H230     1.0000 0.13330  0.34400  0.34060  Biso   1.000  H
  H231     1.0000 0.63330  0.15600  0.84060  Biso   1.000  H
  H232     1.0000 0.13330  0.65600  0.84060  Biso   1.000  H
  H233     1.0000 0.33100  0.19900  0.61180  Biso   1.000  H
  H234     1.0000 0.83100  0.69900  0.61180  Biso   1.000  H
  H235     1.0000 0.33100  0.80100  0.11180  Biso   1.000  H
  H236     1.0000 0.83100  0.30100  0.11180  Biso   1.000  H
  H237     1.0000 0.66900  0.80100  0.38820  Biso   1.000  H
  H238     1.0000 0.16900  0.30100  0.38820  Biso   1.000  H
  H239     1.0000 0.66900  0.19900  0.88820  Biso   1.000  H
  H240     1.0000 0.16900  0.69900  0.88820  Biso   1.000  H
  H241     1.0000 0.27960  0.30100  0.55530  Biso   1.000  H
  H242     1.0000 0.77960  0.80100  0.55530  Biso   1.000  H
  H243     1.0000 0.27960  0.69900  0.05530  Biso   1.000  H
  H244     1.0000 0.77960  0.19900  0.05530  Biso   1.000  H
  H245     1.0000 0.72040  0.69900  0.44470  Biso   1.000  H
  H246     1.0000 0.22040  0.19900  0.44470  Biso   1.000  H
  H247     1.0000 0.72040  0.30100  0.94470  Biso   1.000  H
  H248     1.0000 0.22040  0.80100  0.94470  Biso   1.000  H
  H249     1.0000 0.25480  0.18560  0.58610  Biso   1.000  H
  H250     1.0000 0.75480  0.68560  0.58610  Biso   1.000  H
  H251     1.0000 0.25480  0.81440  0.08610  Biso   1.000  H
  H252     1.0000 0.75480  0.31440  0.08610  Biso   1.000  H
  H253     1.0000 0.74520  0.81440  0.41390  Biso   1.000  H
  H254     1.0000 0.24520  0.31440  0.41390  Biso   1.000  H
  H255     1.0000 0.74520  0.18560  0.91390  Biso   1.000  H
  H256     1.0000 0.24520  0.68560  0.91390  Biso   1.000  H
  H257     1.0000 0.50540  0.37680  0.64680  Biso   1.000  H
  H258     1.0000 0.00540  0.87680  0.64680  Biso   1.000  H
  H259     1.0000 0.50540  0.62320  0.14680  Biso   1.000  H
  H260     1.0000 0.00540  0.12320  0.14680  Biso   1.000  H
  H261     1.0000 0.49460  0.62320  0.35320  Biso   1.000  H
  H262     1.0000 0.99460  0.12320  0.35320  Biso   1.000  H
  H263     1.0000 0.49460  0.37680  0.85320  Biso   1.000  H
  H264     1.0000 0.99460  0.87680  0.85320  Biso   1.000  H
  H265     1.0000 0.53290  0.45000  0.59520  Biso   1.000  H
  H266     1.0000 0.03290  0.95000  0.59520  Biso   1.000  H
  H267     1.0000 0.53290  0.55000  0.09520  Biso   1.000  H
  H268     1.0000 0.03290  0.05000  0.09520  Biso   1.000  H
  H269     1.0000 0.46710  0.55000  0.40480  Biso   1.000  H
  H270     1.0000 0.96710  0.05000  0.40480  Biso   1.000  H
  H271     1.0000 0.46710  0.45000  0.90480  Biso   1.000  H
  H272     1.0000 0.96710  0.95000  0.90480  Biso   1.000  H
  H273     1.0000 0.46230  0.21400  0.69480  Biso   1.000  H
  H274     1.0000 0.96230  0.71400  0.69480  Biso   1.000  H
  H275     1.0000 0.46230  0.78600  0.19480  Biso   1.000  H
  H276     1.0000 0.96230  0.28600  0.19480  Biso   1.000  H
  H277     1.0000 0.53770  0.78600  0.30520  Biso   1.000  H
  H278     1.0000 0.03770  0.28600  0.30520  Biso   1.000  H
  H279     1.0000 0.53770  0.21400  0.80520  Biso   1.000  H
  H280     1.0000 0.03770  0.71400  0.80520  Biso   1.000  H
  H281     1.0000 0.50340  0.14200  0.67800  Biso   1.000  H
  H282     1.0000 0.00340  0.64200  0.67800  Biso   1.000  H
  H283     1.0000 0.50340  0.85800  0.17800  Biso   1.000  H
  H284     1.0000 0.00340  0.35800  0.17800  Biso   1.000  H
  H285     1.0000 0.49660  0.85800  0.32200  Biso   1.000  H
  H286     1.0000 0.99660  0.35800  0.32200  Biso   1.000  H
  H287     1.0000 0.49660  0.14200  0.82200  Biso   1.000  H
  H288     1.0000 0.99660  0.64200  0.82200  Biso   1.000  H
  H289     1.0000 0.38200  0.26000  0.75860  Biso   1.000  H
  H290     1.0000 0.88200  0.76000  0.75860  Biso   1.000  H
  H291     1.0000 0.38200  0.74000  0.25860  Biso   1.000  H
  H292     1.0000 0.88200  0.24000  0.25860  Biso   1.000  H
  H293     1.0000 0.61800  0.74000  0.24140  Biso   1.000  H
  H294     1.0000 0.11800  0.24000  0.24140  Biso   1.000  H
  H295     1.0000 0.61800  0.26000  0.74140  Biso   1.000  H
  H296     1.0000 0.11800  0.76000  0.74140  Biso   1.000  H
  H297     1.0000 0.41720  0.16000  0.76900  Biso   1.000  H
  H298     1.0000 0.91720  0.66000  0.76900  Biso   1.000  H
  H299     1.0000 0.41720  0.84000  0.26900  Biso   1.000  H
  H300     1.0000 0.91720  0.34000  0.26900  Biso   1.000  H
  H301     1.0000 0.58280  0.84000  0.23100  Biso   1.000  H
  H302     1.0000 0.08280  0.34000  0.23100  Biso   1.000  H
  H303     1.0000 0.58280  0.16000  0.73100  Biso   1.000  H
  H304     1.0000 0.08280  0.66000  0.73100  Biso   1.000  H
