data_image0
_cell_length_a       43.423
_cell_length_b       10.002
_cell_length_c       16.577
_cell_angle_alpha    90
_cell_angle_beta     97.896
_cell_angle_gamma    90

_symmetry_space_group_name_H-M    "P 1"
_symmetry_int_tables_number       1

loop_
  _symmetry_equiv_pos_as_xyz
  'x, y, z'

loop_
  _atom_site_label
  _atom_site_occupancy
  _atom_site_fract_x
  _atom_site_fract_y
  _atom_site_fract_z
  _atom_site_thermal_displace_type
  _atom_site_B_iso_or_equiv
  _atom_site_type_symbol
  Cu1      1.0000 0.23456  0.35334  0.55274  Biso   1.000  Cu
  Cu2      1.0000 0.76544  0.35334  0.94726  Biso   1.000  Cu
  Cu3      1.0000 0.73456  0.85334  0.55274  Biso   1.000  Cu
  Cu4      1.0000 0.26544  0.85334  0.94726  Biso   1.000  Cu
  Cu5      1.0000 0.76544  0.64666  0.44726  Biso   1.000  Cu
  Cu6      1.0000 0.23456  0.64666  0.05274  Biso   1.000  Cu
  Cu7      1.0000 0.26544  0.14666  0.44726  Biso   1.000  Cu
  Cu8      1.0000 0.73456  0.14666  0.05274  Biso   1.000  Cu
  Si1      1.0000 0.41917  0.13820  0.66980  Biso   1.000  Si
  Si2      1.0000 0.58083  0.13820  0.83020  Biso   1.000  Si
  Si3      1.0000 0.91917  0.63820  0.66980  Biso   1.000  Si
  Si4      1.0000 0.08083  0.63820  0.83020  Biso   1.000  Si
  Si5      1.0000 0.58083  0.86180  0.33020  Biso   1.000  Si
  Si6      1.0000 0.41917  0.86180  0.16980  Biso   1.000  Si
  Si7      1.0000 0.08083  0.36180  0.33020  Biso   1.000  Si
  Si8      1.0000 0.91917  0.36180  0.16980  Biso   1.000  Si
  Si9      1.0000 0.39668  0.86990  0.74790  Biso   1.000  Si
  Si10     1.0000 0.60332  0.86990  0.75210  Biso   1.000  Si
  Si11     1.0000 0.89668  0.36990  0.74790  Biso   1.000  Si
  Si12     1.0000 0.10332  0.36990  0.75210  Biso   1.000  Si
  Si13     1.0000 0.60332  0.13010  0.25210  Biso   1.000  Si
  Si14     1.0000 0.39668  0.13010  0.24790  Biso   1.000  Si
  Si15     1.0000 0.10332  0.63010  0.25210  Biso   1.000  Si
  Si16     1.0000 0.89668  0.63010  0.24790  Biso   1.000  Si
  O1       1.0000 0.27971  0.37290  0.59680  Biso   1.000  O
  O2       1.0000 0.72029  0.37290  0.90320  Biso   1.000  O
  O3       1.0000 0.77971  0.87290  0.59680  Biso   1.000  O
  O4       1.0000 0.22029  0.87290  0.90320  Biso   1.000  O
  O5       1.0000 0.72029  0.62710  0.40320  Biso   1.000  O
  O6       1.0000 0.27971  0.62710  0.09680  Biso   1.000  O
  O7       1.0000 0.22029  0.12710  0.40320  Biso   1.000  O
  O8       1.0000 0.77971  0.12710  0.09680  Biso   1.000  O
  O9       1.0000 0.30121  0.22720  0.51980  Biso   1.000  O
  O10      1.0000 0.69879  0.22720  0.98020  Biso   1.000  O
  O11      1.0000 0.80121  0.72720  0.51980  Biso   1.000  O
  O12      1.0000 0.19879  0.72720  0.98020  Biso   1.000  O
  O13      1.0000 0.69879  0.77280  0.48020  Biso   1.000  O
  O14      1.0000 0.30121  0.77280  0.01980  Biso   1.000  O
  O15      1.0000 0.19879  0.27280  0.48020  Biso   1.000  O
  O16      1.0000 0.80121  0.27280  0.01980  Biso   1.000  O
  O17      1.0000 0.28229  0.00750  0.86990  Biso   1.000  O
  O18      1.0000 0.71771  0.00750  0.63010  Biso   1.000  O
  O19      1.0000 0.78229  0.50750  0.86990  Biso   1.000  O
  O20      1.0000 0.21771  0.50750  0.63010  Biso   1.000  O
  O21      1.0000 0.71771  0.99250  0.13010  Biso   1.000  O
  O22      1.0000 0.28229  0.99250  0.36990  Biso   1.000  O
  O23      1.0000 0.21771  0.49250  0.13010  Biso   1.000  O
  O24      1.0000 0.78229  0.49250  0.36990  Biso   1.000  O
  O25      1.0000 0.30546  0.19900  0.85180  Biso   1.000  O
  O26      1.0000 0.69454  0.19900  0.64820  Biso   1.000  O
  O27      1.0000 0.80546  0.69900  0.85180  Biso   1.000  O
  O28      1.0000 0.19454  0.69900  0.64820  Biso   1.000  O
  O29      1.0000 0.69454  0.80100  0.14820  Biso   1.000  O
  O30      1.0000 0.30546  0.80100  0.35180  Biso   1.000  O
  O31      1.0000 0.19454  0.30100  0.14820  Biso   1.000  O
  O32      1.0000 0.80546  0.30100  0.35180  Biso   1.000  O
  O33      1.0000 0.40520  0.00200  0.70180  Biso   1.000  O
  O34      1.0000 0.59480  0.00200  0.79820  Biso   1.000  O
  O35      1.0000 0.90520  0.50200  0.70180  Biso   1.000  O
  O36      1.0000 0.09480  0.50200  0.79820  Biso   1.000  O
  O37      1.0000 0.59480  0.99800  0.29820  Biso   1.000  O
  O38      1.0000 0.40520  0.99800  0.20180  Biso   1.000  O
  O39      1.0000 0.09480  0.49800  0.29820  Biso   1.000  O
  O40      1.0000 0.90520  0.49800  0.20180  Biso   1.000  O
  N1       1.0000 0.22956  0.22010  0.63730  Biso   1.000  N
  N2       1.0000 0.77044  0.22010  0.86270  Biso   1.000  N
  N3       1.0000 0.72956  0.72010  0.63730  Biso   1.000  N
  N4       1.0000 0.27044  0.72010  0.86270  Biso   1.000  N
  N5       1.0000 0.77044  0.77990  0.36270  Biso   1.000  N
  N6       1.0000 0.22956  0.77990  0.13730  Biso   1.000  N
  N7       1.0000 0.27044  0.27990  0.36270  Biso   1.000  N
  N8       1.0000 0.72956  0.27990  0.13730  Biso   1.000  N
  N9       1.0000 0.23838  0.09610  0.74660  Biso   1.000  N
  N10      1.0000 0.76162  0.09610  0.75340  Biso   1.000  N
  N11      1.0000 0.73838  0.59610  0.74660  Biso   1.000  N
  N12      1.0000 0.26162  0.59610  0.75340  Biso   1.000  N
  N13      1.0000 0.76162  0.90390  0.25340  Biso   1.000  N
  N14      1.0000 0.23838  0.90390  0.24660  Biso   1.000  N
  N15      1.0000 0.26162  0.40390  0.25340  Biso   1.000  N
  N16      1.0000 0.73838  0.40390  0.24660  Biso   1.000  N
  H1       1.0000 0.24800  0.05950  0.78980  Biso   1.000  H
  H2       1.0000 0.75200  0.05950  0.71020  Biso   1.000  H
  H3       1.0000 0.74800  0.55950  0.78980  Biso   1.000  H
  H4       1.0000 0.25200  0.55950  0.71020  Biso   1.000  H
  H5       1.0000 0.75200  0.94050  0.21020  Biso   1.000  H
  H6       1.0000 0.24800  0.94050  0.28980  Biso   1.000  H
  H7       1.0000 0.25200  0.44050  0.21020  Biso   1.000  H
  H8       1.0000 0.74800  0.44050  0.28980  Biso   1.000  H
  N17      1.0000 0.23769  0.49720  0.47290  Biso   1.000  N
  N18      1.0000 0.76231  0.49720  0.02710  Biso   1.000  N
  N19      1.0000 0.73769  0.99720  0.47290  Biso   1.000  N
  N20      1.0000 0.26231  0.99720  0.02710  Biso   1.000  N
  N21      1.0000 0.76231  0.50280  0.52710  Biso   1.000  N
  N22      1.0000 0.23769  0.50280  0.97290  Biso   1.000  N
  N23      1.0000 0.26231  0.00280  0.52710  Biso   1.000  N
  N24      1.0000 0.73769  0.00280  0.97290  Biso   1.000  N
  N25      1.0000 0.25430  0.65980  0.40340  Biso   1.000  N
  N26      1.0000 0.74570  0.65980  0.09660  Biso   1.000  N
  N27      1.0000 0.75430  0.15980  0.40340  Biso   1.000  N
  N28      1.0000 0.24570  0.15980  0.09660  Biso   1.000  N
  N29      1.0000 0.74570  0.34020  0.59660  Biso   1.000  N
  N30      1.0000 0.25430  0.34020  0.90340  Biso   1.000  N
  N31      1.0000 0.24570  0.84020  0.59660  Biso   1.000  N
  N32      1.0000 0.75430  0.84020  0.90340  Biso   1.000  N
  H9       1.0000 0.26710  0.72780  0.38840  Biso   1.000  H
  H10      1.0000 0.73290  0.72780  0.11160  Biso   1.000  H
  H11      1.0000 0.76710  0.22780  0.38840  Biso   1.000  H
  H12      1.0000 0.23290  0.22780  0.11160  Biso   1.000  H
  H13      1.0000 0.73290  0.27220  0.61160  Biso   1.000  H
  H14      1.0000 0.26710  0.27220  0.88840  Biso   1.000  H
  H15      1.0000 0.23290  0.77220  0.61160  Biso   1.000  H
  H16      1.0000 0.76710  0.77220  0.88840  Biso   1.000  H
  C1       1.0000 0.20338  0.15190  0.64780  Biso   1.000  C
  C2       1.0000 0.79662  0.15190  0.85220  Biso   1.000  C
  C3       1.0000 0.70338  0.65190  0.64780  Biso   1.000  C
  C4       1.0000 0.29662  0.65190  0.85220  Biso   1.000  C
  C5       1.0000 0.79662  0.84810  0.35220  Biso   1.000  C
  C6       1.0000 0.20338  0.84810  0.14780  Biso   1.000  C
  C7       1.0000 0.29662  0.34810  0.35220  Biso   1.000  C
  C8       1.0000 0.70338  0.34810  0.14780  Biso   1.000  C
  H17      1.0000 0.18460  0.15680  0.61360  Biso   1.000  H
  H18      1.0000 0.81540  0.15680  0.88640  Biso   1.000  H
  H19      1.0000 0.68460  0.65680  0.61360  Biso   1.000  H
  H20      1.0000 0.31540  0.65680  0.88640  Biso   1.000  H
  H21      1.0000 0.81540  0.84320  0.38640  Biso   1.000  H
  H22      1.0000 0.18460  0.84320  0.11360  Biso   1.000  H
  H23      1.0000 0.31540  0.34320  0.38640  Biso   1.000  H
  H24      1.0000 0.68460  0.34320  0.11360  Biso   1.000  H
  C9       1.0000 0.20890  0.07580  0.71580  Biso   1.000  C
  C10      1.0000 0.79110  0.07580  0.78420  Biso   1.000  C
  C11      1.0000 0.70890  0.57580  0.71580  Biso   1.000  C
  C12      1.0000 0.29110  0.57580  0.78420  Biso   1.000  C
  C13      1.0000 0.79110  0.92420  0.28420  Biso   1.000  C
  C14      1.0000 0.20890  0.92420  0.21580  Biso   1.000  C
  C15      1.0000 0.29110  0.42420  0.28420  Biso   1.000  C
  C16      1.0000 0.70890  0.42420  0.21580  Biso   1.000  C
  H25      1.0000 0.19480  0.02020  0.73680  Biso   1.000  H
  H26      1.0000 0.80520  0.02020  0.76320  Biso   1.000  H
  H27      1.0000 0.69480  0.52020  0.73680  Biso   1.000  H
  H28      1.0000 0.30520  0.52020  0.76320  Biso   1.000  H
  H29      1.0000 0.80520  0.97980  0.26320  Biso   1.000  H
  H30      1.0000 0.19480  0.97980  0.23680  Biso   1.000  H
  H31      1.0000 0.30520  0.47980  0.26320  Biso   1.000  H
  H32      1.0000 0.69480  0.47980  0.23680  Biso   1.000  H
  C17      1.0000 0.25046  0.18350  0.69860  Biso   1.000  C
  C18      1.0000 0.74954  0.18350  0.80140  Biso   1.000  C
  C19      1.0000 0.75046  0.68350  0.69860  Biso   1.000  C
  C20      1.0000 0.24954  0.68350  0.80140  Biso   1.000  C
  C21      1.0000 0.74954  0.81650  0.30140  Biso   1.000  C
  C22      1.0000 0.25046  0.81650  0.19860  Biso   1.000  C
  C23      1.0000 0.24954  0.31650  0.30140  Biso   1.000  C
  C24      1.0000 0.75046  0.31650  0.19860  Biso   1.000  C
  H33      1.0000 0.27080  0.21440  0.70730  Biso   1.000  H
  H34      1.0000 0.72920  0.21440  0.79270  Biso   1.000  H
  H35      1.0000 0.77080  0.71440  0.70730  Biso   1.000  H
  H36      1.0000 0.22920  0.71440  0.79270  Biso   1.000  H
  H37      1.0000 0.72920  0.78560  0.29270  Biso   1.000  H
  H38      1.0000 0.27080  0.78560  0.20730  Biso   1.000  H
  H39      1.0000 0.22920  0.28560  0.29270  Biso   1.000  H
  H40      1.0000 0.77080  0.28560  0.20730  Biso   1.000  H
  C25      1.0000 0.21321  0.54980  0.42080  Biso   1.000  C
  C26      1.0000 0.78679  0.54980  0.07920  Biso   1.000  C
  C27      1.0000 0.71321  0.04980  0.42080  Biso   1.000  C
  C28      1.0000 0.28679  0.04980  0.07920  Biso   1.000  C
  C29      1.0000 0.78679  0.45020  0.57920  Biso   1.000  C
  C30      1.0000 0.21321  0.45020  0.92080  Biso   1.000  C
  C31      1.0000 0.28679  0.95020  0.57920  Biso   1.000  C
  C32      1.0000 0.71321  0.95020  0.92080  Biso   1.000  C
  H41      1.0000 0.19260  0.52120  0.41550  Biso   1.000  H
  H42      1.0000 0.80740  0.52120  0.08450  Biso   1.000  H
  H43      1.0000 0.69260  0.02120  0.41550  Biso   1.000  H
  H44      1.0000 0.30740  0.02120  0.08450  Biso   1.000  H
  H45      1.0000 0.80740  0.47880  0.58450  Biso   1.000  H
  H46      1.0000 0.19260  0.47880  0.91550  Biso   1.000  H
  H47      1.0000 0.30740  0.97880  0.58450  Biso   1.000  H
  H48      1.0000 0.69260  0.97880  0.91550  Biso   1.000  H
  C33      1.0000 0.22430  0.64940  0.37910  Biso   1.000  C
  C34      1.0000 0.77570  0.64940  0.12090  Biso   1.000  C
  C35      1.0000 0.72430  0.14940  0.37910  Biso   1.000  C
  C36      1.0000 0.27570  0.14940  0.12090  Biso   1.000  C
  C37      1.0000 0.77570  0.35060  0.62090  Biso   1.000  C
  C38      1.0000 0.22430  0.35060  0.87910  Biso   1.000  C
  C39      1.0000 0.27570  0.85060  0.62090  Biso   1.000  C
  C40      1.0000 0.72430  0.85060  0.87910  Biso   1.000  C
  H49      1.0000 0.21280  0.70210  0.33970  Biso   1.000  H
  H50      1.0000 0.78720  0.70210  0.16030  Biso   1.000  H
  H51      1.0000 0.71280  0.20210  0.33970  Biso   1.000  H
  H52      1.0000 0.28720  0.20210  0.16030  Biso   1.000  H
  H53      1.0000 0.78720  0.29790  0.66030  Biso   1.000  H
  H54      1.0000 0.21280  0.29790  0.83970  Biso   1.000  H
  H55      1.0000 0.28720  0.79790  0.66030  Biso   1.000  H
  H56      1.0000 0.71280  0.79790  0.83970  Biso   1.000  H
  C41      1.0000 0.26199  0.56710  0.46150  Biso   1.000  C
  C42      1.0000 0.73801  0.56710  0.03850  Biso   1.000  C
  C43      1.0000 0.76199  0.06710  0.46150  Biso   1.000  C
  C44      1.0000 0.23801  0.06710  0.03850  Biso   1.000  C
  C45      1.0000 0.73801  0.43290  0.53850  Biso   1.000  C
  C46      1.0000 0.26199  0.43290  0.96150  Biso   1.000  C
  C47      1.0000 0.23801  0.93290  0.53850  Biso   1.000  C
  C48      1.0000 0.76199  0.93290  0.96150  Biso   1.000  C
  H57      1.0000 0.28190  0.55480  0.48950  Biso   1.000  H
  H58      1.0000 0.71810  0.55480  0.01050  Biso   1.000  H
  H59      1.0000 0.78190  0.05480  0.48950  Biso   1.000  H
  H60      1.0000 0.21810  0.05480  0.01050  Biso   1.000  H
  H61      1.0000 0.71810  0.44520  0.51050  Biso   1.000  H
  H62      1.0000 0.28190  0.44520  0.98950  Biso   1.000  H
  H63      1.0000 0.21810  0.94520  0.51050  Biso   1.000  H
  H64      1.0000 0.78190  0.94520  0.98950  Biso   1.000  H
  C49      1.0000 0.30249  0.31100  0.57630  Biso   1.000  C
  C50      1.0000 0.69751  0.31100  0.92370  Biso   1.000  C
  C51      1.0000 0.80249  0.81100  0.57630  Biso   1.000  C
  C52      1.0000 0.19751  0.81100  0.92370  Biso   1.000  C
  C53      1.0000 0.69751  0.68900  0.42370  Biso   1.000  C
  C54      1.0000 0.30249  0.68900  0.07630  Biso   1.000  C
  C55      1.0000 0.19751  0.18900  0.42370  Biso   1.000  C
  C56      1.0000 0.80249  0.18900  0.07630  Biso   1.000  C
  C57      1.0000 0.33393  0.34210  0.62340  Biso   1.000  C
  C58      1.0000 0.66607  0.34210  0.87660  Biso   1.000  C
  C59      1.0000 0.83393  0.84210  0.62340  Biso   1.000  C
  C60      1.0000 0.16607  0.84210  0.87660  Biso   1.000  C
  C61      1.0000 0.66607  0.65790  0.37660  Biso   1.000  C
  C62      1.0000 0.33393  0.65790  0.12340  Biso   1.000  C
  C63      1.0000 0.16607  0.15790  0.37660  Biso   1.000  C
  C64      1.0000 0.83393  0.15790  0.12340  Biso   1.000  C
  H65      1.0000 0.34070  0.42810  0.60520  Biso   1.000  H
  H66      1.0000 0.65930  0.42810  0.89480  Biso   1.000  H
  H67      1.0000 0.84070  0.92810  0.60520  Biso   1.000  H
  H68      1.0000 0.15930  0.92810  0.89480  Biso   1.000  H
  H69      1.0000 0.65930  0.57190  0.39480  Biso   1.000  H
  H70      1.0000 0.34070  0.57190  0.10520  Biso   1.000  H
  H71      1.0000 0.15930  0.07190  0.39480  Biso   1.000  H
  H72      1.0000 0.84070  0.07190  0.10520  Biso   1.000  H
  H73      1.0000 0.33150  0.35100  0.68050  Biso   1.000  H
  H74      1.0000 0.66850  0.35100  0.81950  Biso   1.000  H
  H75      1.0000 0.83150  0.85100  0.68050  Biso   1.000  H
  H76      1.0000 0.16850  0.85100  0.81950  Biso   1.000  H
  H77      1.0000 0.66850  0.64900  0.31950  Biso   1.000  H
  H78      1.0000 0.33150  0.64900  0.18050  Biso   1.000  H
  H79      1.0000 0.16850  0.14900  0.31950  Biso   1.000  H
  H80      1.0000 0.83150  0.14900  0.18050  Biso   1.000  H
  C65      1.0000 0.35884  0.24340  0.61650  Biso   1.000  C
  C66      1.0000 0.64116  0.24340  0.88350  Biso   1.000  C
  C67      1.0000 0.85884  0.74340  0.61650  Biso   1.000  C
  C68      1.0000 0.14116  0.74340  0.88350  Biso   1.000  C
  C69      1.0000 0.64116  0.75660  0.38350  Biso   1.000  C
  C70      1.0000 0.35884  0.75660  0.11650  Biso   1.000  C
  C71      1.0000 0.14116  0.25660  0.38350  Biso   1.000  C
  C72      1.0000 0.85884  0.25660  0.11650  Biso   1.000  C
  H81      1.0000 0.36190  0.23740  0.55980  Biso   1.000  H
  H82      1.0000 0.63810  0.23740  0.94020  Biso   1.000  H
  H83      1.0000 0.86190  0.73740  0.55980  Biso   1.000  H
  H84      1.0000 0.13810  0.73740  0.94020  Biso   1.000  H
  H85      1.0000 0.63810  0.76260  0.44020  Biso   1.000  H
  H86      1.0000 0.36190  0.76260  0.05980  Biso   1.000  H
  H87      1.0000 0.13810  0.26260  0.44020  Biso   1.000  H
  H88      1.0000 0.86190  0.26260  0.05980  Biso   1.000  H
  H89      1.0000 0.35180  0.15660  0.63250  Biso   1.000  H
  H90      1.0000 0.64820  0.15660  0.86750  Biso   1.000  H
  H91      1.0000 0.85180  0.65660  0.63250  Biso   1.000  H
  H92      1.0000 0.14820  0.65660  0.86750  Biso   1.000  H
  H93      1.0000 0.64820  0.84340  0.36750  Biso   1.000  H
  H94      1.0000 0.35180  0.84340  0.13250  Biso   1.000  H
  H95      1.0000 0.14820  0.34340  0.36750  Biso   1.000  H
  H96      1.0000 0.85180  0.34340  0.13250  Biso   1.000  H
  C73      1.0000 0.38960  0.27200  0.66600  Biso   1.000  C
  C74      1.0000 0.61040  0.27200  0.83400  Biso   1.000  C
  C75      1.0000 0.88960  0.77200  0.66600  Biso   1.000  C
  C76      1.0000 0.11040  0.77200  0.83400  Biso   1.000  C
  C77      1.0000 0.61040  0.72800  0.33400  Biso   1.000  C
  C78      1.0000 0.38960  0.72800  0.16600  Biso   1.000  C
  C79      1.0000 0.11040  0.22800  0.33400  Biso   1.000  C
  C80      1.0000 0.88960  0.22800  0.16600  Biso   1.000  C
  H97      1.0000 0.38610  0.29160  0.72130  Biso   1.000  H
  H98      1.0000 0.61390  0.29160  0.77870  Biso   1.000  H
  H99      1.0000 0.88610  0.79160  0.72130  Biso   1.000  H
  H100     1.0000 0.11390  0.79160  0.77870  Biso   1.000  H
  H101     1.0000 0.61390  0.70840  0.27870  Biso   1.000  H
  H102     1.0000 0.38610  0.70840  0.22130  Biso   1.000  H
  H103     1.0000 0.11390  0.20840  0.27870  Biso   1.000  H
  H104     1.0000 0.88610  0.20840  0.22130  Biso   1.000  H
  H105     1.0000 0.39810  0.35200  0.64440  Biso   1.000  H
  H106     1.0000 0.60190  0.35200  0.85560  Biso   1.000  H
  H107     1.0000 0.89810  0.85200  0.64440  Biso   1.000  H
  H108     1.0000 0.10190  0.85200  0.85560  Biso   1.000  H
  H109     1.0000 0.60190  0.64800  0.35560  Biso   1.000  H
  H110     1.0000 0.39810  0.64800  0.14440  Biso   1.000  H
  H111     1.0000 0.10190  0.14800  0.35560  Biso   1.000  H
  H112     1.0000 0.89810  0.14800  0.14440  Biso   1.000  H
  C81      1.0000 0.42760  0.10130  0.56440  Biso   1.000  C
  C82      1.0000 0.57240  0.10130  0.93560  Biso   1.000  C
  C83      1.0000 0.92760  0.60130  0.56440  Biso   1.000  C
  C84      1.0000 0.07240  0.60130  0.93560  Biso   1.000  C
  C85      1.0000 0.57240  0.89870  0.43560  Biso   1.000  C
  C86      1.0000 0.42760  0.89870  0.06440  Biso   1.000  C
  C87      1.0000 0.07240  0.39870  0.43560  Biso   1.000  C
  C88      1.0000 0.92760  0.39870  0.06440  Biso   1.000  C
  H113     1.0000 0.40960  0.06260  0.53320  Biso   1.000  H
  H114     1.0000 0.59040  0.06260  0.96680  Biso   1.000  H
  H115     1.0000 0.90960  0.56260  0.53320  Biso   1.000  H
  H116     1.0000 0.09040  0.56260  0.96680  Biso   1.000  H
  H117     1.0000 0.59040  0.93740  0.46680  Biso   1.000  H
  H118     1.0000 0.40960  0.93740  0.03320  Biso   1.000  H
  H119     1.0000 0.09040  0.43740  0.46680  Biso   1.000  H
  H120     1.0000 0.90960  0.43740  0.03320  Biso   1.000  H
  H121     1.0000 0.44470  0.03970  0.56700  Biso   1.000  H
  H122     1.0000 0.55530  0.03970  0.93300  Biso   1.000  H
  H123     1.0000 0.94470  0.53970  0.56700  Biso   1.000  H
  H124     1.0000 0.05530  0.53970  0.93300  Biso   1.000  H
  H125     1.0000 0.55530  0.96030  0.43300  Biso   1.000  H
  H126     1.0000 0.44470  0.96030  0.06700  Biso   1.000  H
  H127     1.0000 0.05530  0.46030  0.43300  Biso   1.000  H
  H128     1.0000 0.94470  0.46030  0.06700  Biso   1.000  H
  H129     1.0000 0.43290  0.18270  0.53900  Biso   1.000  H
  H130     1.0000 0.56710  0.18270  0.96100  Biso   1.000  H
  H131     1.0000 0.93290  0.68270  0.53900  Biso   1.000  H
  H132     1.0000 0.06710  0.68270  0.96100  Biso   1.000  H
  H133     1.0000 0.56710  0.81730  0.46100  Biso   1.000  H
  H134     1.0000 0.43290  0.81730  0.03900  Biso   1.000  H
  H135     1.0000 0.06710  0.31730  0.46100  Biso   1.000  H
  H136     1.0000 0.93290  0.31730  0.03900  Biso   1.000  H
  C89      1.0000 0.45350  0.14500  0.75120  Biso   1.000  C
  C90      1.0000 0.54650  0.14500  0.74880  Biso   1.000  C
  C91      1.0000 0.95350  0.64500  0.75120  Biso   1.000  C
  C92      1.0000 0.04650  0.64500  0.74880  Biso   1.000  C
  C93      1.0000 0.54650  0.85500  0.24880  Biso   1.000  C
  C94      1.0000 0.45350  0.85500  0.25120  Biso   1.000  C
  C95      1.0000 0.04650  0.35500  0.24880  Biso   1.000  C
  C96      1.0000 0.95350  0.35500  0.25120  Biso   1.000  C
  H137     1.0000 0.45780  0.23680  0.76660  Biso   1.000  H
  H138     1.0000 0.54220  0.23680  0.73340  Biso   1.000  H
  H139     1.0000 0.95780  0.73680  0.76660  Biso   1.000  H
  H140     1.0000 0.04220  0.73680  0.73340  Biso   1.000  H
  H141     1.0000 0.54220  0.76320  0.23340  Biso   1.000  H
  H142     1.0000 0.45780  0.76320  0.26660  Biso   1.000  H
  H143     1.0000 0.04220  0.26320  0.23340  Biso   1.000  H
  H144     1.0000 0.95780  0.26320  0.26660  Biso   1.000  H
  H145     1.0000 0.47140  0.10730  0.73150  Biso   1.000  H
  H146     1.0000 0.52860  0.10730  0.76850  Biso   1.000  H
  H147     1.0000 0.97140  0.60730  0.73150  Biso   1.000  H
  H148     1.0000 0.02860  0.60730  0.76850  Biso   1.000  H
  H149     1.0000 0.52860  0.89270  0.26850  Biso   1.000  H
  H150     1.0000 0.47140  0.89270  0.23150  Biso   1.000  H
  H151     1.0000 0.02860  0.39270  0.26850  Biso   1.000  H
  H152     1.0000 0.97140  0.39270  0.23150  Biso   1.000  H
  H153     1.0000 0.44900  0.09570  0.79780  Biso   1.000  H
  H154     1.0000 0.55100  0.09570  0.70220  Biso   1.000  H
  H155     1.0000 0.94900  0.59570  0.79780  Biso   1.000  H
  H156     1.0000 0.05100  0.59570  0.70220  Biso   1.000  H
  H157     1.0000 0.55100  0.90430  0.20220  Biso   1.000  H
  H158     1.0000 0.44900  0.90430  0.29780  Biso   1.000  H
  H159     1.0000 0.05100  0.40430  0.20220  Biso   1.000  H
  H160     1.0000 0.94900  0.40430  0.29780  Biso   1.000  H
  C97      1.0000 0.43400  0.80260  0.80260  Biso   1.000  C
  C98      1.0000 0.56600  0.80260  0.69740  Biso   1.000  C
  C99      1.0000 0.93400  0.30260  0.80260  Biso   1.000  C
  C100     1.0000 0.06600  0.30260  0.69740  Biso   1.000  C
  C101     1.0000 0.56600  0.19740  0.19740  Biso   1.000  C
  C102     1.0000 0.43400  0.19740  0.30260  Biso   1.000  C
  C103     1.0000 0.06600  0.69740  0.19740  Biso   1.000  C
  C104     1.0000 0.93400  0.69740  0.30260  Biso   1.000  C
  H161     1.0000 0.43810  0.71680  0.78040  Biso   1.000  H
  H162     1.0000 0.56190  0.71680  0.71960  Biso   1.000  H
  H163     1.0000 0.93810  0.21680  0.78040  Biso   1.000  H
  H164     1.0000 0.06190  0.21680  0.71960  Biso   1.000  H
  H165     1.0000 0.56190  0.28320  0.21960  Biso   1.000  H
  H166     1.0000 0.43810  0.28320  0.28040  Biso   1.000  H
  H167     1.0000 0.06190  0.78320  0.21960  Biso   1.000  H
  H168     1.0000 0.93810  0.78320  0.28040  Biso   1.000  H
  H169     1.0000 0.43240  0.79330  0.85950  Biso   1.000  H
  H170     1.0000 0.56760  0.79330  0.64050  Biso   1.000  H
  H171     1.0000 0.93240  0.29330  0.85950  Biso   1.000  H
  H172     1.0000 0.06760  0.29330  0.64050  Biso   1.000  H
  H173     1.0000 0.56760  0.20670  0.14050  Biso   1.000  H
  H174     1.0000 0.43240  0.20670  0.35950  Biso   1.000  H
  H175     1.0000 0.06760  0.70670  0.14050  Biso   1.000  H
  H176     1.0000 0.93240  0.70670  0.35950  Biso   1.000  H
  H177     1.0000 0.45070  0.86270  0.79580  Biso   1.000  H
  H178     1.0000 0.54930  0.86270  0.70420  Biso   1.000  H
  H179     1.0000 0.95070  0.36270  0.79580  Biso   1.000  H
  H180     1.0000 0.04930  0.36270  0.70420  Biso   1.000  H
  H181     1.0000 0.54930  0.13730  0.20420  Biso   1.000  H
  H182     1.0000 0.45070  0.13730  0.29580  Biso   1.000  H
  H183     1.0000 0.04930  0.63730  0.20420  Biso   1.000  H
  H184     1.0000 0.95070  0.63730  0.29580  Biso   1.000  H
  C105     1.0000 0.37650  0.72100  0.69700  Biso   1.000  C
  C106     1.0000 0.62350  0.72100  0.80300  Biso   1.000  C
  C107     1.0000 0.87650  0.22100  0.69700  Biso   1.000  C
  C108     1.0000 0.12350  0.22100  0.80300  Biso   1.000  C
  C109     1.0000 0.62350  0.27900  0.30300  Biso   1.000  C
  C110     1.0000 0.37650  0.27900  0.19700  Biso   1.000  C
  C111     1.0000 0.12350  0.77900  0.30300  Biso   1.000  C
  C112     1.0000 0.87650  0.77900  0.19700  Biso   1.000  C
  H185     1.0000 0.35690  0.74730  0.66770  Biso   1.000  H
  H186     1.0000 0.64310  0.74730  0.83230  Biso   1.000  H
  H187     1.0000 0.85690  0.24730  0.66770  Biso   1.000  H
  H188     1.0000 0.14310  0.24730  0.83230  Biso   1.000  H
  H189     1.0000 0.64310  0.25270  0.33230  Biso   1.000  H
  H190     1.0000 0.35690  0.25270  0.16770  Biso   1.000  H
  H191     1.0000 0.14310  0.75270  0.33230  Biso   1.000  H
  H192     1.0000 0.85690  0.75270  0.16770  Biso   1.000  H
  H193     1.0000 0.37330  0.65560  0.73740  Biso   1.000  H
  H194     1.0000 0.62670  0.65560  0.76260  Biso   1.000  H
  H195     1.0000 0.87330  0.15560  0.73740  Biso   1.000  H
  H196     1.0000 0.12670  0.15560  0.76260  Biso   1.000  H
  H197     1.0000 0.62670  0.34440  0.26260  Biso   1.000  H
  H198     1.0000 0.37330  0.34440  0.23740  Biso   1.000  H
  H199     1.0000 0.12670  0.84440  0.26260  Biso   1.000  H
  H200     1.0000 0.87330  0.84440  0.23740  Biso   1.000  H
  H201     1.0000 0.38920  0.68280  0.65960  Biso   1.000  H
  H202     1.0000 0.61080  0.68280  0.84040  Biso   1.000  H
  H203     1.0000 0.88920  0.18280  0.65960  Biso   1.000  H
  H204     1.0000 0.11080  0.18280  0.84040  Biso   1.000  H
  H205     1.0000 0.61080  0.31720  0.34040  Biso   1.000  H
  H206     1.0000 0.38920  0.31720  0.15960  Biso   1.000  H
  H207     1.0000 0.11080  0.81720  0.34040  Biso   1.000  H
  H208     1.0000 0.88920  0.81720  0.15960  Biso   1.000  H
  C113     1.0000 0.38330  0.93600  0.84810  Biso   1.000  C
  C114     1.0000 0.61670  0.93600  0.65190  Biso   1.000  C
  C115     1.0000 0.88330  0.43600  0.84810  Biso   1.000  C
  C116     1.0000 0.11670  0.43600  0.65190  Biso   1.000  C
  C117     1.0000 0.61670  0.06400  0.15190  Biso   1.000  C
  C118     1.0000 0.38330  0.06400  0.34810  Biso   1.000  C
  C119     1.0000 0.11670  0.56400  0.15190  Biso   1.000  C
  C120     1.0000 0.88330  0.56400  0.34810  Biso   1.000  C
  H209     1.0000 0.38790  0.87120  0.89160  Biso   1.000  H
  H210     1.0000 0.61210  0.87120  0.60840  Biso   1.000  H
  H211     1.0000 0.88790  0.37120  0.89160  Biso   1.000  H
  H212     1.0000 0.11210  0.37120  0.60840  Biso   1.000  H
  H213     1.0000 0.61210  0.12880  0.10840  Biso   1.000  H
  H214     1.0000 0.38790  0.12880  0.39160  Biso   1.000  H
  H215     1.0000 0.11210  0.62880  0.10840  Biso   1.000  H
  H216     1.0000 0.88790  0.62880  0.39160  Biso   1.000  H
  H217     1.0000 0.39390  0.01910  0.86490  Biso   1.000  H
  H218     1.0000 0.60610  0.01910  0.63510  Biso   1.000  H
  H219     1.0000 0.89390  0.51910  0.86490  Biso   1.000  H
  H220     1.0000 0.10610  0.51910  0.63510  Biso   1.000  H
  H221     1.0000 0.60610  0.98090  0.13510  Biso   1.000  H
  H222     1.0000 0.39390  0.98090  0.36490  Biso   1.000  H
  H223     1.0000 0.10610  0.48090  0.13510  Biso   1.000  H
  H224     1.0000 0.89390  0.48090  0.36490  Biso   1.000  H
  C121     1.0000 0.34840  0.95900  0.82880  Biso   1.000  C
  C122     1.0000 0.65160  0.95900  0.67120  Biso   1.000  C
  C123     1.0000 0.84840  0.45900  0.82880  Biso   1.000  C
  C124     1.0000 0.15160  0.45900  0.67120  Biso   1.000  C
  C125     1.0000 0.65160  0.04100  0.17120  Biso   1.000  C
  C126     1.0000 0.34840  0.04100  0.32880  Biso   1.000  C
  C127     1.0000 0.15160  0.54100  0.17120  Biso   1.000  C
  C128     1.0000 0.84840  0.54100  0.32880  Biso   1.000  C
  H225     1.0000 0.33780  0.87490  0.81540  Biso   1.000  H
  H226     1.0000 0.66220  0.87490  0.68460  Biso   1.000  H
  H227     1.0000 0.83780  0.37490  0.81540  Biso   1.000  H
  H228     1.0000 0.16220  0.37490  0.68460  Biso   1.000  H
  H229     1.0000 0.66220  0.12510  0.18460  Biso   1.000  H
  H230     1.0000 0.33780  0.12510  0.31540  Biso   1.000  H
  H231     1.0000 0.16220  0.62510  0.18460  Biso   1.000  H
  H232     1.0000 0.83780  0.62510  0.31540  Biso   1.000  H
  H233     1.0000 0.34390  0.01890  0.78270  Biso   1.000  H
  H234     1.0000 0.65610  0.01890  0.71730  Biso   1.000  H
  H235     1.0000 0.84390  0.51890  0.78270  Biso   1.000  H
  H236     1.0000 0.15610  0.51890  0.71730  Biso   1.000  H
  H237     1.0000 0.65610  0.98110  0.21730  Biso   1.000  H
  H238     1.0000 0.34390  0.98110  0.28270  Biso   1.000  H
  H239     1.0000 0.15610  0.48110  0.21730  Biso   1.000  H
  H240     1.0000 0.84390  0.48110  0.28270  Biso   1.000  H
  C129     1.0000 0.33750  0.02030  0.90420  Biso   1.000  C
  C130     1.0000 0.66250  0.02030  0.59580  Biso   1.000  C
  C131     1.0000 0.83750  0.52030  0.90420  Biso   1.000  C
  C132     1.0000 0.16250  0.52030  0.59580  Biso   1.000  C
  C133     1.0000 0.66250  0.97970  0.09580  Biso   1.000  C
  C134     1.0000 0.33750  0.97970  0.40420  Biso   1.000  C
  C135     1.0000 0.16250  0.47970  0.09580  Biso   1.000  C
  C136     1.0000 0.83750  0.47970  0.40420  Biso   1.000  C
  H241     1.0000 0.33590  0.95240  0.94520  Biso   1.000  H
  H242     1.0000 0.66410  0.95240  0.55480  Biso   1.000  H
  H243     1.0000 0.83590  0.45240  0.94520  Biso   1.000  H
  H244     1.0000 0.16410  0.45240  0.55480  Biso   1.000  H
  H245     1.0000 0.66410  0.04760  0.05480  Biso   1.000  H
  H246     1.0000 0.33590  0.04760  0.44520  Biso   1.000  H
  H247     1.0000 0.16410  0.54760  0.05480  Biso   1.000  H
  H248     1.0000 0.83590  0.54760  0.44520  Biso   1.000  H
  H249     1.0000 0.35190  0.08880  0.92730  Biso   1.000  H
  H250     1.0000 0.64810  0.08880  0.57270  Biso   1.000  H
  H251     1.0000 0.85190  0.58880  0.92730  Biso   1.000  H
  H252     1.0000 0.14810  0.58880  0.57270  Biso   1.000  H
  H253     1.0000 0.64810  0.91120  0.07270  Biso   1.000  H
  H254     1.0000 0.35190  0.91120  0.42730  Biso   1.000  H
  H255     1.0000 0.14810  0.41120  0.07270  Biso   1.000  H
  H256     1.0000 0.85190  0.41120  0.42730  Biso   1.000  H
  C137     1.0000 0.30611  0.07990  0.87510  Biso   1.000  C
  C138     1.0000 0.69389  0.07990  0.62490  Biso   1.000  C
  C139     1.0000 0.80611  0.57990  0.87510  Biso   1.000  C
  C140     1.0000 0.19389  0.57990  0.62490  Biso   1.000  C
  C141     1.0000 0.69389  0.92010  0.12490  Biso   1.000  C
  C142     1.0000 0.30611  0.92010  0.37510  Biso   1.000  C
  C143     1.0000 0.19389  0.42010  0.12490  Biso   1.000  C
  C144     1.0000 0.80611  0.42010  0.37510  Biso   1.000  C
  Si17     1.0000 0.47660  0.57080  0.53390  Biso   1.000  Si
  Si18     1.0000 0.52340  0.57080  0.96610  Biso   1.000  Si
  Si19     1.0000 0.97660  0.07080  0.53390  Biso   1.000  Si
  Si20     1.0000 0.02340  0.07080  0.96610  Biso   1.000  Si
  Si21     1.0000 0.52340  0.42920  0.46610  Biso   1.000  Si
  Si22     1.0000 0.47660  0.42920  0.03390  Biso   1.000  Si
  Si23     1.0000 0.02340  0.92920  0.46610  Biso   1.000  Si
  Si24     1.0000 0.97660  0.92920  0.03390  Biso   1.000  Si
  O41      1.0000 0.34610  0.58990  0.47670  Biso   1.000  O
  O42      1.0000 0.65390  0.58990  0.02330  Biso   1.000  O
  O43      1.0000 0.84610  0.08990  0.47670  Biso   1.000  O
  O44      1.0000 0.15390  0.08990  0.02330  Biso   1.000  O
  O45      1.0000 0.65390  0.41010  0.52330  Biso   1.000  O
  O46      1.0000 0.34610  0.41010  0.97670  Biso   1.000  O
  O47      1.0000 0.15390  0.91010  0.52330  Biso   1.000  O
  O48      1.0000 0.84610  0.91010  0.97670  Biso   1.000  O
  O49      1.0000 0.35250  0.64420  0.35710  Biso   1.000  O
  O50      1.0000 0.64750  0.64420  0.14290  Biso   1.000  O
  O51      1.0000 0.85250  0.14420  0.35710  Biso   1.000  O
  O52      1.0000 0.14750  0.14420  0.14290  Biso   1.000  O
  O53      1.0000 0.64750  0.35580  0.64290  Biso   1.000  O
  O54      1.0000 0.35250  0.35580  0.85710  Biso   1.000  O
  O55      1.0000 0.14750  0.85580  0.64290  Biso   1.000  O
  O56      1.0000 0.85250  0.85580  0.85710  Biso   1.000  O
  H257     1.0000 0.33790  0.70120  0.35650  Biso   1.000  H
  H258     1.0000 0.66210  0.70120  0.14350  Biso   1.000  H
  H259     1.0000 0.83790  0.20120  0.35650  Biso   1.000  H
  H260     1.0000 0.16210  0.20120  0.14350  Biso   1.000  H
  H261     1.0000 0.66210  0.29880  0.64350  Biso   1.000  H
  H262     1.0000 0.33790  0.29880  0.85650  Biso   1.000  H
  H263     1.0000 0.16210  0.79880  0.64350  Biso   1.000  H
  H264     1.0000 0.83790  0.79880  0.85650  Biso   1.000  H
  O57      1.0000 0.49450  0.52800  0.46300  Biso   1.000  O
  O58      1.0000 0.50550  0.52800  0.03700  Biso   1.000  O
  O59      1.0000 0.99450  0.02800  0.46300  Biso   1.000  O
  O60      1.0000 0.00550  0.02800  0.03700  Biso   1.000  O
  O61      1.0000 0.50550  0.47200  0.53700  Biso   1.000  O
  O62      1.0000 0.49450  0.47200  0.96300  Biso   1.000  O
  O63      1.0000 0.00550  0.97200  0.53700  Biso   1.000  O
  O64      1.0000 0.99450  0.97200  0.96300  Biso   1.000  O
  C145     1.0000 0.36040  0.57920  0.42060  Biso   1.000  C
  C146     1.0000 0.63960  0.57920  0.07940  Biso   1.000  C
  C147     1.0000 0.86040  0.07920  0.42060  Biso   1.000  C
  C148     1.0000 0.13960  0.07920  0.07940  Biso   1.000  C
  C149     1.0000 0.63960  0.42080  0.57940  Biso   1.000  C
  C150     1.0000 0.36040  0.42080  0.92060  Biso   1.000  C
  C151     1.0000 0.13960  0.92080  0.57940  Biso   1.000  C
  C152     1.0000 0.86040  0.92080  0.92060  Biso   1.000  C
  C153     1.0000 0.38610  0.48560  0.42140  Biso   1.000  C
  C154     1.0000 0.61390  0.48560  0.07860  Biso   1.000  C
  C155     1.0000 0.88610  0.98560  0.42140  Biso   1.000  C
  C156     1.0000 0.11390  0.98560  0.07860  Biso   1.000  C
  C157     1.0000 0.61390  0.51440  0.57860  Biso   1.000  C
  C158     1.0000 0.38610  0.51440  0.92140  Biso   1.000  C
  C159     1.0000 0.11390  0.01440  0.57860  Biso   1.000  C
  C160     1.0000 0.88610  0.01440  0.92140  Biso   1.000  C
  H265     1.0000 0.38150  0.42720  0.37460  Biso   1.000  H
  H266     1.0000 0.61850  0.42720  0.12540  Biso   1.000  H
  H267     1.0000 0.88150  0.92720  0.37460  Biso   1.000  H
  H268     1.0000 0.11850  0.92720  0.12540  Biso   1.000  H
  H269     1.0000 0.61850  0.57280  0.62540  Biso   1.000  H
  H270     1.0000 0.38150  0.57280  0.87460  Biso   1.000  H
  H271     1.0000 0.11850  0.07280  0.62540  Biso   1.000  H
  H272     1.0000 0.88150  0.07280  0.87460  Biso   1.000  H
  H273     1.0000 0.38670  0.43030  0.46960  Biso   1.000  H
  H274     1.0000 0.61330  0.43030  0.03040  Biso   1.000  H
  H275     1.0000 0.88670  0.93030  0.46960  Biso   1.000  H
  H276     1.0000 0.11330  0.93030  0.03040  Biso   1.000  H
  H277     1.0000 0.61330  0.56970  0.53040  Biso   1.000  H
  H278     1.0000 0.38670  0.56970  0.96960  Biso   1.000  H
  H279     1.0000 0.11330  0.06970  0.53040  Biso   1.000  H
  H280     1.0000 0.88670  0.06970  0.96960  Biso   1.000  H
  C161     1.0000 0.41850  0.54200  0.42000  Biso   1.000  C
  C162     1.0000 0.58150  0.54200  0.08000  Biso   1.000  C
  C163     1.0000 0.91850  0.04200  0.42000  Biso   1.000  C
  C164     1.0000 0.08150  0.04200  0.08000  Biso   1.000  C
  C165     1.0000 0.58150  0.45800  0.58000  Biso   1.000  C
  C166     1.0000 0.41850  0.45800  0.92000  Biso   1.000  C
  C167     1.0000 0.08150  0.95800  0.58000  Biso   1.000  C
  C168     1.0000 0.91850  0.95800  0.92000  Biso   1.000  C
  H281     1.0000 0.43160  0.46910  0.40700  Biso   1.000  H
  H282     1.0000 0.56840  0.46910  0.09300  Biso   1.000  H
  H283     1.0000 0.93160  0.96910  0.40700  Biso   1.000  H
  H284     1.0000 0.06840  0.96910  0.09300  Biso   1.000  H
  H285     1.0000 0.56840  0.53090  0.59300  Biso   1.000  H
  H286     1.0000 0.43160  0.53090  0.90700  Biso   1.000  H
  H287     1.0000 0.06840  0.03090  0.59300  Biso   1.000  H
  H288     1.0000 0.93160  0.03090  0.90700  Biso   1.000  H
  H289     1.0000 0.41720  0.60510  0.37540  Biso   1.000  H
  H290     1.0000 0.58280  0.60510  0.12460  Biso   1.000  H
  H291     1.0000 0.91720  0.10510  0.37540  Biso   1.000  H
  H292     1.0000 0.08280  0.10510  0.12460  Biso   1.000  H
  H293     1.0000 0.58280  0.39490  0.62460  Biso   1.000  H
  H294     1.0000 0.41720  0.39490  0.87540  Biso   1.000  H
  H295     1.0000 0.08280  0.89490  0.62460  Biso   1.000  H
  H296     1.0000 0.91720  0.89490  0.87540  Biso   1.000  H
  C169     1.0000 0.43540  0.61200  0.49500  Biso   1.000  C
  C170     1.0000 0.56460  0.61200  0.00500  Biso   1.000  C
  C171     1.0000 0.93540  0.11200  0.49500  Biso   1.000  C
  C172     1.0000 0.06460  0.11200  0.00500  Biso   1.000  C
  C173     1.0000 0.56460  0.38800  0.50500  Biso   1.000  C
  C174     1.0000 0.43540  0.38800  0.99500  Biso   1.000  C
  C175     1.0000 0.06460  0.88800  0.50500  Biso   1.000  C
  C176     1.0000 0.93540  0.88800  0.99500  Biso   1.000  C
  H297     1.0000 0.42340  0.59710  0.53900  Biso   1.000  H
  H298     1.0000 0.57660  0.59710  0.96100  Biso   1.000  H
  H299     1.0000 0.92340  0.09710  0.53900  Biso   1.000  H
  H300     1.0000 0.07660  0.09710  0.96100  Biso   1.000  H
  H301     1.0000 0.57660  0.40290  0.46100  Biso   1.000  H
  H302     1.0000 0.42340  0.40290  0.03900  Biso   1.000  H
  H303     1.0000 0.07660  0.90290  0.46100  Biso   1.000  H
  H304     1.0000 0.92340  0.90290  0.03900  Biso   1.000  H
  H305     1.0000 0.43460  0.70710  0.48330  Biso   1.000  H
  H306     1.0000 0.56540  0.70710  0.01670  Biso   1.000  H
  H307     1.0000 0.93460  0.20710  0.48330  Biso   1.000  H
  H308     1.0000 0.06540  0.20710  0.01670  Biso   1.000  H
  H309     1.0000 0.56540  0.29290  0.51670  Biso   1.000  H
  H310     1.0000 0.43460  0.29290  0.98330  Biso   1.000  H
  H311     1.0000 0.06540  0.79290  0.51670  Biso   1.000  H
  H312     1.0000 0.93460  0.79290  0.98330  Biso   1.000  H
  C177     1.0000 0.47680  0.55100  0.62720  Biso   1.000  C
  C178     1.0000 0.52320  0.55100  0.87280  Biso   1.000  C
  C179     1.0000 0.97680  0.05100  0.62720  Biso   1.000  C
  C180     1.0000 0.02320  0.05100  0.87280  Biso   1.000  C
  C181     1.0000 0.52320  0.44900  0.37280  Biso   1.000  C
  C182     1.0000 0.47680  0.44900  0.12720  Biso   1.000  C
  C183     1.0000 0.02320  0.94900  0.37280  Biso   1.000  C
  C184     1.0000 0.97680  0.94900  0.12720  Biso   1.000  C
  H313     1.0000 0.46780  0.62840  0.64930  Biso   1.000  H
  H314     1.0000 0.53220  0.62840  0.85070  Biso   1.000  H
  H315     1.0000 0.96780  0.12840  0.64930  Biso   1.000  H
  H316     1.0000 0.03220  0.12840  0.85070  Biso   1.000  H
  H317     1.0000 0.53220  0.37160  0.35070  Biso   1.000  H
  H318     1.0000 0.46780  0.37160  0.14930  Biso   1.000  H
  H319     1.0000 0.03220  0.87160  0.35070  Biso   1.000  H
  H320     1.0000 0.96780  0.87160  0.14930  Biso   1.000  H
  H321     1.0000 0.49760  0.53820  0.65410  Biso   1.000  H
  H322     1.0000 0.50240  0.53820  0.84590  Biso   1.000  H
  H323     1.0000 0.99760  0.03820  0.65410  Biso   1.000  H
  H324     1.0000 0.00240  0.03820  0.84590  Biso   1.000  H
  H325     1.0000 0.50240  0.46180  0.34590  Biso   1.000  H
  H326     1.0000 0.49760  0.46180  0.15410  Biso   1.000  H
  H327     1.0000 0.00240  0.96180  0.34590  Biso   1.000  H
  H328     1.0000 0.99760  0.96180  0.15410  Biso   1.000  H
  H329     1.0000 0.46440  0.47380  0.63530  Biso   1.000  H
  H330     1.0000 0.53560  0.47380  0.86470  Biso   1.000  H
  H331     1.0000 0.96440  0.97380  0.63530  Biso   1.000  H
  H332     1.0000 0.03560  0.97380  0.86470  Biso   1.000  H
  H333     1.0000 0.53560  0.52620  0.36470  Biso   1.000  H
  H334     1.0000 0.46440  0.52620  0.13530  Biso   1.000  H
  H335     1.0000 0.03560  0.02620  0.36470  Biso   1.000  H
  H336     1.0000 0.96440  0.02620  0.13530  Biso   1.000  H
  C185     1.0000 0.48550  0.71400  0.50900  Biso   1.000  C
  C186     1.0000 0.51450  0.71400  0.99100  Biso   1.000  C
  C187     1.0000 0.98550  0.21400  0.50900  Biso   1.000  C
  C188     1.0000 0.01450  0.21400  0.99100  Biso   1.000  C
  C189     1.0000 0.51450  0.28600  0.49100  Biso   1.000  C
  C190     1.0000 0.48550  0.28600  0.00900  Biso   1.000  C
  C191     1.0000 0.01450  0.78600  0.49100  Biso   1.000  C
  C192     1.0000 0.98550  0.78600  0.00900  Biso   1.000  C
  H337     1.0000 0.47810  0.72890  0.45270  Biso   1.000  H
  H338     1.0000 0.52190  0.72890  0.04730  Biso   1.000  H
  H339     1.0000 0.97810  0.22890  0.45270  Biso   1.000  H
  H340     1.0000 0.02190  0.22890  0.04730  Biso   1.000  H
  H341     1.0000 0.52190  0.27110  0.54730  Biso   1.000  H
  H342     1.0000 0.47810  0.27110  0.95270  Biso   1.000  H
  H343     1.0000 0.02190  0.77110  0.54730  Biso   1.000  H
  H344     1.0000 0.97810  0.77110  0.95270  Biso   1.000  H
  H345     1.0000 0.50770  0.72410  0.51860  Biso   1.000  H
  H346     1.0000 0.49230  0.72410  0.98140  Biso   1.000  H
  H347     1.0000 0.00770  0.22410  0.51860  Biso   1.000  H
  H348     1.0000 0.99230  0.22410  0.98140  Biso   1.000  H
  H349     1.0000 0.49230  0.27590  0.48140  Biso   1.000  H
  H350     1.0000 0.50770  0.27590  0.01860  Biso   1.000  H
  H351     1.0000 0.99230  0.77590  0.48140  Biso   1.000  H
  H352     1.0000 0.00770  0.77590  0.01860  Biso   1.000  H
  H353     1.0000 0.47620  0.77890  0.54150  Biso   1.000  H
  H354     1.0000 0.52380  0.77890  0.95850  Biso   1.000  H
  H355     1.0000 0.97620  0.27890  0.54150  Biso   1.000  H
  H356     1.0000 0.02380  0.27890  0.95850  Biso   1.000  H
  H357     1.0000 0.52380  0.22110  0.45850  Biso   1.000  H
  H358     1.0000 0.47620  0.22110  0.04150  Biso   1.000  H
  H359     1.0000 0.02380  0.72110  0.45850  Biso   1.000  H
  H360     1.0000 0.97620  0.72110  0.04150  Biso   1.000  H
  C193     1.0000 0.45520  0.21600  0.72530  Biso   1.000  C
  C194     1.0000 0.54480  0.21600  0.77470  Biso   1.000  C
  C195     1.0000 0.95520  0.71600  0.72530  Biso   1.000  C
  C196     1.0000 0.04480  0.71600  0.77470  Biso   1.000  C
  C197     1.0000 0.54480  0.78400  0.27470  Biso   1.000  C
  C198     1.0000 0.45520  0.78400  0.22530  Biso   1.000  C
  C199     1.0000 0.04480  0.28400  0.27470  Biso   1.000  C
  C200     1.0000 0.95520  0.28400  0.22530  Biso   1.000  C
  H361     1.0000 0.46040  0.29440  0.69650  Biso   1.000  H
  H362     1.0000 0.53960  0.29440  0.80350  Biso   1.000  H
  H363     1.0000 0.96040  0.79440  0.69650  Biso   1.000  H
  H364     1.0000 0.03960  0.79440  0.80350  Biso   1.000  H
  H365     1.0000 0.53960  0.70560  0.30350  Biso   1.000  H
  H366     1.0000 0.46040  0.70560  0.19650  Biso   1.000  H
  H367     1.0000 0.03960  0.20560  0.30350  Biso   1.000  H
  H368     1.0000 0.96040  0.20560  0.19650  Biso   1.000  H
  H369     1.0000 0.47190  0.15270  0.72800  Biso   1.000  H
  H370     1.0000 0.52810  0.15270  0.77200  Biso   1.000  H
  H371     1.0000 0.97190  0.65270  0.72800  Biso   1.000  H
  H372     1.0000 0.02810  0.65270  0.77200  Biso   1.000  H
  H373     1.0000 0.52810  0.84730  0.27200  Biso   1.000  H
  H374     1.0000 0.47190  0.84730  0.22800  Biso   1.000  H
  H375     1.0000 0.02810  0.34730  0.27200  Biso   1.000  H
  H376     1.0000 0.97190  0.34730  0.22800  Biso   1.000  H
  H377     1.0000 0.45180  0.24050  0.77940  Biso   1.000  H
  H378     1.0000 0.54820  0.24050  0.72060  Biso   1.000  H
  H379     1.0000 0.95180  0.74050  0.77940  Biso   1.000  H
  H380     1.0000 0.04820  0.74050  0.72060  Biso   1.000  H
  H381     1.0000 0.54820  0.75950  0.22060  Biso   1.000  H
  H382     1.0000 0.45180  0.75950  0.27940  Biso   1.000  H
  H383     1.0000 0.04820  0.25950  0.22060  Biso   1.000  H
  H384     1.0000 0.95180  0.25950  0.27940  Biso   1.000  H
  C201     1.0000 0.37200  0.77200  0.65800  Biso   1.000  C
  C202     1.0000 0.62800  0.77200  0.84200  Biso   1.000  C
  C203     1.0000 0.87200  0.27200  0.65800  Biso   1.000  C
  C204     1.0000 0.12800  0.27200  0.84200  Biso   1.000  C
  C205     1.0000 0.62800  0.22800  0.34200  Biso   1.000  C
  C206     1.0000 0.37200  0.22800  0.15800  Biso   1.000  C
  C207     1.0000 0.12800  0.72800  0.34200  Biso   1.000  C
  C208     1.0000 0.87200  0.72800  0.15800  Biso   1.000  C
  H385     1.0000 0.35650  0.83100  0.62990  Biso   1.000  H
  H386     1.0000 0.64350  0.83100  0.87010  Biso   1.000  H
  H387     1.0000 0.85650  0.33100  0.62990  Biso   1.000  H
  H388     1.0000 0.14350  0.33100  0.87010  Biso   1.000  H
  H389     1.0000 0.64350  0.16900  0.37010  Biso   1.000  H
  H390     1.0000 0.35650  0.16900  0.12990  Biso   1.000  H
  H391     1.0000 0.14350  0.66900  0.37010  Biso   1.000  H
  H392     1.0000 0.85650  0.66900  0.12990  Biso   1.000  H
  H393     1.0000 0.36200  0.69660  0.67850  Biso   1.000  H
  H394     1.0000 0.63800  0.69660  0.82150  Biso   1.000  H
  H395     1.0000 0.86200  0.19660  0.67850  Biso   1.000  H
  H396     1.0000 0.13800  0.19660  0.82150  Biso   1.000  H
  H397     1.0000 0.63800  0.30340  0.32150  Biso   1.000  H
  H398     1.0000 0.36200  0.30340  0.17850  Biso   1.000  H
  H399     1.0000 0.13800  0.80340  0.32150  Biso   1.000  H
  H400     1.0000 0.86200  0.80340  0.17850  Biso   1.000  H
  H401     1.0000 0.38550  0.74230  0.62020  Biso   1.000  H
  H402     1.0000 0.61450  0.74230  0.87980  Biso   1.000  H
  H403     1.0000 0.88550  0.24230  0.62020  Biso   1.000  H
  H404     1.0000 0.11450  0.24230  0.87980  Biso   1.000  H
  H405     1.0000 0.61450  0.25770  0.37980  Biso   1.000  H
  H406     1.0000 0.38550  0.25770  0.12020  Biso   1.000  H
  H407     1.0000 0.11450  0.75770  0.37980  Biso   1.000  H
  H408     1.0000 0.88550  0.75770  0.12020  Biso   1.000  H
  C209     1.0000 0.37780  0.87700  0.82440  Biso   1.000  C
  C210     1.0000 0.62220  0.87700  0.67560  Biso   1.000  C
  C211     1.0000 0.87780  0.37700  0.82440  Biso   1.000  C
  C212     1.0000 0.12220  0.37700  0.67560  Biso   1.000  C
  C213     1.0000 0.62220  0.12300  0.17560  Biso   1.000  C
  C214     1.0000 0.37780  0.12300  0.32440  Biso   1.000  C
  C215     1.0000 0.12220  0.62300  0.17560  Biso   1.000  C
  C216     1.0000 0.87780  0.62300  0.32440  Biso   1.000  C
  H409     1.0000 0.36610  0.79380  0.82490  Biso   1.000  H
  H410     1.0000 0.63390  0.79380  0.67510  Biso   1.000  H
  H411     1.0000 0.86610  0.29380  0.82490  Biso   1.000  H
  H412     1.0000 0.13390  0.29380  0.67510  Biso   1.000  H
  H413     1.0000 0.63390  0.20620  0.17510  Biso   1.000  H
  H414     1.0000 0.36610  0.20620  0.32490  Biso   1.000  H
  H415     1.0000 0.13390  0.70620  0.17510  Biso   1.000  H
  H416     1.0000 0.86610  0.70620  0.32490  Biso   1.000  H
  H417     1.0000 0.39300  0.87680  0.87310  Biso   1.000  H
  H418     1.0000 0.60700  0.87680  0.62690  Biso   1.000  H
  H419     1.0000 0.89300  0.37680  0.87310  Biso   1.000  H
  H420     1.0000 0.10700  0.37680  0.62690  Biso   1.000  H
  H421     1.0000 0.60700  0.12320  0.12690  Biso   1.000  H
  H422     1.0000 0.39300  0.12320  0.37310  Biso   1.000  H
  H423     1.0000 0.10700  0.62320  0.12690  Biso   1.000  H
  H424     1.0000 0.89300  0.62320  0.37310  Biso   1.000  H
  C217     1.0000 0.35520  0.99100  0.83280  Biso   1.000  C
  C218     1.0000 0.64480  0.99100  0.66720  Biso   1.000  C
  C219     1.0000 0.85520  0.49100  0.83280  Biso   1.000  C
  C220     1.0000 0.14480  0.49100  0.66720  Biso   1.000  C
  C221     1.0000 0.64480  0.00900  0.16720  Biso   1.000  C
  C222     1.0000 0.35520  0.00900  0.33280  Biso   1.000  C
  C223     1.0000 0.14480  0.50900  0.16720  Biso   1.000  C
  C224     1.0000 0.85520  0.50900  0.33280  Biso   1.000  C
  H425     1.0000 0.36660  0.07170  0.82490  Biso   1.000  H
  H426     1.0000 0.63340  0.07170  0.67510  Biso   1.000  H
  H427     1.0000 0.86660  0.57170  0.82490  Biso   1.000  H
  H428     1.0000 0.13340  0.57170  0.67510  Biso   1.000  H
  H429     1.0000 0.63340  0.92830  0.17510  Biso   1.000  H
  H430     1.0000 0.36660  0.92830  0.32490  Biso   1.000  H
  H431     1.0000 0.13340  0.42830  0.17510  Biso   1.000  H
  H432     1.0000 0.86660  0.42830  0.32490  Biso   1.000  H
  H433     1.0000 0.33930  0.98330  0.78570  Biso   1.000  H
  H434     1.0000 0.66070  0.98330  0.71430  Biso   1.000  H
  H435     1.0000 0.83930  0.48330  0.78570  Biso   1.000  H
  H436     1.0000 0.16070  0.48330  0.71430  Biso   1.000  H
  H437     1.0000 0.66070  0.01670  0.21430  Biso   1.000  H
  H438     1.0000 0.33930  0.01670  0.28570  Biso   1.000  H
  H439     1.0000 0.16070  0.51670  0.21430  Biso   1.000  H
  H440     1.0000 0.83930  0.51670  0.28570  Biso   1.000  H
  H441     1.0000 0.33490  0.93820  0.93370  Biso   1.000  H
  H442     1.0000 0.66510  0.93820  0.56630  Biso   1.000  H
  H443     1.0000 0.83490  0.43820  0.93370  Biso   1.000  H
  H444     1.0000 0.16510  0.43820  0.56630  Biso   1.000  H
  H445     1.0000 0.66510  0.06180  0.06630  Biso   1.000  H
  H446     1.0000 0.33490  0.06180  0.43370  Biso   1.000  H
  H447     1.0000 0.16510  0.56180  0.06630  Biso   1.000  H
  H448     1.0000 0.83490  0.56180  0.43370  Biso   1.000  H
  H449     1.0000 0.34950  0.08210  0.94120  Biso   1.000  H
  H450     1.0000 0.65050  0.08210  0.55880  Biso   1.000  H
  H451     1.0000 0.84950  0.58210  0.94120  Biso   1.000  H
  H452     1.0000 0.15050  0.58210  0.55880  Biso   1.000  H
  H453     1.0000 0.65050  0.91790  0.05880  Biso   1.000  H
  H454     1.0000 0.34950  0.91790  0.44120  Biso   1.000  H
  H455     1.0000 0.15050  0.41790  0.05880  Biso   1.000  H
  H456     1.0000 0.84950  0.41790  0.44120  Biso   1.000  H
  Si25     1.0000 0.47670  0.63030  0.51340  Biso   1.000  Si
  Si26     1.0000 0.52330  0.63030  0.98660  Biso   1.000  Si
  Si27     1.0000 0.97670  0.13030  0.51340  Biso   1.000  Si
  Si28     1.0000 0.02330  0.13030  0.98660  Biso   1.000  Si
  Si29     1.0000 0.52330  0.36970  0.48660  Biso   1.000  Si
  Si30     1.0000 0.47670  0.36970  0.01340  Biso   1.000  Si
  Si31     1.0000 0.02330  0.86970  0.48660  Biso   1.000  Si
  Si32     1.0000 0.97670  0.86970  0.01340  Biso   1.000  Si
  H457     1.0000 0.39170  0.47640  0.36700  Biso   1.000  H
  H458     1.0000 0.60830  0.47640  0.13300  Biso   1.000  H
  H459     1.0000 0.89170  0.97640  0.36700  Biso   1.000  H
  H460     1.0000 0.10830  0.97640  0.13300  Biso   1.000  H
  H461     1.0000 0.60830  0.52360  0.63300  Biso   1.000  H
  H462     1.0000 0.39170  0.52360  0.86700  Biso   1.000  H
  H463     1.0000 0.10830  0.02360  0.63300  Biso   1.000  H
  H464     1.0000 0.89170  0.02360  0.86700  Biso   1.000  H
  H465     1.0000 0.38010  0.39840  0.43960  Biso   1.000  H
  H466     1.0000 0.61990  0.39840  0.06040  Biso   1.000  H
  H467     1.0000 0.88010  0.89840  0.43960  Biso   1.000  H
  H468     1.0000 0.11990  0.89840  0.06040  Biso   1.000  H
  H469     1.0000 0.61990  0.60160  0.56040  Biso   1.000  H
  H470     1.0000 0.38010  0.60160  0.93960  Biso   1.000  H
  H471     1.0000 0.11990  0.10160  0.56040  Biso   1.000  H
  H472     1.0000 0.88010  0.10160  0.93960  Biso   1.000  H
  C225     1.0000 0.41350  0.53900  0.47900  Biso   1.000  C
  C226     1.0000 0.58650  0.53900  0.02100  Biso   1.000  C
  C227     1.0000 0.91350  0.03900  0.47900  Biso   1.000  C
  C228     1.0000 0.08650  0.03900  0.02100  Biso   1.000  C
  C229     1.0000 0.58650  0.46100  0.52100  Biso   1.000  C
  C230     1.0000 0.41350  0.46100  0.97900  Biso   1.000  C
  C231     1.0000 0.08650  0.96100  0.52100  Biso   1.000  C
  C232     1.0000 0.91350  0.96100  0.97900  Biso   1.000  C
  H473     1.0000 0.41140  0.63570  0.47940  Biso   1.000  H
  H474     1.0000 0.58860  0.63570  0.02060  Biso   1.000  H
  H475     1.0000 0.91140  0.13570  0.47940  Biso   1.000  H
  H476     1.0000 0.08860  0.13570  0.02060  Biso   1.000  H
  H477     1.0000 0.58860  0.36430  0.52060  Biso   1.000  H
  H478     1.0000 0.41140  0.36430  0.97940  Biso   1.000  H
  H479     1.0000 0.08860  0.86430  0.52060  Biso   1.000  H
  H480     1.0000 0.91140  0.86430  0.97940  Biso   1.000  H
  H481     1.0000 0.41100  0.50830  0.53310  Biso   1.000  H
  H482     1.0000 0.58900  0.50830  0.96690  Biso   1.000  H
  H483     1.0000 0.91100  0.00830  0.53310  Biso   1.000  H
  H484     1.0000 0.08900  0.00830  0.96690  Biso   1.000  H
  H485     1.0000 0.58900  0.49170  0.46690  Biso   1.000  H
  H486     1.0000 0.41100  0.49170  0.03310  Biso   1.000  H
  H487     1.0000 0.08900  0.99170  0.46690  Biso   1.000  H
  H488     1.0000 0.91100  0.99170  0.03310  Biso   1.000  H
  C233     1.0000 0.44690  0.50900  0.46700  Biso   1.000  C
  C234     1.0000 0.55310  0.50900  0.03300  Biso   1.000  C
  C235     1.0000 0.94690  0.00900  0.46700  Biso   1.000  C
  C236     1.0000 0.05310  0.00900  0.03300  Biso   1.000  C
  C237     1.0000 0.55310  0.49100  0.53300  Biso   1.000  C
  C238     1.0000 0.44690  0.49100  0.96700  Biso   1.000  C
  C239     1.0000 0.05310  0.99100  0.53300  Biso   1.000  C
  C240     1.0000 0.94690  0.99100  0.96700  Biso   1.000  C
  H489     1.0000 0.44790  0.50510  0.40900  Biso   1.000  H
  H490     1.0000 0.55210  0.50510  0.09100  Biso   1.000  H
  H491     1.0000 0.94790  0.00510  0.40900  Biso   1.000  H
  H492     1.0000 0.05210  0.00510  0.09100  Biso   1.000  H
  H493     1.0000 0.55210  0.49490  0.59100  Biso   1.000  H
  H494     1.0000 0.44790  0.49490  0.90900  Biso   1.000  H
  H495     1.0000 0.05210  0.99490  0.59100  Biso   1.000  H
  H496     1.0000 0.94790  0.99490  0.90900  Biso   1.000  H
  H497     1.0000 0.45230  0.42140  0.48940  Biso   1.000  H
  H498     1.0000 0.54770  0.42140  0.01060  Biso   1.000  H
  H499     1.0000 0.95230  0.92140  0.48940  Biso   1.000  H
  H500     1.0000 0.04770  0.92140  0.01060  Biso   1.000  H
  H501     1.0000 0.54770  0.57860  0.51060  Biso   1.000  H
  H502     1.0000 0.45230  0.57860  0.98940  Biso   1.000  H
  H503     1.0000 0.04770  0.07860  0.51060  Biso   1.000  H
  H504     1.0000 0.95230  0.07860  0.98940  Biso   1.000  H
  C241     1.0000 0.48180  0.67100  0.60500  Biso   1.000  C
  C242     1.0000 0.51820  0.67100  0.89500  Biso   1.000  C
  C243     1.0000 0.98180  0.17100  0.60500  Biso   1.000  C
  C244     1.0000 0.01820  0.17100  0.89500  Biso   1.000  C
  C245     1.0000 0.51820  0.32900  0.39500  Biso   1.000  C
  C246     1.0000 0.48180  0.32900  0.10500  Biso   1.000  C
  C247     1.0000 0.01820  0.82900  0.39500  Biso   1.000  C
  C248     1.0000 0.98180  0.82900  0.10500  Biso   1.000  C
  H505     1.0000 0.49660  0.74260  0.61330  Biso   1.000  H
  H506     1.0000 0.50340  0.74260  0.88670  Biso   1.000  H
  H507     1.0000 0.99660  0.24260  0.61330  Biso   1.000  H
  H508     1.0000 0.00340  0.24260  0.88670  Biso   1.000  H
  H509     1.0000 0.50340  0.25740  0.38670  Biso   1.000  H
  H510     1.0000 0.49660  0.25740  0.11330  Biso   1.000  H
  H511     1.0000 0.00340  0.75740  0.38670  Biso   1.000  H
  H512     1.0000 0.99660  0.75740  0.11330  Biso   1.000  H
  H513     1.0000 0.48960  0.59500  0.63670  Biso   1.000  H
  H514     1.0000 0.51040  0.59500  0.86330  Biso   1.000  H
  H515     1.0000 0.98960  0.09500  0.63670  Biso   1.000  H
  H516     1.0000 0.01040  0.09500  0.86330  Biso   1.000  H
  H517     1.0000 0.51040  0.40500  0.36330  Biso   1.000  H
  H518     1.0000 0.48960  0.40500  0.13670  Biso   1.000  H
  H519     1.0000 0.01040  0.90500  0.36330  Biso   1.000  H
  H520     1.0000 0.98960  0.90500  0.13670  Biso   1.000  H
  H521     1.0000 0.46240  0.69920  0.62160  Biso   1.000  H
  H522     1.0000 0.53760  0.69920  0.87840  Biso   1.000  H
  H523     1.0000 0.96240  0.19920  0.62160  Biso   1.000  H
  H524     1.0000 0.03760  0.19920  0.87840  Biso   1.000  H
  H525     1.0000 0.53760  0.30080  0.37840  Biso   1.000  H
  H526     1.0000 0.46240  0.30080  0.12160  Biso   1.000  H
  H527     1.0000 0.03760  0.80080  0.37840  Biso   1.000  H
  H528     1.0000 0.96240  0.80080  0.12160  Biso   1.000  H
  C249     1.0000 0.48280  0.77000  0.47800  Biso   1.000  C
  C250     1.0000 0.51720  0.77000  0.02200  Biso   1.000  C
  C251     1.0000 0.98280  0.27000  0.47800  Biso   1.000  C
  C252     1.0000 0.01720  0.27000  0.02200  Biso   1.000  C
  C253     1.0000 0.51720  0.23000  0.52200  Biso   1.000  C
  C254     1.0000 0.48280  0.23000  0.97800  Biso   1.000  C
  C255     1.0000 0.01720  0.73000  0.52200  Biso   1.000  C
  C256     1.0000 0.98280  0.73000  0.97800  Biso   1.000  C
  H529     1.0000 0.46340  0.81180  0.45690  Biso   1.000  H
  H530     1.0000 0.53660  0.81180  0.04310  Biso   1.000  H
  H531     1.0000 0.96340  0.31180  0.45690  Biso   1.000  H
  H532     1.0000 0.03660  0.31180  0.04310  Biso   1.000  H
  H533     1.0000 0.53660  0.18820  0.54310  Biso   1.000  H
  H534     1.0000 0.46340  0.18820  0.95690  Biso   1.000  H
  H535     1.0000 0.03660  0.68820  0.54310  Biso   1.000  H
  H536     1.0000 0.96340  0.68820  0.95690  Biso   1.000  H
  H537     1.0000 0.49520  0.76020  0.43430  Biso   1.000  H
  H538     1.0000 0.50480  0.76020  0.06570  Biso   1.000  H
  H539     1.0000 0.99520  0.26020  0.43430  Biso   1.000  H
  H540     1.0000 0.00480  0.26020  0.06570  Biso   1.000  H
  H541     1.0000 0.50480  0.23980  0.56570  Biso   1.000  H
  H542     1.0000 0.49520  0.23980  0.93430  Biso   1.000  H
  H543     1.0000 0.00480  0.73980  0.56570  Biso   1.000  H
  H544     1.0000 0.99520  0.73980  0.93430  Biso   1.000  H
  H545     1.0000 0.49370  0.82490  0.51980  Biso   1.000  H
  H546     1.0000 0.50630  0.82490  0.98020  Biso   1.000  H
  H547     1.0000 0.99370  0.32490  0.51980  Biso   1.000  H
  H548     1.0000 0.00630  0.32490  0.98020  Biso   1.000  H
  H549     1.0000 0.50630  0.17510  0.48020  Biso   1.000  H
  H550     1.0000 0.49370  0.17510  0.01980  Biso   1.000  H
  H551     1.0000 0.00630  0.67510  0.48020  Biso   1.000  H
  H552     1.0000 0.99370  0.67510  0.01980  Biso   1.000  H
