data_image0
_cell_length_a       18.1903
_cell_length_b       18.1903
_cell_length_c       72.844
_cell_angle_alpha    90
_cell_angle_beta     90
_cell_angle_gamma    120

_symmetry_space_group_name_H-M    "P 1"
_symmetry_int_tables_number       1

loop_
  _symmetry_equiv_pos_as_xyz
  'x, y, z'

loop_
  _atom_site_label
  _atom_site_occupancy
  _atom_site_fract_x
  _atom_site_fract_y
  _atom_site_fract_z
  _atom_site_thermal_displace_type
  _atom_site_B_iso_or_equiv
  _atom_site_type_symbol
  Cu1      1.0000 0.20670  0.38810  0.57004  Biso   1.000  Cu
  Cu2      1.0000 0.18140  0.79330  0.57004  Biso   1.000  Cu
  Cu3      1.0000 0.61190  0.81860  0.57004  Biso   1.000  Cu
  Cu4      1.0000 0.38810  0.20670  0.92996  Biso   1.000  Cu
  Cu5      1.0000 0.81860  0.61190  0.92996  Biso   1.000  Cu
  Cu6      1.0000 0.79330  0.18140  0.92996  Biso   1.000  Cu
  Cu7      1.0000 0.87337  0.72143  0.90337  Biso   1.000  Cu
  Cu8      1.0000 0.84807  0.12663  0.90337  Biso   1.000  Cu
  Cu9      1.0000 0.27857  0.15193  0.90337  Biso   1.000  Cu
  Cu10     1.0000 0.05477  0.54003  0.26329  Biso   1.000  Cu
  Cu11     1.0000 0.48527  0.94523  0.26329  Biso   1.000  Cu
  Cu12     1.0000 0.45997  0.51473  0.26329  Biso   1.000  Cu
  Cu13     1.0000 0.54003  0.05477  0.23671  Biso   1.000  Cu
  Cu14     1.0000 0.51473  0.45997  0.23671  Biso   1.000  Cu
  Cu15     1.0000 0.94523  0.48527  0.23671  Biso   1.000  Cu
  Cu16     1.0000 0.72143  0.87337  0.59663  Biso   1.000  Cu
  Cu17     1.0000 0.15193  0.27857  0.59663  Biso   1.000  Cu
  Cu18     1.0000 0.12663  0.84807  0.59663  Biso   1.000  Cu
  Cu19     1.0000 0.79330  0.61190  0.42996  Biso   1.000  Cu
  Cu20     1.0000 0.81860  0.20670  0.42996  Biso   1.000  Cu
  Cu21     1.0000 0.38810  0.18140  0.42996  Biso   1.000  Cu
  Cu22     1.0000 0.61190  0.79330  0.07004  Biso   1.000  Cu
  Cu23     1.0000 0.18140  0.38810  0.07004  Biso   1.000  Cu
  Cu24     1.0000 0.20670  0.81860  0.07004  Biso   1.000  Cu
  Cu25     1.0000 0.45997  0.94523  0.76329  Biso   1.000  Cu
  Cu26     1.0000 0.48527  0.54003  0.76329  Biso   1.000  Cu
  Cu27     1.0000 0.05477  0.51473  0.76329  Biso   1.000  Cu
  Cu28     1.0000 0.27857  0.12663  0.40337  Biso   1.000  Cu
  Cu29     1.0000 0.84807  0.72143  0.40337  Biso   1.000  Cu
  Cu30     1.0000 0.87337  0.15193  0.40337  Biso   1.000  Cu
  Cu31     1.0000 0.12663  0.27857  0.09663  Biso   1.000  Cu
  Cu32     1.0000 0.15193  0.87337  0.09663  Biso   1.000  Cu
  Cu33     1.0000 0.72143  0.84807  0.09663  Biso   1.000  Cu
  Cu34     1.0000 0.94523  0.45997  0.73671  Biso   1.000  Cu
  Cu35     1.0000 0.51473  0.05477  0.73671  Biso   1.000  Cu
  Cu36     1.0000 0.54003  0.48527  0.73671  Biso   1.000  Cu
  C1       1.0000 0.56510  0.47850  0.66219  Biso   1.000  C
  C2       1.0000 0.91340  0.43490  0.66219  Biso   1.000  C
  C3       1.0000 0.52150  0.08660  0.66219  Biso   1.000  C
  C4       1.0000 0.47850  0.56510  0.83781  Biso   1.000  C
  C5       1.0000 0.08660  0.52150  0.83781  Biso   1.000  C
  C6       1.0000 0.43490  0.91340  0.83781  Biso   1.000  C
  C7       1.0000 0.23177  0.81183  0.99552  Biso   1.000  C
  C8       1.0000 0.58007  0.76823  0.99552  Biso   1.000  C
  C9       1.0000 0.18817  0.41993  0.99552  Biso   1.000  C
  C10      1.0000 0.14517  0.89843  0.17114  Biso   1.000  C
  C11      1.0000 0.75327  0.85483  0.17114  Biso   1.000  C
  C12      1.0000 0.10157  0.24673  0.17114  Biso   1.000  C
  C13      1.0000 0.89843  0.14517  0.32886  Biso   1.000  C
  C14      1.0000 0.24673  0.10157  0.32886  Biso   1.000  C
  C15      1.0000 0.85483  0.75327  0.32886  Biso   1.000  C
  C16      1.0000 0.81183  0.23177  0.50448  Biso   1.000  C
  C17      1.0000 0.41993  0.18817  0.50448  Biso   1.000  C
  C18      1.0000 0.76823  0.58007  0.50448  Biso   1.000  C
  C19      1.0000 0.43490  0.52150  0.33781  Biso   1.000  C
  C20      1.0000 0.08660  0.56510  0.33781  Biso   1.000  C
  C21      1.0000 0.47850  0.91340  0.33781  Biso   1.000  C
  C22      1.0000 0.52150  0.43490  0.16219  Biso   1.000  C
  C23      1.0000 0.91340  0.47850  0.16219  Biso   1.000  C
  C24      1.0000 0.56510  0.08660  0.16219  Biso   1.000  C
  C25      1.0000 0.10157  0.85483  0.67114  Biso   1.000  C
  C26      1.0000 0.75327  0.89843  0.67114  Biso   1.000  C
  C27      1.0000 0.14517  0.24673  0.67114  Biso   1.000  C
  C28      1.0000 0.18817  0.76823  0.49552  Biso   1.000  C
  C29      1.0000 0.58007  0.81183  0.49552  Biso   1.000  C
  C30      1.0000 0.23177  0.41993  0.49552  Biso   1.000  C
  C31      1.0000 0.76823  0.18817  0.00448  Biso   1.000  C
  C32      1.0000 0.41993  0.23177  0.00448  Biso   1.000  C
  C33      1.0000 0.81183  0.58007  0.00448  Biso   1.000  C
  C34      1.0000 0.85483  0.10157  0.82886  Biso   1.000  C
  C35      1.0000 0.24673  0.14517  0.82886  Biso   1.000  C
  C36      1.0000 0.89843  0.75327  0.82886  Biso   1.000  C
  C37      1.0000 0.50890  0.51812  0.63194  Biso   1.000  C
  C38      1.0000 0.00922  0.49110  0.63194  Biso   1.000  C
  C39      1.0000 0.48188  0.99078  0.63194  Biso   1.000  C
  C40      1.0000 0.51812  0.50890  0.86806  Biso   1.000  C
  C41      1.0000 0.99078  0.48188  0.86806  Biso   1.000  C
  C42      1.0000 0.49110  0.00922  0.86806  Biso   1.000  C
  C43      1.0000 0.17557  0.85145  0.96527  Biso   1.000  C
  C44      1.0000 0.67589  0.82443  0.96527  Biso   1.000  C
  C45      1.0000 0.14855  0.32411  0.96527  Biso   1.000  C
  C46      1.0000 0.18479  0.84223  0.20139  Biso   1.000  C
  C47      1.0000 0.65745  0.81521  0.20139  Biso   1.000  C
  C48      1.0000 0.15777  0.34255  0.20139  Biso   1.000  C
  C49      1.0000 0.84223  0.18479  0.29861  Biso   1.000  C
  C50      1.0000 0.34255  0.15777  0.29861  Biso   1.000  C
  C51      1.0000 0.81521  0.65745  0.29861  Biso   1.000  C
  C52      1.0000 0.85145  0.17557  0.53473  Biso   1.000  C
  C53      1.0000 0.32411  0.14855  0.53473  Biso   1.000  C
  C54      1.0000 0.82443  0.67589  0.53473  Biso   1.000  C
  C55      1.0000 0.49110  0.48188  0.36806  Biso   1.000  C
  C56      1.0000 0.99078  0.50890  0.36806  Biso   1.000  C
  C57      1.0000 0.51812  0.00922  0.36806  Biso   1.000  C
  C58      1.0000 0.48188  0.49110  0.13194  Biso   1.000  C
  C59      1.0000 0.00922  0.51812  0.13194  Biso   1.000  C
  C60      1.0000 0.50890  0.99078  0.13194  Biso   1.000  C
  C61      1.0000 0.15777  0.81521  0.70139  Biso   1.000  C
  C62      1.0000 0.65745  0.84223  0.70139  Biso   1.000  C
  C63      1.0000 0.18479  0.34255  0.70139  Biso   1.000  C
  C64      1.0000 0.14855  0.82443  0.46527  Biso   1.000  C
  C65      1.0000 0.67589  0.85145  0.46527  Biso   1.000  C
  C66      1.0000 0.17557  0.32411  0.46527  Biso   1.000  C
  C67      1.0000 0.82443  0.14855  0.03473  Biso   1.000  C
  C68      1.0000 0.32411  0.17557  0.03473  Biso   1.000  C
  C69      1.0000 0.85145  0.67589  0.03473  Biso   1.000  C
  C70      1.0000 0.81521  0.15777  0.79861  Biso   1.000  C
  C71      1.0000 0.34255  0.18479  0.79861  Biso   1.000  C
  C72      1.0000 0.84223  0.65745  0.79861  Biso   1.000  C
  C73      1.0000 0.43051  0.46055  0.62369  Biso   1.000  C
  C74      1.0000 0.03004  0.56949  0.62369  Biso   1.000  C
  C75      1.0000 0.53945  0.96996  0.62369  Biso   1.000  C
  C76      1.0000 0.46055  0.43051  0.87631  Biso   1.000  C
  C77      1.0000 0.96996  0.53945  0.87631  Biso   1.000  C
  C78      1.0000 0.56949  0.03004  0.87631  Biso   1.000  C
  C79      1.0000 0.09718  0.79388  0.95702  Biso   1.000  C
  C80      1.0000 0.69671  0.90282  0.95702  Biso   1.000  C
  C81      1.0000 0.20612  0.30329  0.95702  Biso   1.000  C
  C82      1.0000 0.12722  0.76384  0.20964  Biso   1.000  C
  C83      1.0000 0.63663  0.87278  0.20964  Biso   1.000  C
  C84      1.0000 0.23616  0.36337  0.20964  Biso   1.000  C
  C85      1.0000 0.76384  0.12722  0.29036  Biso   1.000  C
  C86      1.0000 0.36337  0.23616  0.29036  Biso   1.000  C
  C87      1.0000 0.87278  0.63663  0.29036  Biso   1.000  C
  C88      1.0000 0.79388  0.09718  0.54298  Biso   1.000  C
  C89      1.0000 0.30329  0.20612  0.54298  Biso   1.000  C
  C90      1.0000 0.90282  0.69671  0.54298  Biso   1.000  C
  C91      1.0000 0.56949  0.53945  0.37631  Biso   1.000  C
  C92      1.0000 0.96996  0.43051  0.37631  Biso   1.000  C
  C93      1.0000 0.46055  0.03004  0.37631  Biso   1.000  C
  C94      1.0000 0.53945  0.56949  0.12369  Biso   1.000  C
  C95      1.0000 0.03004  0.46055  0.12369  Biso   1.000  C
  C96      1.0000 0.43051  0.96996  0.12369  Biso   1.000  C
  C97      1.0000 0.23616  0.87278  0.70964  Biso   1.000  C
  C98      1.0000 0.63663  0.76384  0.70964  Biso   1.000  C
  C99      1.0000 0.12722  0.36337  0.70964  Biso   1.000  C
  C100     1.0000 0.20612  0.90282  0.45702  Biso   1.000  C
  C101     1.0000 0.69671  0.79388  0.45702  Biso   1.000  C
  C102     1.0000 0.09718  0.30329  0.45702  Biso   1.000  C
  C103     1.0000 0.90282  0.20612  0.04298  Biso   1.000  C
  C104     1.0000 0.30329  0.09718  0.04298  Biso   1.000  C
  C105     1.0000 0.79388  0.69671  0.04298  Biso   1.000  C
  C106     1.0000 0.87278  0.23616  0.79036  Biso   1.000  C
  C107     1.0000 0.36337  0.12722  0.79036  Biso   1.000  C
  C108     1.0000 0.76384  0.63663  0.79036  Biso   1.000  C
  C109     1.0000 0.40357  0.48426  0.60768  Biso   1.000  C
  C110     1.0000 0.08069  0.59643  0.60768  Biso   1.000  C
  C111     1.0000 0.51574  0.91931  0.60768  Biso   1.000  C
  C112     1.0000 0.48426  0.40357  0.89232  Biso   1.000  C
  C113     1.0000 0.91931  0.51574  0.89232  Biso   1.000  C
  C114     1.0000 0.59643  0.08069  0.89232  Biso   1.000  C
  C115     1.0000 0.07024  0.81759  0.94101  Biso   1.000  C
  C116     1.0000 0.74736  0.92976  0.94101  Biso   1.000  C
  C117     1.0000 0.18241  0.25264  0.94101  Biso   1.000  C
  C118     1.0000 0.15093  0.73690  0.22565  Biso   1.000  C
  C119     1.0000 0.58598  0.84907  0.22565  Biso   1.000  C
  C120     1.0000 0.26310  0.41402  0.22565  Biso   1.000  C
  C121     1.0000 0.73690  0.15093  0.27435  Biso   1.000  C
  C122     1.0000 0.41402  0.26310  0.27435  Biso   1.000  C
  C123     1.0000 0.84907  0.58598  0.27435  Biso   1.000  C
  C124     1.0000 0.81759  0.07024  0.55899  Biso   1.000  C
  C125     1.0000 0.25264  0.18241  0.55899  Biso   1.000  C
  C126     1.0000 0.92976  0.74736  0.55899  Biso   1.000  C
  C127     1.0000 0.59643  0.51574  0.39232  Biso   1.000  C
  C128     1.0000 0.91931  0.40357  0.39232  Biso   1.000  C
  C129     1.0000 0.48426  0.08069  0.39232  Biso   1.000  C
  C130     1.0000 0.51574  0.59643  0.10768  Biso   1.000  C
  C131     1.0000 0.08069  0.48426  0.10768  Biso   1.000  C
  C132     1.0000 0.40357  0.91931  0.10768  Biso   1.000  C
  C133     1.0000 0.26310  0.84907  0.72565  Biso   1.000  C
  C134     1.0000 0.58598  0.73690  0.72565  Biso   1.000  C
  C135     1.0000 0.15093  0.41402  0.72565  Biso   1.000  C
  C136     1.0000 0.18241  0.92976  0.44101  Biso   1.000  C
  C137     1.0000 0.74736  0.81759  0.44101  Biso   1.000  C
  C138     1.0000 0.07024  0.25264  0.44101  Biso   1.000  C
  C139     1.0000 0.92976  0.18241  0.05899  Biso   1.000  C
  C140     1.0000 0.25264  0.07024  0.05899  Biso   1.000  C
  C141     1.0000 0.81759  0.74736  0.05899  Biso   1.000  C
  C142     1.0000 0.84907  0.26310  0.77435  Biso   1.000  C
  C143     1.0000 0.41402  0.15093  0.77435  Biso   1.000  C
  C144     1.0000 0.73690  0.58598  0.77435  Biso   1.000  C
  C145     1.0000 0.45500  0.56554  0.59991  Biso   1.000  C
  C146     1.0000 0.11054  0.54500  0.59991  Biso   1.000  C
  C147     1.0000 0.43446  0.88946  0.59991  Biso   1.000  C
  C148     1.0000 0.56554  0.45500  0.90009  Biso   1.000  C
  C149     1.0000 0.88946  0.43446  0.90009  Biso   1.000  C
  C150     1.0000 0.54500  0.11054  0.90009  Biso   1.000  C
  C151     1.0000 0.12167  0.89887  0.93324  Biso   1.000  C
  C152     1.0000 0.77721  0.87833  0.93324  Biso   1.000  C
  C153     1.0000 0.10113  0.22279  0.93324  Biso   1.000  C
  C154     1.0000 0.23221  0.78833  0.23342  Biso   1.000  C
  C155     1.0000 0.55613  0.76779  0.23342  Biso   1.000  C
  C156     1.0000 0.21167  0.44387  0.23342  Biso   1.000  C
  C157     1.0000 0.78833  0.23221  0.26658  Biso   1.000  C
  C158     1.0000 0.44387  0.21167  0.26658  Biso   1.000  C
  C159     1.0000 0.76779  0.55613  0.26658  Biso   1.000  C
  C160     1.0000 0.89887  0.12167  0.56676  Biso   1.000  C
  C161     1.0000 0.22279  0.10113  0.56676  Biso   1.000  C
  C162     1.0000 0.87833  0.77721  0.56676  Biso   1.000  C
  C163     1.0000 0.54500  0.43446  0.40009  Biso   1.000  C
  C164     1.0000 0.88946  0.45500  0.40009  Biso   1.000  C
  C165     1.0000 0.56554  0.11054  0.40009  Biso   1.000  C
  C166     1.0000 0.43446  0.54500  0.09991  Biso   1.000  C
  C167     1.0000 0.11054  0.56554  0.09991  Biso   1.000  C
  C168     1.0000 0.45500  0.88946  0.09991  Biso   1.000  C
  C169     1.0000 0.21167  0.76779  0.73342  Biso   1.000  C
  C170     1.0000 0.55613  0.78833  0.73342  Biso   1.000  C
  C171     1.0000 0.23221  0.44387  0.73342  Biso   1.000  C
  C172     1.0000 0.10113  0.87833  0.43324  Biso   1.000  C
  C173     1.0000 0.77721  0.89887  0.43324  Biso   1.000  C
  C174     1.0000 0.12167  0.22279  0.43324  Biso   1.000  C
  C175     1.0000 0.87833  0.10113  0.06676  Biso   1.000  C
  C176     1.0000 0.22279  0.12167  0.06676  Biso   1.000  C
  C177     1.0000 0.89887  0.77721  0.06676  Biso   1.000  C
  C178     1.0000 0.76779  0.21167  0.76658  Biso   1.000  C
  C179     1.0000 0.44387  0.23221  0.76658  Biso   1.000  C
  C180     1.0000 0.78833  0.55613  0.76658  Biso   1.000  C
  C181     1.0000 0.53344  0.62312  0.60816  Biso   1.000  C
  C182     1.0000 0.08968  0.46656  0.60816  Biso   1.000  C
  C183     1.0000 0.37688  0.91032  0.60816  Biso   1.000  C
  C184     1.0000 0.62312  0.53344  0.89184  Biso   1.000  C
  C185     1.0000 0.91032  0.37688  0.89184  Biso   1.000  C
  C186     1.0000 0.46656  0.08968  0.89184  Biso   1.000  C
  C187     1.0000 0.20011  0.95645  0.94149  Biso   1.000  C
  C188     1.0000 0.75635  0.79989  0.94149  Biso   1.000  C
  C189     1.0000 0.04355  0.24365  0.94149  Biso   1.000  C
  C190     1.0000 0.28979  0.86677  0.22517  Biso   1.000  C
  C191     1.0000 0.57699  0.71021  0.22517  Biso   1.000  C
  C192     1.0000 0.13323  0.42301  0.22517  Biso   1.000  C
  C193     1.0000 0.86677  0.28979  0.27483  Biso   1.000  C
  C194     1.0000 0.42301  0.13323  0.27483  Biso   1.000  C
  C195     1.0000 0.71021  0.57699  0.27483  Biso   1.000  C
  C196     1.0000 0.95645  0.20011  0.55851  Biso   1.000  C
  C197     1.0000 0.24365  0.04355  0.55851  Biso   1.000  C
  C198     1.0000 0.79989  0.75635  0.55851  Biso   1.000  C
  C199     1.0000 0.46656  0.37688  0.39184  Biso   1.000  C
  C200     1.0000 0.91032  0.53344  0.39184  Biso   1.000  C
  C201     1.0000 0.62312  0.08968  0.39184  Biso   1.000  C
  C202     1.0000 0.37688  0.46656  0.10816  Biso   1.000  C
  C203     1.0000 0.08968  0.62312  0.10816  Biso   1.000  C
  C204     1.0000 0.53344  0.91032  0.10816  Biso   1.000  C
  C205     1.0000 0.13323  0.71021  0.72517  Biso   1.000  C
  C206     1.0000 0.57699  0.86677  0.72517  Biso   1.000  C
  C207     1.0000 0.28979  0.42301  0.72517  Biso   1.000  C
  C208     1.0000 0.04355  0.79989  0.44149  Biso   1.000  C
  C209     1.0000 0.75635  0.95645  0.44149  Biso   1.000  C
  C210     1.0000 0.20011  0.24365  0.44149  Biso   1.000  C
  C211     1.0000 0.79989  0.04355  0.05851  Biso   1.000  C
  C212     1.0000 0.24365  0.20011  0.05851  Biso   1.000  C
  C213     1.0000 0.95645  0.75635  0.05851  Biso   1.000  C
  C214     1.0000 0.71021  0.13323  0.77483  Biso   1.000  C
  C215     1.0000 0.42301  0.28979  0.77483  Biso   1.000  C
  C216     1.0000 0.86677  0.57699  0.77483  Biso   1.000  C
  C217     1.0000 0.56038  0.59941  0.62418  Biso   1.000  C
  C218     1.0000 0.03903  0.43962  0.62418  Biso   1.000  C
  C219     1.0000 0.40059  0.96097  0.62418  Biso   1.000  C
  C220     1.0000 0.59941  0.56038  0.87582  Biso   1.000  C
  C221     1.0000 0.96097  0.40059  0.87582  Biso   1.000  C
  C222     1.0000 0.43962  0.03903  0.87582  Biso   1.000  C
  C223     1.0000 0.22705  0.93274  0.95751  Biso   1.000  C
  C224     1.0000 0.70570  0.77295  0.95751  Biso   1.000  C
  C225     1.0000 0.06726  0.29430  0.95751  Biso   1.000  C
  C226     1.0000 0.26608  0.89371  0.20915  Biso   1.000  C
  C227     1.0000 0.62764  0.73392  0.20915  Biso   1.000  C
  C228     1.0000 0.10629  0.37236  0.20915  Biso   1.000  C
  C229     1.0000 0.89371  0.26608  0.29085  Biso   1.000  C
  C230     1.0000 0.37236  0.10629  0.29085  Biso   1.000  C
  C231     1.0000 0.73392  0.62764  0.29085  Biso   1.000  C
  C232     1.0000 0.93274  0.22705  0.54249  Biso   1.000  C
  C233     1.0000 0.29430  0.06726  0.54249  Biso   1.000  C
  C234     1.0000 0.77295  0.70570  0.54249  Biso   1.000  C
  C235     1.0000 0.43962  0.40059  0.37582  Biso   1.000  C
  C236     1.0000 0.96097  0.56038  0.37582  Biso   1.000  C
  C237     1.0000 0.59941  0.03903  0.37582  Biso   1.000  C
  C238     1.0000 0.40059  0.43962  0.12418  Biso   1.000  C
  C239     1.0000 0.03903  0.59941  0.12418  Biso   1.000  C
  C240     1.0000 0.56038  0.96097  0.12418  Biso   1.000  C
  C241     1.0000 0.10629  0.73392  0.70915  Biso   1.000  C
  C242     1.0000 0.62764  0.89371  0.70915  Biso   1.000  C
  C243     1.0000 0.26608  0.37236  0.70915  Biso   1.000  C
  C244     1.0000 0.06726  0.77295  0.45751  Biso   1.000  C
  C245     1.0000 0.70570  0.93274  0.45751  Biso   1.000  C
  C246     1.0000 0.22705  0.29430  0.45751  Biso   1.000  C
  C247     1.0000 0.77295  0.06726  0.04249  Biso   1.000  C
  C248     1.0000 0.29430  0.22705  0.04249  Biso   1.000  C
  C249     1.0000 0.93274  0.70570  0.04249  Biso   1.000  C
  C250     1.0000 0.73392  0.10629  0.79085  Biso   1.000  C
  C251     1.0000 0.37236  0.26608  0.79085  Biso   1.000  C
  C252     1.0000 0.89371  0.62764  0.79085  Biso   1.000  C
  H1       1.0000 0.39050  0.39730  0.62974  Biso   1.000  H
  H2       1.0000 0.00680  0.60950  0.62974  Biso   1.000  H
  H3       1.0000 0.60270  0.99320  0.62974  Biso   1.000  H
  H4       1.0000 0.39730  0.39050  0.87026  Biso   1.000  H
  H5       1.0000 0.99320  0.60270  0.87026  Biso   1.000  H
  H6       1.0000 0.60950  0.00680  0.87026  Biso   1.000  H
  H7       1.0000 0.05717  0.73063  0.96307  Biso   1.000  H
  H8       1.0000 0.67347  0.94283  0.96307  Biso   1.000  H
  H9       1.0000 0.26937  0.32653  0.96307  Biso   1.000  H
  H10      1.0000 0.06397  0.72383  0.20359  Biso   1.000  H
  H11      1.0000 0.65987  0.93603  0.20359  Biso   1.000  H
  H12      1.0000 0.27617  0.34013  0.20359  Biso   1.000  H
  H13      1.0000 0.72383  0.06397  0.29641  Biso   1.000  H
  H14      1.0000 0.34013  0.27617  0.29641  Biso   1.000  H
  H15      1.0000 0.93603  0.65987  0.29641  Biso   1.000  H
  H16      1.0000 0.73063  0.05717  0.53693  Biso   1.000  H
  H17      1.0000 0.32653  0.26937  0.53693  Biso   1.000  H
  H18      1.0000 0.94283  0.67347  0.53693  Biso   1.000  H
  H19      1.0000 0.60950  0.60270  0.37026  Biso   1.000  H
  H20      1.0000 0.99320  0.39050  0.37026  Biso   1.000  H
  H21      1.0000 0.39730  0.00680  0.37026  Biso   1.000  H
  H22      1.0000 0.60270  0.60950  0.12974  Biso   1.000  H
  H23      1.0000 0.00680  0.39730  0.12974  Biso   1.000  H
  H24      1.0000 0.39050  0.99320  0.12974  Biso   1.000  H
  H25      1.0000 0.27617  0.93603  0.70359  Biso   1.000  H
  H26      1.0000 0.65987  0.72383  0.70359  Biso   1.000  H
  H27      1.0000 0.06397  0.34013  0.70359  Biso   1.000  H
  H28      1.0000 0.26937  0.94283  0.46307  Biso   1.000  H
  H29      1.0000 0.67347  0.73063  0.46307  Biso   1.000  H
  H30      1.0000 0.05717  0.32653  0.46307  Biso   1.000  H
  H31      1.0000 0.94283  0.26937  0.03693  Biso   1.000  H
  H32      1.0000 0.32653  0.05717  0.03693  Biso   1.000  H
  H33      1.0000 0.73063  0.67347  0.03693  Biso   1.000  H
  H34      1.0000 0.93603  0.27617  0.79641  Biso   1.000  H
  H35      1.0000 0.34013  0.06397  0.79641  Biso   1.000  H
  H36      1.0000 0.72383  0.65987  0.79641  Biso   1.000  H
  H37      1.0000 0.43410  0.58400  0.58745  Biso   1.000  H
  H38      1.0000 0.14990  0.56590  0.58745  Biso   1.000  H
  H39      1.0000 0.41600  0.85010  0.58745  Biso   1.000  H
  H40      1.0000 0.58400  0.43410  0.91255  Biso   1.000  H
  H41      1.0000 0.85010  0.41600  0.91255  Biso   1.000  H
  H42      1.0000 0.56590  0.14990  0.91255  Biso   1.000  H
  H43      1.0000 0.10077  0.91733  0.92078  Biso   1.000  H
  H44      1.0000 0.81657  0.89923  0.92078  Biso   1.000  H
  H45      1.0000 0.08267  0.18343  0.92078  Biso   1.000  H
  H46      1.0000 0.25067  0.76743  0.24588  Biso   1.000  H
  H47      1.0000 0.51677  0.74933  0.24588  Biso   1.000  H
  H48      1.0000 0.23257  0.48323  0.24588  Biso   1.000  H
  H49      1.0000 0.76743  0.25067  0.25412  Biso   1.000  H
  H50      1.0000 0.48323  0.23257  0.25412  Biso   1.000  H
  H51      1.0000 0.74933  0.51677  0.25412  Biso   1.000  H
  H52      1.0000 0.91733  0.10077  0.57922  Biso   1.000  H
  H53      1.0000 0.18343  0.08267  0.57922  Biso   1.000  H
  H54      1.0000 0.89923  0.81657  0.57922  Biso   1.000  H
  H55      1.0000 0.56590  0.41600  0.41255  Biso   1.000  H
  H56      1.0000 0.85010  0.43410  0.41255  Biso   1.000  H
  H57      1.0000 0.58400  0.14990  0.41255  Biso   1.000  H
  H58      1.0000 0.41600  0.56590  0.08745  Biso   1.000  H
  H59      1.0000 0.14990  0.58400  0.08745  Biso   1.000  H
  H60      1.0000 0.43410  0.85010  0.08745  Biso   1.000  H
  H61      1.0000 0.23257  0.74933  0.74588  Biso   1.000  H
  H62      1.0000 0.51677  0.76743  0.74588  Biso   1.000  H
  H63      1.0000 0.25067  0.48323  0.74588  Biso   1.000  H
  H64      1.0000 0.08267  0.89923  0.42078  Biso   1.000  H
  H65      1.0000 0.81657  0.91733  0.42078  Biso   1.000  H
  H66      1.0000 0.10077  0.18343  0.42078  Biso   1.000  H
  H67      1.0000 0.89923  0.08267  0.07922  Biso   1.000  H
  H68      1.0000 0.18343  0.10077  0.07922  Biso   1.000  H
  H69      1.0000 0.91733  0.81657  0.07922  Biso   1.000  H
  H70      1.0000 0.74933  0.23257  0.75412  Biso   1.000  H
  H71      1.0000 0.48323  0.25067  0.75412  Biso   1.000  H
  H72      1.0000 0.76743  0.51677  0.75412  Biso   1.000  H
  H73      1.0000 0.62140  0.64420  0.63060  Biso   1.000  H
  H74      1.0000 0.02280  0.37860  0.63060  Biso   1.000  H
  H75      1.0000 0.35580  0.97720  0.63060  Biso   1.000  H
  H76      1.0000 0.64420  0.62140  0.86940  Biso   1.000  H
  H77      1.0000 0.97720  0.35580  0.86940  Biso   1.000  H
  H78      1.0000 0.37860  0.02280  0.86940  Biso   1.000  H
  H79      1.0000 0.28807  0.97753  0.96393  Biso   1.000  H
  H80      1.0000 0.68947  0.71193  0.96393  Biso   1.000  H
  H81      1.0000 0.02247  0.31053  0.96393  Biso   1.000  H
  H82      1.0000 0.31087  0.95473  0.20273  Biso   1.000  H
  H83      1.0000 0.64387  0.68913  0.20273  Biso   1.000  H
  H84      1.0000 0.04527  0.35613  0.20273  Biso   1.000  H
  H85      1.0000 0.95473  0.31087  0.29727  Biso   1.000  H
  H86      1.0000 0.35613  0.04527  0.29727  Biso   1.000  H
  H87      1.0000 0.68913  0.64387  0.29727  Biso   1.000  H
  H88      1.0000 0.97753  0.28807  0.53607  Biso   1.000  H
  H89      1.0000 0.31053  0.02247  0.53607  Biso   1.000  H
  H90      1.0000 0.71193  0.68947  0.53607  Biso   1.000  H
  H91      1.0000 0.37860  0.35580  0.36940  Biso   1.000  H
  H92      1.0000 0.97720  0.62140  0.36940  Biso   1.000  H
  H93      1.0000 0.64420  0.02280  0.36940  Biso   1.000  H
  H94      1.0000 0.35580  0.37860  0.13060  Biso   1.000  H
  H95      1.0000 0.02280  0.64420  0.13060  Biso   1.000  H
  H96      1.0000 0.62140  0.97720  0.13060  Biso   1.000  H
  H97      1.0000 0.04527  0.68913  0.70273  Biso   1.000  H
  H98      1.0000 0.64387  0.95473  0.70273  Biso   1.000  H
  H99      1.0000 0.31087  0.35613  0.70273  Biso   1.000  H
  H100     1.0000 0.02247  0.71193  0.46393  Biso   1.000  H
  H101     1.0000 0.68947  0.97753  0.46393  Biso   1.000  H
  H102     1.0000 0.28807  0.31053  0.46393  Biso   1.000  H
  H103     1.0000 0.71193  0.02247  0.03607  Biso   1.000  H
  H104     1.0000 0.31053  0.28807  0.03607  Biso   1.000  H
  H105     1.0000 0.97753  0.68947  0.03607  Biso   1.000  H
  H106     1.0000 0.68913  0.04527  0.79727  Biso   1.000  H
  H107     1.0000 0.35613  0.31087  0.79727  Biso   1.000  H
  H108     1.0000 0.95473  0.64387  0.79727  Biso   1.000  H
  C253     1.0000 0.58730  0.70830  0.60003  Biso   1.000  C
  C254     1.0000 0.12100  0.41270  0.60003  Biso   1.000  C
  C255     1.0000 0.29170  0.87900  0.60003  Biso   1.000  C
  C256     1.0000 0.70830  0.58730  0.89997  Biso   1.000  C
  C257     1.0000 0.87900  0.29170  0.89997  Biso   1.000  C
  C258     1.0000 0.41270  0.12100  0.89997  Biso   1.000  C
  C259     1.0000 0.25397  0.04163  0.93336  Biso   1.000  C
  C260     1.0000 0.78767  0.74603  0.93336  Biso   1.000  C
  C261     1.0000 0.95837  0.21233  0.93336  Biso   1.000  C
  C262     1.0000 0.37497  0.92063  0.23330  Biso   1.000  C
  C263     1.0000 0.54567  0.62503  0.23330  Biso   1.000  C
  C264     1.0000 0.07937  0.45433  0.23330  Biso   1.000  C
  C265     1.0000 0.92063  0.37497  0.26670  Biso   1.000  C
  C266     1.0000 0.45433  0.07937  0.26670  Biso   1.000  C
  C267     1.0000 0.62503  0.54567  0.26670  Biso   1.000  C
  C268     1.0000 0.04163  0.25397  0.56664  Biso   1.000  C
  C269     1.0000 0.21233  0.95837  0.56664  Biso   1.000  C
  C270     1.0000 0.74603  0.78767  0.56664  Biso   1.000  C
  C271     1.0000 0.41270  0.29170  0.39997  Biso   1.000  C
  C272     1.0000 0.87900  0.58730  0.39997  Biso   1.000  C
  C273     1.0000 0.70830  0.12100  0.39997  Biso   1.000  C
  C274     1.0000 0.29170  0.41270  0.10003  Biso   1.000  C
  C275     1.0000 0.12100  0.70830  0.10003  Biso   1.000  C
  C276     1.0000 0.58730  0.87900  0.10003  Biso   1.000  C
  C277     1.0000 0.07937  0.62503  0.73330  Biso   1.000  C
  C278     1.0000 0.54567  0.92063  0.73330  Biso   1.000  C
  C279     1.0000 0.37497  0.45433  0.73330  Biso   1.000  C
  C280     1.0000 0.95837  0.74603  0.43336  Biso   1.000  C
  C281     1.0000 0.78767  0.04163  0.43336  Biso   1.000  C
  C282     1.0000 0.25397  0.21233  0.43336  Biso   1.000  C
  C283     1.0000 0.74603  0.95837  0.06664  Biso   1.000  C
  C284     1.0000 0.21233  0.25397  0.06664  Biso   1.000  C
  C285     1.0000 0.04163  0.78767  0.06664  Biso   1.000  C
  C286     1.0000 0.62503  0.07937  0.76670  Biso   1.000  C
  C287     1.0000 0.45433  0.37497  0.76670  Biso   1.000  C
  C288     1.0000 0.92063  0.54567  0.76670  Biso   1.000  C
  O1       1.0000 0.56320  0.71930  0.58458  Biso   1.000  O
  O2       1.0000 0.15610  0.43680  0.58458  Biso   1.000  O
  O3       1.0000 0.28070  0.84390  0.58458  Biso   1.000  O
  O4       1.0000 0.71930  0.56320  0.91542  Biso   1.000  O
  O5       1.0000 0.84390  0.28070  0.91542  Biso   1.000  O
  O6       1.0000 0.43680  0.15610  0.91542  Biso   1.000  O
  O7       1.0000 0.22987  0.05263  0.91791  Biso   1.000  O
  O8       1.0000 0.82277  0.77013  0.91791  Biso   1.000  O
  O9       1.0000 0.94737  0.17723  0.91791  Biso   1.000  O
  O10      1.0000 0.38597  0.89653  0.24875  Biso   1.000  O
  O11      1.0000 0.51057  0.61403  0.24875  Biso   1.000  O
  O12      1.0000 0.10347  0.48943  0.24875  Biso   1.000  O
  O13      1.0000 0.89653  0.38597  0.25125  Biso   1.000  O
  O14      1.0000 0.48943  0.10347  0.25125  Biso   1.000  O
  O15      1.0000 0.61403  0.51057  0.25125  Biso   1.000  O
  O16      1.0000 0.05263  0.22987  0.58209  Biso   1.000  O
  O17      1.0000 0.17723  0.94737  0.58209  Biso   1.000  O
  O18      1.0000 0.77013  0.82277  0.58209  Biso   1.000  O
  O19      1.0000 0.43680  0.28070  0.41542  Biso   1.000  O
  O20      1.0000 0.84390  0.56320  0.41542  Biso   1.000  O
  O21      1.0000 0.71930  0.15610  0.41542  Biso   1.000  O
  O22      1.0000 0.28070  0.43680  0.08458  Biso   1.000  O
  O23      1.0000 0.15610  0.71930  0.08458  Biso   1.000  O
  O24      1.0000 0.56320  0.84390  0.08458  Biso   1.000  O
  O25      1.0000 0.10347  0.61403  0.74875  Biso   1.000  O
  O26      1.0000 0.51057  0.89653  0.74875  Biso   1.000  O
  O27      1.0000 0.38597  0.48943  0.74875  Biso   1.000  O
  O28      1.0000 0.94737  0.77013  0.41791  Biso   1.000  O
  O29      1.0000 0.82277  0.05263  0.41791  Biso   1.000  O
  O30      1.0000 0.22987  0.17723  0.41791  Biso   1.000  O
  O31      1.0000 0.77013  0.94737  0.08209  Biso   1.000  O
  O32      1.0000 0.17723  0.22987  0.08209  Biso   1.000  O
  O33      1.0000 0.05263  0.82277  0.08209  Biso   1.000  O
  O34      1.0000 0.61403  0.10347  0.75125  Biso   1.000  O
  O35      1.0000 0.48943  0.38597  0.75125  Biso   1.000  O
  O36      1.0000 0.89653  0.51057  0.75125  Biso   1.000  O
  O37      1.0000 0.65130  0.76140  0.60898  Biso   1.000  O
  O38      1.0000 0.11010  0.34870  0.60898  Biso   1.000  O
  O39      1.0000 0.23860  0.88990  0.60898  Biso   1.000  O
  O40      1.0000 0.76140  0.65130  0.89102  Biso   1.000  O
  O41      1.0000 0.88990  0.23860  0.89102  Biso   1.000  O
  O42      1.0000 0.34870  0.11010  0.89102  Biso   1.000  O
  O43      1.0000 0.31797  0.09473  0.94231  Biso   1.000  O
  O44      1.0000 0.77677  0.68203  0.94231  Biso   1.000  O
  O45      1.0000 0.90527  0.22323  0.94231  Biso   1.000  O
  O46      1.0000 0.42807  0.98463  0.22435  Biso   1.000  O
  O47      1.0000 0.55657  0.57193  0.22435  Biso   1.000  O
  O48      1.0000 0.01537  0.44343  0.22435  Biso   1.000  O
  O49      1.0000 0.98463  0.42807  0.27565  Biso   1.000  O
  O50      1.0000 0.44343  0.01537  0.27565  Biso   1.000  O
  O51      1.0000 0.57193  0.55657  0.27565  Biso   1.000  O
  O52      1.0000 0.09473  0.31797  0.55769  Biso   1.000  O
  O53      1.0000 0.22323  0.90527  0.55769  Biso   1.000  O
  O54      1.0000 0.68203  0.77677  0.55769  Biso   1.000  O
  O55      1.0000 0.34870  0.23860  0.39102  Biso   1.000  O
  O56      1.0000 0.88990  0.65130  0.39102  Biso   1.000  O
  O57      1.0000 0.76140  0.11010  0.39102  Biso   1.000  O
  O58      1.0000 0.23860  0.34870  0.10898  Biso   1.000  O
  O59      1.0000 0.11010  0.76140  0.10898  Biso   1.000  O
  O60      1.0000 0.65130  0.88990  0.10898  Biso   1.000  O
  O61      1.0000 0.01537  0.57193  0.72435  Biso   1.000  O
  O62      1.0000 0.55657  0.98463  0.72435  Biso   1.000  O
  O63      1.0000 0.42807  0.44343  0.72435  Biso   1.000  O
  O64      1.0000 0.90527  0.68203  0.44231  Biso   1.000  O
  O65      1.0000 0.77677  0.09473  0.44231  Biso   1.000  O
  O66      1.0000 0.31797  0.22323  0.44231  Biso   1.000  O
  O67      1.0000 0.68203  0.90527  0.05769  Biso   1.000  O
  O68      1.0000 0.22323  0.31797  0.05769  Biso   1.000  O
  O69      1.0000 0.09473  0.77677  0.05769  Biso   1.000  O
  O70      1.0000 0.57193  0.01537  0.77565  Biso   1.000  O
  O71      1.0000 0.44343  0.42807  0.77565  Biso   1.000  O
  O72      1.0000 0.98463  0.55657  0.77565  Biso   1.000  O
  C289     1.0000 0.32140  0.42390  0.59904  Biso   1.000  C
  C290     1.0000 0.10250  0.67860  0.59904  Biso   1.000  C
  C291     1.0000 0.57610  0.89750  0.59904  Biso   1.000  C
  C292     1.0000 0.42390  0.32140  0.90096  Biso   1.000  C
  C293     1.0000 0.89750  0.57610  0.90096  Biso   1.000  C
  C294     1.0000 0.67860  0.10250  0.90096  Biso   1.000  C
  C295     1.0000 0.98807  0.75723  0.93237  Biso   1.000  C
  C296     1.0000 0.76917  0.01193  0.93237  Biso   1.000  C
  C297     1.0000 0.24277  0.23083  0.93237  Biso   1.000  C
  C298     1.0000 0.09057  0.65473  0.23429  Biso   1.000  C
  C299     1.0000 0.56417  0.90943  0.23429  Biso   1.000  C
  C300     1.0000 0.34527  0.43583  0.23429  Biso   1.000  C
  C301     1.0000 0.65473  0.09057  0.26571  Biso   1.000  C
  C302     1.0000 0.43583  0.34527  0.26571  Biso   1.000  C
  C303     1.0000 0.90943  0.56417  0.26571  Biso   1.000  C
  C304     1.0000 0.75723  0.98807  0.56763  Biso   1.000  C
  C305     1.0000 0.23083  0.24277  0.56763  Biso   1.000  C
  C306     1.0000 0.01193  0.76917  0.56763  Biso   1.000  C
  C307     1.0000 0.67860  0.57610  0.40096  Biso   1.000  C
  C308     1.0000 0.89750  0.32140  0.40096  Biso   1.000  C
  C309     1.0000 0.42390  0.10250  0.40096  Biso   1.000  C
  C310     1.0000 0.57610  0.67860  0.09904  Biso   1.000  C
  C311     1.0000 0.10250  0.42390  0.09904  Biso   1.000  C
  C312     1.0000 0.32140  0.89750  0.09904  Biso   1.000  C
  C313     1.0000 0.34527  0.90943  0.73429  Biso   1.000  C
  C314     1.0000 0.56417  0.65473  0.73429  Biso   1.000  C
  C315     1.0000 0.09057  0.43583  0.73429  Biso   1.000  C
  C316     1.0000 0.24277  0.01193  0.43237  Biso   1.000  C
  C317     1.0000 0.76917  0.75723  0.43237  Biso   1.000  C
  C318     1.0000 0.98807  0.23083  0.43237  Biso   1.000  C
  C319     1.0000 0.01193  0.24277  0.06763  Biso   1.000  C
  C320     1.0000 0.23083  0.98807  0.06763  Biso   1.000  C
  C321     1.0000 0.75723  0.76917  0.06763  Biso   1.000  C
  C322     1.0000 0.90943  0.34527  0.76571  Biso   1.000  C
  C323     1.0000 0.43583  0.09057  0.76571  Biso   1.000  C
  C324     1.0000 0.65473  0.56417  0.76571  Biso   1.000  C
  O73      1.0000 0.31110  0.44330  0.58302  Biso   1.000  O
  O74      1.0000 0.13220  0.68890  0.58302  Biso   1.000  O
  O75      1.0000 0.55670  0.86780  0.58302  Biso   1.000  O
  O76      1.0000 0.44330  0.31110  0.91698  Biso   1.000  O
  O77      1.0000 0.86780  0.55670  0.91698  Biso   1.000  O
  O78      1.0000 0.68890  0.13220  0.91698  Biso   1.000  O
  O79      1.0000 0.97777  0.77663  0.91635  Biso   1.000  O
  O80      1.0000 0.79887  0.02223  0.91635  Biso   1.000  O
  O81      1.0000 0.22337  0.20113  0.91635  Biso   1.000  O
  O82      1.0000 0.10997  0.64443  0.25031  Biso   1.000  O
  O83      1.0000 0.53447  0.89003  0.25031  Biso   1.000  O
  O84      1.0000 0.35557  0.46553  0.25031  Biso   1.000  O
  O85      1.0000 0.64443  0.10997  0.24969  Biso   1.000  O
  O86      1.0000 0.46553  0.35557  0.24969  Biso   1.000  O
  O87      1.0000 0.89003  0.53447  0.24969  Biso   1.000  O
  O88      1.0000 0.77663  0.97777  0.58365  Biso   1.000  O
  O89      1.0000 0.20113  0.22337  0.58365  Biso   1.000  O
  O90      1.0000 0.02223  0.79887  0.58365  Biso   1.000  O
  O91      1.0000 0.68890  0.55670  0.41698  Biso   1.000  O
  O92      1.0000 0.86780  0.31110  0.41698  Biso   1.000  O
  O93      1.0000 0.44330  0.13220  0.41698  Biso   1.000  O
  O94      1.0000 0.55670  0.68890  0.08302  Biso   1.000  O
  O95      1.0000 0.13220  0.44330  0.08302  Biso   1.000  O
  O96      1.0000 0.31110  0.86780  0.08302  Biso   1.000  O
  O97      1.0000 0.35557  0.89003  0.75031  Biso   1.000  O
  O98      1.0000 0.53447  0.64443  0.75031  Biso   1.000  O
  O99      1.0000 0.10997  0.46553  0.75031  Biso   1.000  O
  O100     1.0000 0.22337  0.02223  0.41635  Biso   1.000  O
  O101     1.0000 0.79887  0.77663  0.41635  Biso   1.000  O
  O102     1.0000 0.97777  0.20113  0.41635  Biso   1.000  O
  O103     1.0000 0.02223  0.22337  0.08365  Biso   1.000  O
  O104     1.0000 0.20113  0.97777  0.08365  Biso   1.000  O
  O105     1.0000 0.77663  0.79887  0.08365  Biso   1.000  O
  O106     1.0000 0.89003  0.35557  0.74969  Biso   1.000  O
  O107     1.0000 0.46553  0.10997  0.74969  Biso   1.000  O
  O108     1.0000 0.64443  0.53447  0.74969  Biso   1.000  O
  O109     1.0000 0.26990  0.35980  0.60816  Biso   1.000  O
  O110     1.0000 0.08990  0.73010  0.60816  Biso   1.000  O
  O111     1.0000 0.64020  0.91010  0.60816  Biso   1.000  O
  O112     1.0000 0.35980  0.26990  0.89184  Biso   1.000  O
  O113     1.0000 0.91010  0.64020  0.89184  Biso   1.000  O
  O114     1.0000 0.73010  0.08990  0.89184  Biso   1.000  O
  O115     1.0000 0.93657  0.69313  0.94149  Biso   1.000  O
  O116     1.0000 0.75657  0.06343  0.94149  Biso   1.000  O
  O117     1.0000 0.30687  0.24343  0.94149  Biso   1.000  O
  O118     1.0000 0.02647  0.60323  0.22517  Biso   1.000  O
  O119     1.0000 0.57677  0.97353  0.22517  Biso   1.000  O
  O120     1.0000 0.39677  0.42323  0.22517  Biso   1.000  O
  O121     1.0000 0.60323  0.02647  0.27483  Biso   1.000  O
  O122     1.0000 0.42323  0.39677  0.27483  Biso   1.000  O
  O123     1.0000 0.97353  0.57677  0.27483  Biso   1.000  O
  O124     1.0000 0.69313  0.93657  0.55851  Biso   1.000  O
  O125     1.0000 0.24343  0.30687  0.55851  Biso   1.000  O
  O126     1.0000 0.06343  0.75657  0.55851  Biso   1.000  O
  O127     1.0000 0.73010  0.64020  0.39184  Biso   1.000  O
  O128     1.0000 0.91010  0.26990  0.39184  Biso   1.000  O
  O129     1.0000 0.35980  0.08990  0.39184  Biso   1.000  O
  O130     1.0000 0.64020  0.73010  0.10816  Biso   1.000  O
  O131     1.0000 0.08990  0.35980  0.10816  Biso   1.000  O
  O132     1.0000 0.26990  0.91010  0.10816  Biso   1.000  O
  O133     1.0000 0.39677  0.97353  0.72517  Biso   1.000  O
  O134     1.0000 0.57677  0.60323  0.72517  Biso   1.000  O
  O135     1.0000 0.02647  0.42323  0.72517  Biso   1.000  O
  O136     1.0000 0.30687  0.06343  0.44149  Biso   1.000  O
  O137     1.0000 0.75657  0.69313  0.44149  Biso   1.000  O
  O138     1.0000 0.93657  0.24343  0.44149  Biso   1.000  O
  O139     1.0000 0.06343  0.30687  0.05851  Biso   1.000  O
  O140     1.0000 0.24343  0.93657  0.05851  Biso   1.000  O
  O141     1.0000 0.69313  0.75657  0.05851  Biso   1.000  O
  O142     1.0000 0.97353  0.39677  0.77483  Biso   1.000  O
  O143     1.0000 0.42323  0.02647  0.77483  Biso   1.000  O
  O144     1.0000 0.60323  0.57677  0.77483  Biso   1.000  O
  C325     1.0000 0.53600  0.49430  0.64803  Biso   1.000  C
  C326     1.0000 0.95830  0.46400  0.64803  Biso   1.000  C
  C327     1.0000 0.50570  0.04170  0.64803  Biso   1.000  C
  C328     1.0000 0.49430  0.53600  0.85197  Biso   1.000  C
  C329     1.0000 0.04170  0.50570  0.85197  Biso   1.000  C
  C330     1.0000 0.46400  0.95830  0.85197  Biso   1.000  C
  C331     1.0000 0.20267  0.82763  0.98136  Biso   1.000  C
  C332     1.0000 0.62497  0.79733  0.98136  Biso   1.000  C
  C333     1.0000 0.17237  0.37503  0.98136  Biso   1.000  C
  C334     1.0000 0.16097  0.86933  0.18530  Biso   1.000  C
  C335     1.0000 0.70837  0.83903  0.18530  Biso   1.000  C
  C336     1.0000 0.13067  0.29163  0.18530  Biso   1.000  C
  C337     1.0000 0.86933  0.16097  0.31470  Biso   1.000  C
  C338     1.0000 0.29163  0.13067  0.31470  Biso   1.000  C
  C339     1.0000 0.83903  0.70837  0.31470  Biso   1.000  C
  C340     1.0000 0.82763  0.20267  0.51864  Biso   1.000  C
  C341     1.0000 0.37503  0.17237  0.51864  Biso   1.000  C
  C342     1.0000 0.79733  0.62497  0.51864  Biso   1.000  C
  C343     1.0000 0.46400  0.50570  0.35197  Biso   1.000  C
  C344     1.0000 0.04170  0.53600  0.35197  Biso   1.000  C
  C345     1.0000 0.49430  0.95830  0.35197  Biso   1.000  C
  C346     1.0000 0.50570  0.46400  0.14803  Biso   1.000  C
  C347     1.0000 0.95830  0.49430  0.14803  Biso   1.000  C
  C348     1.0000 0.53600  0.04170  0.14803  Biso   1.000  C
  C349     1.0000 0.13067  0.83903  0.68530  Biso   1.000  C
  C350     1.0000 0.70837  0.86933  0.68530  Biso   1.000  C
  C351     1.0000 0.16097  0.29163  0.68530  Biso   1.000  C
  C352     1.0000 0.17237  0.79733  0.48136  Biso   1.000  C
  C353     1.0000 0.62497  0.82763  0.48136  Biso   1.000  C
  C354     1.0000 0.20267  0.37503  0.48136  Biso   1.000  C
  C355     1.0000 0.79733  0.17237  0.01864  Biso   1.000  C
  C356     1.0000 0.37503  0.20267  0.01864  Biso   1.000  C
  C357     1.0000 0.82763  0.62497  0.01864  Biso   1.000  C
  C358     1.0000 0.83903  0.13067  0.81470  Biso   1.000  C
  C359     1.0000 0.29163  0.16097  0.81470  Biso   1.000  C
  C360     1.0000 0.86933  0.70837  0.81470  Biso   1.000  C
  C361     1.0000 0.59760  0.46760  0.67857  Biso   1.000  C
  C362     1.0000 0.87000  0.40240  0.67857  Biso   1.000  C
  C363     1.0000 0.53240  0.13000  0.67857  Biso   1.000  C
  C364     1.0000 0.46760  0.59760  0.82143  Biso   1.000  C
  C365     1.0000 0.13000  0.53240  0.82143  Biso   1.000  C
  C366     1.0000 0.40240  0.87000  0.82143  Biso   1.000  C
  C367     1.0000 0.26427  0.80093  0.01190  Biso   1.000  C
  C368     1.0000 0.53667  0.73573  0.01190  Biso   1.000  C
  C369     1.0000 0.19907  0.46333  0.01190  Biso   1.000  C
  C370     1.0000 0.13427  0.93093  0.15476  Biso   1.000  C
  C371     1.0000 0.79667  0.86573  0.15476  Biso   1.000  C
  C372     1.0000 0.06907  0.20333  0.15476  Biso   1.000  C
  C373     1.0000 0.93093  0.13427  0.34524  Biso   1.000  C
  C374     1.0000 0.20333  0.06907  0.34524  Biso   1.000  C
  C375     1.0000 0.86573  0.79667  0.34524  Biso   1.000  C
  C376     1.0000 0.80093  0.26427  0.48810  Biso   1.000  C
  C377     1.0000 0.46333  0.19907  0.48810  Biso   1.000  C
  C378     1.0000 0.73573  0.53667  0.48810  Biso   1.000  C
  C379     1.0000 0.40240  0.53240  0.32143  Biso   1.000  C
  C380     1.0000 0.13000  0.59760  0.32143  Biso   1.000  C
  C381     1.0000 0.46760  0.87000  0.32143  Biso   1.000  C
  C382     1.0000 0.53240  0.40240  0.17857  Biso   1.000  C
  C383     1.0000 0.87000  0.46760  0.17857  Biso   1.000  C
  C384     1.0000 0.59760  0.13000  0.17857  Biso   1.000  C
  C385     1.0000 0.06907  0.86573  0.65476  Biso   1.000  C
  C386     1.0000 0.79667  0.93093  0.65476  Biso   1.000  C
  C387     1.0000 0.13427  0.20333  0.65476  Biso   1.000  C
  C388     1.0000 0.19907  0.73573  0.51190  Biso   1.000  C
  C389     1.0000 0.53667  0.80093  0.51190  Biso   1.000  C
  C390     1.0000 0.26427  0.46333  0.51190  Biso   1.000  C
  C391     1.0000 0.73573  0.19907  0.98810  Biso   1.000  C
  C392     1.0000 0.46333  0.26427  0.98810  Biso   1.000  C
  C393     1.0000 0.80093  0.53667  0.98810  Biso   1.000  C
  C394     1.0000 0.86573  0.06907  0.84524  Biso   1.000  C
  C395     1.0000 0.20333  0.13427  0.84524  Biso   1.000  C
  C396     1.0000 0.93093  0.79667  0.84524  Biso   1.000  C
  C397     1.0000 0.67330  0.46400  0.67980  Biso   1.000  C
  C398     1.0000 0.79070  0.32670  0.67980  Biso   1.000  C
  C399     1.0000 0.53600  0.20930  0.67980  Biso   1.000  C
  C400     1.0000 0.46400  0.67330  0.82020  Biso   1.000  C
  C401     1.0000 0.20930  0.53600  0.82020  Biso   1.000  C
  C402     1.0000 0.32670  0.79070  0.82020  Biso   1.000  C
  C403     1.0000 0.33997  0.79733  0.01313  Biso   1.000  C
  C404     1.0000 0.45737  0.66003  0.01313  Biso   1.000  C
  C405     1.0000 0.20267  0.54263  0.01313  Biso   1.000  C
  C406     1.0000 0.13067  0.00663  0.15353  Biso   1.000  C
  C407     1.0000 0.87597  0.86933  0.15353  Biso   1.000  C
  C408     1.0000 0.99337  0.12403  0.15353  Biso   1.000  C
  C409     1.0000 0.00663  0.13067  0.34647  Biso   1.000  C
  C410     1.0000 0.12403  0.99337  0.34647  Biso   1.000  C
  C411     1.0000 0.86933  0.87597  0.34647  Biso   1.000  C
  C412     1.0000 0.79733  0.33997  0.48687  Biso   1.000  C
  C413     1.0000 0.54263  0.20267  0.48687  Biso   1.000  C
  C414     1.0000 0.66003  0.45737  0.48687  Biso   1.000  C
  C415     1.0000 0.32670  0.53600  0.32020  Biso   1.000  C
  C416     1.0000 0.20930  0.67330  0.32020  Biso   1.000  C
  C417     1.0000 0.46400  0.79070  0.32020  Biso   1.000  C
  C418     1.0000 0.53600  0.32670  0.17980  Biso   1.000  C
  C419     1.0000 0.79070  0.46400  0.17980  Biso   1.000  C
  C420     1.0000 0.67330  0.20930  0.17980  Biso   1.000  C
  C421     1.0000 0.99337  0.86933  0.65353  Biso   1.000  C
  C422     1.0000 0.87597  0.00663  0.65353  Biso   1.000  C
  C423     1.0000 0.13067  0.12403  0.65353  Biso   1.000  C
  C424     1.0000 0.20267  0.66003  0.51313  Biso   1.000  C
  C425     1.0000 0.45737  0.79733  0.51313  Biso   1.000  C
  C426     1.0000 0.33997  0.54263  0.51313  Biso   1.000  C
  C427     1.0000 0.66003  0.20267  0.98687  Biso   1.000  C
  C428     1.0000 0.54263  0.33997  0.98687  Biso   1.000  C
  C429     1.0000 0.79733  0.45737  0.98687  Biso   1.000  C
  C430     1.0000 0.86933  0.99337  0.84647  Biso   1.000  C
  C431     1.0000 0.12403  0.13067  0.84647  Biso   1.000  C
  C432     1.0000 0.00663  0.87597  0.84647  Biso   1.000  C
  N1       1.0000 0.70530  0.45500  0.69620  Biso   1.000  N
  N2       1.0000 0.74970  0.29470  0.69620  Biso   1.000  N
  N3       1.0000 0.54500  0.25030  0.69620  Biso   1.000  N
  N4       1.0000 0.45500  0.70530  0.80380  Biso   1.000  N
  N5       1.0000 0.25030  0.54500  0.80380  Biso   1.000  N
  N6       1.0000 0.29470  0.74970  0.80380  Biso   1.000  N
  N7       1.0000 0.37197  0.78833  0.02953  Biso   1.000  N
  N8       1.0000 0.41637  0.62803  0.02953  Biso   1.000  N
  N9       1.0000 0.21167  0.58363  0.02953  Biso   1.000  N
  N10      1.0000 0.12167  0.03863  0.13713  Biso   1.000  N
  N11      1.0000 0.91697  0.87833  0.13713  Biso   1.000  N
  N12      1.0000 0.96137  0.08303  0.13713  Biso   1.000  N
  N13      1.0000 0.03863  0.12167  0.36287  Biso   1.000  N
  N14      1.0000 0.08303  0.96137  0.36287  Biso   1.000  N
  N15      1.0000 0.87833  0.91697  0.36287  Biso   1.000  N
  N16      1.0000 0.78833  0.37197  0.47047  Biso   1.000  N
  N17      1.0000 0.58363  0.21167  0.47047  Biso   1.000  N
  N18      1.0000 0.62803  0.41637  0.47047  Biso   1.000  N
  N19      1.0000 0.29470  0.54500  0.30380  Biso   1.000  N
  N20      1.0000 0.25030  0.70530  0.30380  Biso   1.000  N
  N21      1.0000 0.45500  0.74970  0.30380  Biso   1.000  N
  N22      1.0000 0.54500  0.29470  0.19620  Biso   1.000  N
  N23      1.0000 0.74970  0.45500  0.19620  Biso   1.000  N
  N24      1.0000 0.70530  0.25030  0.19620  Biso   1.000  N
  N25      1.0000 0.96137  0.87833  0.63713  Biso   1.000  N
  N26      1.0000 0.91697  0.03863  0.63713  Biso   1.000  N
  N27      1.0000 0.12167  0.08303  0.63713  Biso   1.000  N
  N28      1.0000 0.21167  0.62803  0.52953  Biso   1.000  N
  N29      1.0000 0.41637  0.78833  0.52953  Biso   1.000  N
  N30      1.0000 0.37197  0.58363  0.52953  Biso   1.000  N
  N31      1.0000 0.62803  0.21167  0.97047  Biso   1.000  N
  N32      1.0000 0.58363  0.37197  0.97047  Biso   1.000  N
  N33      1.0000 0.78833  0.41637  0.97047  Biso   1.000  N
  N34      1.0000 0.87833  0.96137  0.86287  Biso   1.000  N
  N35      1.0000 0.08303  0.12167  0.86287  Biso   1.000  N
  N36      1.0000 0.03863  0.91697  0.86287  Biso   1.000  N
  C433     1.0000 0.65900  0.44990  0.71120  Biso   1.000  C
  C434     1.0000 0.79090  0.34100  0.71120  Biso   1.000  C
  C435     1.0000 0.55010  0.20910  0.71120  Biso   1.000  C
  C436     1.0000 0.44990  0.65900  0.78880  Biso   1.000  C
  C437     1.0000 0.20910  0.55010  0.78880  Biso   1.000  C
  C438     1.0000 0.34100  0.79090  0.78880  Biso   1.000  C
  C439     1.0000 0.32567  0.78323  0.04453  Biso   1.000  C
  C440     1.0000 0.45757  0.67433  0.04453  Biso   1.000  C
  C441     1.0000 0.21677  0.54243  0.04453  Biso   1.000  C
  C442     1.0000 0.11657  0.99233  0.12213  Biso   1.000  C
  C443     1.0000 0.87577  0.88343  0.12213  Biso   1.000  C
  C444     1.0000 0.00767  0.12423  0.12213  Biso   1.000  C
  C445     1.0000 0.99233  0.11657  0.37787  Biso   1.000  C
  C446     1.0000 0.12423  0.00767  0.37787  Biso   1.000  C
  C447     1.0000 0.88343  0.87577  0.37787  Biso   1.000  C
  C448     1.0000 0.78323  0.32567  0.45547  Biso   1.000  C
  C449     1.0000 0.54243  0.21677  0.45547  Biso   1.000  C
  C450     1.0000 0.67433  0.45757  0.45547  Biso   1.000  C
  C451     1.0000 0.34100  0.55010  0.28880  Biso   1.000  C
  C452     1.0000 0.20910  0.65900  0.28880  Biso   1.000  C
  C453     1.0000 0.44990  0.79090  0.28880  Biso   1.000  C
  C454     1.0000 0.55010  0.34100  0.21120  Biso   1.000  C
  C455     1.0000 0.79090  0.44990  0.21120  Biso   1.000  C
  C456     1.0000 0.65900  0.20910  0.21120  Biso   1.000  C
  C457     1.0000 0.00767  0.88343  0.62213  Biso   1.000  C
  C458     1.0000 0.87577  0.99233  0.62213  Biso   1.000  C
  C459     1.0000 0.11657  0.12423  0.62213  Biso   1.000  C
  C460     1.0000 0.21677  0.67433  0.54453  Biso   1.000  C
  C461     1.0000 0.45757  0.78323  0.54453  Biso   1.000  C
  C462     1.0000 0.32567  0.54243  0.54453  Biso   1.000  C
  C463     1.0000 0.67433  0.21677  0.95547  Biso   1.000  C
  C464     1.0000 0.54243  0.32567  0.95547  Biso   1.000  C
  C465     1.0000 0.78323  0.45757  0.95547  Biso   1.000  C
  C466     1.0000 0.88343  0.00767  0.87787  Biso   1.000  C
  C467     1.0000 0.12423  0.11657  0.87787  Biso   1.000  C
  C468     1.0000 0.99233  0.87577  0.87787  Biso   1.000  C
  N37      1.0000 0.58600  0.45250  0.71199  Biso   1.000  N
  N38      1.0000 0.86650  0.41400  0.71199  Biso   1.000  N
  N39      1.0000 0.54750  0.13350  0.71199  Biso   1.000  N
  N40      1.0000 0.45250  0.58600  0.78801  Biso   1.000  N
  N41      1.0000 0.13350  0.54750  0.78801  Biso   1.000  N
  N42      1.0000 0.41400  0.86650  0.78801  Biso   1.000  N
  N43      1.0000 0.25267  0.78583  0.04532  Biso   1.000  N
  N44      1.0000 0.53317  0.74733  0.04532  Biso   1.000  N
  N45      1.0000 0.21417  0.46683  0.04532  Biso   1.000  N
  N46      1.0000 0.11917  0.91933  0.12134  Biso   1.000  N
  N47      1.0000 0.80017  0.88083  0.12134  Biso   1.000  N
  N48      1.0000 0.08067  0.19983  0.12134  Biso   1.000  N
  N49      1.0000 0.91933  0.11917  0.37866  Biso   1.000  N
  N50      1.0000 0.19983  0.08067  0.37866  Biso   1.000  N
  N51      1.0000 0.88083  0.80017  0.37866  Biso   1.000  N
  N52      1.0000 0.78583  0.25267  0.45468  Biso   1.000  N
  N53      1.0000 0.46683  0.21417  0.45468  Biso   1.000  N
  N54      1.0000 0.74733  0.53317  0.45468  Biso   1.000  N
  N55      1.0000 0.41400  0.54750  0.28801  Biso   1.000  N
  N56      1.0000 0.13350  0.58600  0.28801  Biso   1.000  N
  N57      1.0000 0.45250  0.86650  0.28801  Biso   1.000  N
  N58      1.0000 0.54750  0.41400  0.21199  Biso   1.000  N
  N59      1.0000 0.86650  0.45250  0.21199  Biso   1.000  N
  N60      1.0000 0.58600  0.13350  0.21199  Biso   1.000  N
  N61      1.0000 0.08067  0.88083  0.62134  Biso   1.000  N
  N62      1.0000 0.80017  0.91933  0.62134  Biso   1.000  N
  N63      1.0000 0.11917  0.19983  0.62134  Biso   1.000  N
  N64      1.0000 0.21417  0.74733  0.54532  Biso   1.000  N
  N65      1.0000 0.53317  0.78583  0.54532  Biso   1.000  N
  N66      1.0000 0.25267  0.46683  0.54532  Biso   1.000  N
  N67      1.0000 0.74733  0.21417  0.95468  Biso   1.000  N
  N68      1.0000 0.46683  0.25267  0.95468  Biso   1.000  N
  N69      1.0000 0.78583  0.53317  0.95468  Biso   1.000  N
  N70      1.0000 0.88083  0.08067  0.87866  Biso   1.000  N
  N71      1.0000 0.19983  0.11917  0.87866  Biso   1.000  N
  N72      1.0000 0.91933  0.80017  0.87866  Biso   1.000  N
  C469     1.0000 0.55570  0.46150  0.69530  Biso   1.000  C
  C470     1.0000 0.90580  0.44430  0.69530  Biso   1.000  C
  C471     1.0000 0.53850  0.09420  0.69530  Biso   1.000  C
  C472     1.0000 0.46150  0.55570  0.80470  Biso   1.000  C
  C473     1.0000 0.09420  0.53850  0.80470  Biso   1.000  C
  C474     1.0000 0.44430  0.90580  0.80470  Biso   1.000  C
  C475     1.0000 0.22237  0.79483  0.02863  Biso   1.000  C
  C476     1.0000 0.57247  0.77763  0.02863  Biso   1.000  C
  C477     1.0000 0.20517  0.42753  0.02863  Biso   1.000  C
  C478     1.0000 0.12817  0.88903  0.13803  Biso   1.000  C
  C479     1.0000 0.76087  0.87183  0.13803  Biso   1.000  C
  C480     1.0000 0.11097  0.23913  0.13803  Biso   1.000  C
  C481     1.0000 0.88903  0.12817  0.36197  Biso   1.000  C
  C482     1.0000 0.23913  0.11097  0.36197  Biso   1.000  C
  C483     1.0000 0.87183  0.76087  0.36197  Biso   1.000  C
  C484     1.0000 0.79483  0.22237  0.47137  Biso   1.000  C
  C485     1.0000 0.42753  0.20517  0.47137  Biso   1.000  C
  C486     1.0000 0.77763  0.57247  0.47137  Biso   1.000  C
  C487     1.0000 0.44430  0.53850  0.30470  Biso   1.000  C
  C488     1.0000 0.09420  0.55570  0.30470  Biso   1.000  C
  C489     1.0000 0.46150  0.90580  0.30470  Biso   1.000  C
  C490     1.0000 0.53850  0.44430  0.19530  Biso   1.000  C
  C491     1.0000 0.90580  0.46150  0.19530  Biso   1.000  C
  C492     1.0000 0.55570  0.09420  0.19530  Biso   1.000  C
  C493     1.0000 0.11097  0.87183  0.63803  Biso   1.000  C
  C494     1.0000 0.76087  0.88903  0.63803  Biso   1.000  C
  C495     1.0000 0.12817  0.23913  0.63803  Biso   1.000  C
  C496     1.0000 0.20517  0.77763  0.52863  Biso   1.000  C
  C497     1.0000 0.57247  0.79483  0.52863  Biso   1.000  C
  C498     1.0000 0.22237  0.42753  0.52863  Biso   1.000  C
  C499     1.0000 0.77763  0.20517  0.97137  Biso   1.000  C
  C500     1.0000 0.42753  0.22237  0.97137  Biso   1.000  C
  C501     1.0000 0.79483  0.57247  0.97137  Biso   1.000  C
  C502     1.0000 0.87183  0.11097  0.86197  Biso   1.000  C
  C503     1.0000 0.23913  0.12817  0.86197  Biso   1.000  C
  C504     1.0000 0.88903  0.76087  0.86197  Biso   1.000  C
  H109     1.0000 0.67800  0.44300  0.72340  Biso   1.000  H
  H110     1.0000 0.76500  0.32200  0.72340  Biso   1.000  H
  H111     1.0000 0.55700  0.23500  0.72340  Biso   1.000  H
  H112     1.0000 0.44300  0.67800  0.77660  Biso   1.000  H
  H113     1.0000 0.23500  0.55700  0.77660  Biso   1.000  H
  H114     1.0000 0.32200  0.76500  0.77660  Biso   1.000  H
  H115     1.0000 0.34467  0.77633  0.05673  Biso   1.000  H
  H116     1.0000 0.43167  0.65533  0.05673  Biso   1.000  H
  H117     1.0000 0.22367  0.56833  0.05673  Biso   1.000  H
  H118     1.0000 0.10967  0.01133  0.10993  Biso   1.000  H
  H119     1.0000 0.90167  0.89033  0.10993  Biso   1.000  H
  H120     1.0000 0.98867  0.09833  0.10993  Biso   1.000  H
  H121     1.0000 0.01133  0.10967  0.39007  Biso   1.000  H
  H122     1.0000 0.09833  0.98867  0.39007  Biso   1.000  H
  H123     1.0000 0.89033  0.90167  0.39007  Biso   1.000  H
  H124     1.0000 0.77633  0.34467  0.44327  Biso   1.000  H
  H125     1.0000 0.56833  0.22367  0.44327  Biso   1.000  H
  H126     1.0000 0.65533  0.43167  0.44327  Biso   1.000  H
  H127     1.0000 0.32200  0.55700  0.27660  Biso   1.000  H
  H128     1.0000 0.23500  0.67800  0.27660  Biso   1.000  H
  H129     1.0000 0.44300  0.76500  0.27660  Biso   1.000  H
  H130     1.0000 0.55700  0.32200  0.22340  Biso   1.000  H
  H131     1.0000 0.76500  0.44300  0.22340  Biso   1.000  H
  H132     1.0000 0.67800  0.23500  0.22340  Biso   1.000  H
  H133     1.0000 0.98867  0.89033  0.60993  Biso   1.000  H
  H134     1.0000 0.90167  0.01133  0.60993  Biso   1.000  H
  H135     1.0000 0.10967  0.09833  0.60993  Biso   1.000  H
  H136     1.0000 0.22367  0.65533  0.55673  Biso   1.000  H
  H137     1.0000 0.43167  0.77633  0.55673  Biso   1.000  H
  H138     1.0000 0.34467  0.56833  0.55673  Biso   1.000  H
  H139     1.0000 0.65533  0.22367  0.94327  Biso   1.000  H
  H140     1.0000 0.56833  0.34467  0.94327  Biso   1.000  H
  H141     1.0000 0.77633  0.43167  0.94327  Biso   1.000  H
  H142     1.0000 0.89033  0.98867  0.89007  Biso   1.000  H
  H143     1.0000 0.09833  0.10967  0.89007  Biso   1.000  H
  H144     1.0000 0.01133  0.90167  0.89007  Biso   1.000  H
  H145     1.0000 0.70510  0.46800  0.66860  Biso   1.000  H
  H146     1.0000 0.76290  0.29490  0.66860  Biso   1.000  H
  H147     1.0000 0.53200  0.23710  0.66860  Biso   1.000  H
  H148     1.0000 0.46800  0.70510  0.83140  Biso   1.000  H
  H149     1.0000 0.23710  0.53200  0.83140  Biso   1.000  H
  H150     1.0000 0.29490  0.76290  0.83140  Biso   1.000  H
  H151     1.0000 0.37177  0.80133  0.00193  Biso   1.000  H
  H152     1.0000 0.42957  0.62823  0.00193  Biso   1.000  H
  H153     1.0000 0.19867  0.57043  0.00193  Biso   1.000  H
  H154     1.0000 0.13467  0.03843  0.16473  Biso   1.000  H
  H155     1.0000 0.90377  0.86533  0.16473  Biso   1.000  H
  H156     1.0000 0.96157  0.09623  0.16473  Biso   1.000  H
  H157     1.0000 0.03843  0.13467  0.33527  Biso   1.000  H
  H158     1.0000 0.09623  0.96157  0.33527  Biso   1.000  H
  H159     1.0000 0.86533  0.90377  0.33527  Biso   1.000  H
  H160     1.0000 0.80133  0.37177  0.49807  Biso   1.000  H
  H161     1.0000 0.57043  0.19867  0.49807  Biso   1.000  H
  H162     1.0000 0.62823  0.42957  0.49807  Biso   1.000  H
  H163     1.0000 0.29490  0.53200  0.33140  Biso   1.000  H
  H164     1.0000 0.23710  0.70510  0.33140  Biso   1.000  H
  H165     1.0000 0.46800  0.76290  0.33140  Biso   1.000  H
  H166     1.0000 0.53200  0.29490  0.16860  Biso   1.000  H
  H167     1.0000 0.76290  0.46800  0.16860  Biso   1.000  H
  H168     1.0000 0.70510  0.23710  0.16860  Biso   1.000  H
  H169     1.0000 0.96157  0.86533  0.66473  Biso   1.000  H
  H170     1.0000 0.90377  0.03843  0.66473  Biso   1.000  H
  H171     1.0000 0.13467  0.09623  0.66473  Biso   1.000  H
  H172     1.0000 0.19867  0.62823  0.50193  Biso   1.000  H
  H173     1.0000 0.42957  0.80133  0.50193  Biso   1.000  H
  H174     1.0000 0.37177  0.57043  0.50193  Biso   1.000  H
  H175     1.0000 0.62823  0.19867  0.99807  Biso   1.000  H
  H176     1.0000 0.57043  0.37177  0.99807  Biso   1.000  H
  H177     1.0000 0.80133  0.42957  0.99807  Biso   1.000  H
  H178     1.0000 0.86533  0.96157  0.83527  Biso   1.000  H
  H179     1.0000 0.09623  0.13467  0.83527  Biso   1.000  H
  H180     1.0000 0.03843  0.90377  0.83527  Biso   1.000  H
  H181     1.0000 0.50290  0.46400  0.69530  Biso   1.000  H
  H182     1.0000 0.96110  0.49710  0.69530  Biso   1.000  H
  H183     1.0000 0.53600  0.03890  0.69530  Biso   1.000  H
  H184     1.0000 0.46400  0.50290  0.80470  Biso   1.000  H
  H185     1.0000 0.03890  0.53600  0.80470  Biso   1.000  H
  H186     1.0000 0.49710  0.96110  0.80470  Biso   1.000  H
  H187     1.0000 0.16957  0.79733  0.02863  Biso   1.000  H
  H188     1.0000 0.62777  0.83043  0.02863  Biso   1.000  H
  H189     1.0000 0.20267  0.37223  0.02863  Biso   1.000  H
  H190     1.0000 0.13067  0.83623  0.13803  Biso   1.000  H
  H191     1.0000 0.70557  0.86933  0.13803  Biso   1.000  H
  H192     1.0000 0.16377  0.29443  0.13803  Biso   1.000  H
  H193     1.0000 0.83623  0.13067  0.36197  Biso   1.000  H
  H194     1.0000 0.29443  0.16377  0.36197  Biso   1.000  H
  H195     1.0000 0.86933  0.70557  0.36197  Biso   1.000  H
  H196     1.0000 0.79733  0.16957  0.47137  Biso   1.000  H
  H197     1.0000 0.37223  0.20267  0.47137  Biso   1.000  H
  H198     1.0000 0.83043  0.62777  0.47137  Biso   1.000  H
  H199     1.0000 0.49710  0.53600  0.30470  Biso   1.000  H
  H200     1.0000 0.03890  0.50290  0.30470  Biso   1.000  H
  H201     1.0000 0.46400  0.96110  0.30470  Biso   1.000  H
  H202     1.0000 0.53600  0.49710  0.19530  Biso   1.000  H
  H203     1.0000 0.96110  0.46400  0.19530  Biso   1.000  H
  H204     1.0000 0.50290  0.03890  0.19530  Biso   1.000  H
  H205     1.0000 0.16377  0.86933  0.63803  Biso   1.000  H
  H206     1.0000 0.70557  0.83623  0.63803  Biso   1.000  H
  H207     1.0000 0.13067  0.29443  0.63803  Biso   1.000  H
  H208     1.0000 0.20267  0.83043  0.52863  Biso   1.000  H
  H209     1.0000 0.62777  0.79733  0.52863  Biso   1.000  H
  H210     1.0000 0.16957  0.37223  0.52863  Biso   1.000  H
  H211     1.0000 0.83043  0.20267  0.97137  Biso   1.000  H
  H212     1.0000 0.37223  0.16957  0.97137  Biso   1.000  H
  H213     1.0000 0.79733  0.62777  0.97137  Biso   1.000  H
  H214     1.0000 0.86933  0.16377  0.86197  Biso   1.000  H
  H215     1.0000 0.29443  0.13067  0.86197  Biso   1.000  H
  H216     1.0000 0.83623  0.70557  0.86197  Biso   1.000  H
  C505     1.0000 0.13930  0.02530  0.47884  Biso   1.000  C
  C506     1.0000 0.88600  0.86070  0.47884  Biso   1.000  C
  C507     1.0000 0.97470  0.11400  0.47884  Biso   1.000  C
  C508     1.0000 0.02530  0.13930  0.02116  Biso   1.000  C
  C509     1.0000 0.11400  0.97470  0.02116  Biso   1.000  C
  C510     1.0000 0.86070  0.88600  0.02116  Biso   1.000  C
  C511     1.0000 0.80597  0.35863  0.81217  Biso   1.000  C
  C512     1.0000 0.55267  0.19403  0.81217  Biso   1.000  C
  C513     1.0000 0.64137  0.44733  0.81217  Biso   1.000  C
  C514     1.0000 0.69197  0.47263  0.35449  Biso   1.000  C
  C515     1.0000 0.78067  0.30803  0.35449  Biso   1.000  C
  C516     1.0000 0.52737  0.21933  0.35449  Biso   1.000  C
  C517     1.0000 0.47263  0.69197  0.14551  Biso   1.000  C
  C518     1.0000 0.21933  0.52737  0.14551  Biso   1.000  C
  C519     1.0000 0.30803  0.78067  0.14551  Biso   1.000  C
  C520     1.0000 0.35863  0.80597  0.68783  Biso   1.000  C
  C521     1.0000 0.44733  0.64137  0.68783  Biso   1.000  C
  C522     1.0000 0.19403  0.55267  0.68783  Biso   1.000  C
  C523     1.0000 0.86070  0.97470  0.52116  Biso   1.000  C
  C524     1.0000 0.11400  0.13930  0.52116  Biso   1.000  C
  C525     1.0000 0.02530  0.88600  0.52116  Biso   1.000  C
  C526     1.0000 0.97470  0.86070  0.97884  Biso   1.000  C
  C527     1.0000 0.88600  0.02530  0.97884  Biso   1.000  C
  C528     1.0000 0.13930  0.11400  0.97884  Biso   1.000  C
  C529     1.0000 0.52737  0.30803  0.85449  Biso   1.000  C
  C530     1.0000 0.78067  0.47263  0.85449  Biso   1.000  C
  C531     1.0000 0.69197  0.21933  0.85449  Biso   1.000  C
  C532     1.0000 0.64137  0.19403  0.31217  Biso   1.000  C
  C533     1.0000 0.55267  0.35863  0.31217  Biso   1.000  C
  C534     1.0000 0.80597  0.44733  0.31217  Biso   1.000  C
  C535     1.0000 0.19403  0.64137  0.18783  Biso   1.000  C
  C536     1.0000 0.44733  0.80597  0.18783  Biso   1.000  C
  C537     1.0000 0.35863  0.55267  0.18783  Biso   1.000  C
  C538     1.0000 0.30803  0.52737  0.64551  Biso   1.000  C
  C539     1.0000 0.21933  0.69197  0.64551  Biso   1.000  C
  C540     1.0000 0.47263  0.78067  0.64551  Biso   1.000  C
  O145     1.0000 0.19230  0.09370  0.47480  Biso   1.000  O
  O146     1.0000 0.90140  0.80770  0.47480  Biso   1.000  O
  O147     1.0000 0.90630  0.09860  0.47480  Biso   1.000  O
  O148     1.0000 0.09370  0.19230  0.02520  Biso   1.000  O
  O149     1.0000 0.09860  0.90630  0.02520  Biso   1.000  O
  O150     1.0000 0.80770  0.90140  0.02520  Biso   1.000  O
  O151     1.0000 0.85897  0.42703  0.80813  Biso   1.000  O
  O152     1.0000 0.56807  0.14103  0.80813  Biso   1.000  O
  O153     1.0000 0.57297  0.43193  0.80813  Biso   1.000  O
  O154     1.0000 0.76037  0.52563  0.35853  Biso   1.000  O
  O155     1.0000 0.76527  0.23963  0.35853  Biso   1.000  O
  O156     1.0000 0.47437  0.23473  0.35853  Biso   1.000  O
  O157     1.0000 0.52563  0.76037  0.14147  Biso   1.000  O
  O158     1.0000 0.23473  0.47437  0.14147  Biso   1.000  O
  O159     1.0000 0.23963  0.76527  0.14147  Biso   1.000  O
  O160     1.0000 0.42703  0.85897  0.69187  Biso   1.000  O
  O161     1.0000 0.43193  0.57297  0.69187  Biso   1.000  O
  O162     1.0000 0.14103  0.56807  0.69187  Biso   1.000  O
  O163     1.0000 0.80770  0.90630  0.52520  Biso   1.000  O
  O164     1.0000 0.09860  0.19230  0.52520  Biso   1.000  O
  O165     1.0000 0.09370  0.90140  0.52520  Biso   1.000  O
  O166     1.0000 0.90630  0.80770  0.97480  Biso   1.000  O
  O167     1.0000 0.90140  0.09370  0.97480  Biso   1.000  O
  O168     1.0000 0.19230  0.09860  0.97480  Biso   1.000  O
  O169     1.0000 0.47437  0.23963  0.85853  Biso   1.000  O
  O170     1.0000 0.76527  0.52563  0.85853  Biso   1.000  O
  O171     1.0000 0.76037  0.23473  0.85853  Biso   1.000  O
  O172     1.0000 0.57297  0.14103  0.30813  Biso   1.000  O
  O173     1.0000 0.56807  0.42703  0.30813  Biso   1.000  O
  O174     1.0000 0.85897  0.43193  0.30813  Biso   1.000  O
  O175     1.0000 0.14103  0.57297  0.19187  Biso   1.000  O
  O176     1.0000 0.43193  0.85897  0.19187  Biso   1.000  O
  O177     1.0000 0.42703  0.56807  0.19187  Biso   1.000  O
  O178     1.0000 0.23963  0.47437  0.64147  Biso   1.000  O
  O179     1.0000 0.23473  0.76037  0.64147  Biso   1.000  O
  O180     1.0000 0.52563  0.76527  0.64147  Biso   1.000  O
  O181     1.0000 0.08630  0.95680  0.48290  Biso   1.000  O
  O182     1.0000 0.87050  0.91370  0.48290  Biso   1.000  O
  O183     1.0000 0.04320  0.12950  0.48290  Biso   1.000  O
  O184     1.0000 0.95680  0.08630  0.01710  Biso   1.000  O
  O185     1.0000 0.12950  0.04320  0.01710  Biso   1.000  O
  O186     1.0000 0.91370  0.87050  0.01710  Biso   1.000  O
  O187     1.0000 0.75297  0.29013  0.81623  Biso   1.000  O
  O188     1.0000 0.53717  0.24703  0.81623  Biso   1.000  O
  O189     1.0000 0.70987  0.46283  0.81623  Biso   1.000  O
  O190     1.0000 0.62347  0.41963  0.35043  Biso   1.000  O
  O191     1.0000 0.79617  0.37653  0.35043  Biso   1.000  O
  O192     1.0000 0.58037  0.20383  0.35043  Biso   1.000  O
  O193     1.0000 0.41963  0.62347  0.14957  Biso   1.000  O
  O194     1.0000 0.20383  0.58037  0.14957  Biso   1.000  O
  O195     1.0000 0.37653  0.79617  0.14957  Biso   1.000  O
  O196     1.0000 0.29013  0.75297  0.68377  Biso   1.000  O
  O197     1.0000 0.46283  0.70987  0.68377  Biso   1.000  O
  O198     1.0000 0.24703  0.53717  0.68377  Biso   1.000  O
  O199     1.0000 0.91370  0.04320  0.51710  Biso   1.000  O
  O200     1.0000 0.12950  0.08630  0.51710  Biso   1.000  O
  O201     1.0000 0.95680  0.87050  0.51710  Biso   1.000  O
  O202     1.0000 0.04320  0.91370  0.98290  Biso   1.000  O
  O203     1.0000 0.87050  0.95680  0.98290  Biso   1.000  O
  O204     1.0000 0.08630  0.12950  0.98290  Biso   1.000  O
  O205     1.0000 0.58037  0.37653  0.85043  Biso   1.000  O
  O206     1.0000 0.79617  0.41963  0.85043  Biso   1.000  O
  O207     1.0000 0.62347  0.20383  0.85043  Biso   1.000  O
  O208     1.0000 0.70987  0.24703  0.31623  Biso   1.000  O
  O209     1.0000 0.53717  0.29013  0.31623  Biso   1.000  O
  O210     1.0000 0.75297  0.46283  0.31623  Biso   1.000  O
  O211     1.0000 0.24703  0.70987  0.18377  Biso   1.000  O
  O212     1.0000 0.46283  0.75297  0.18377  Biso   1.000  O
  O213     1.0000 0.29013  0.53717  0.18377  Biso   1.000  O
  O214     1.0000 0.37653  0.58037  0.64957  Biso   1.000  O
  O215     1.0000 0.20383  0.62347  0.64957  Biso   1.000  O
  O216     1.0000 0.41963  0.79617  0.64957  Biso   1.000  O
  C541     1.0000 0.57900  0.50000  0.94230  Biso   1.000  C
  C542     1.0000 0.92100  0.42100  0.94230  Biso   1.000  C
  C543     1.0000 0.50000  0.07900  0.94230  Biso   1.000  C
  C544     1.0000 0.50000  0.57900  0.55770  Biso   1.000  C
  C545     1.0000 0.07900  0.50000  0.55770  Biso   1.000  C
  C546     1.0000 0.42100  0.92100  0.55770  Biso   1.000  C
  C547     1.0000 0.24567  0.83333  0.27563  Biso   1.000  C
  C548     1.0000 0.58767  0.75433  0.27563  Biso   1.000  C
  C549     1.0000 0.16667  0.41233  0.27563  Biso   1.000  C
  C550     1.0000 0.16667  0.91233  0.89103  Biso   1.000  C
  C551     1.0000 0.74567  0.83333  0.89103  Biso   1.000  C
  C552     1.0000 0.08767  0.25433  0.89103  Biso   1.000  C
  C553     1.0000 0.91233  0.16667  0.60897  Biso   1.000  C
  C554     1.0000 0.25433  0.08767  0.60897  Biso   1.000  C
  C555     1.0000 0.83333  0.74567  0.60897  Biso   1.000  C
  C556     1.0000 0.83333  0.24567  0.22437  Biso   1.000  C
  C557     1.0000 0.41233  0.16667  0.22437  Biso   1.000  C
  C558     1.0000 0.75433  0.58767  0.22437  Biso   1.000  C
  C559     1.0000 0.42100  0.50000  0.05770  Biso   1.000  C
  C560     1.0000 0.07900  0.57900  0.05770  Biso   1.000  C
  C561     1.0000 0.50000  0.92100  0.05770  Biso   1.000  C
  C562     1.0000 0.50000  0.42100  0.44230  Biso   1.000  C
  C563     1.0000 0.92100  0.50000  0.44230  Biso   1.000  C
  C564     1.0000 0.57900  0.07900  0.44230  Biso   1.000  C
  C565     1.0000 0.08767  0.83333  0.39103  Biso   1.000  C
  C566     1.0000 0.74567  0.91233  0.39103  Biso   1.000  C
  C567     1.0000 0.16667  0.25433  0.39103  Biso   1.000  C
  C568     1.0000 0.16667  0.75433  0.77563  Biso   1.000  C
  C569     1.0000 0.58767  0.83333  0.77563  Biso   1.000  C
  C570     1.0000 0.24567  0.41233  0.77563  Biso   1.000  C
  C571     1.0000 0.75433  0.16667  0.72437  Biso   1.000  C
  C572     1.0000 0.41233  0.24567  0.72437  Biso   1.000  C
  C573     1.0000 0.83333  0.58767  0.72437  Biso   1.000  C
  C574     1.0000 0.83333  0.08767  0.10897  Biso   1.000  C
  C575     1.0000 0.25433  0.16667  0.10897  Biso   1.000  C
  C576     1.0000 0.91233  0.74567  0.10897  Biso   1.000  C
  O217     1.0000 0.52500  0.51500  0.93800  Biso   1.000  O
  O218     1.0000 0.99000  0.47500  0.93800  Biso   1.000  O
  O219     1.0000 0.48500  0.01000  0.93800  Biso   1.000  O
  O220     1.0000 0.51500  0.52500  0.56200  Biso   1.000  O
  O221     1.0000 0.01000  0.48500  0.56200  Biso   1.000  O
  O222     1.0000 0.47500  0.99000  0.56200  Biso   1.000  O
  O223     1.0000 0.19167  0.84833  0.27133  Biso   1.000  O
  O224     1.0000 0.65667  0.80833  0.27133  Biso   1.000  O
  O225     1.0000 0.15167  0.34333  0.27133  Biso   1.000  O
  O226     1.0000 0.18167  0.85833  0.89533  Biso   1.000  O
  O227     1.0000 0.67667  0.81833  0.89533  Biso   1.000  O
  O228     1.0000 0.14167  0.32333  0.89533  Biso   1.000  O
  O229     1.0000 0.85833  0.18167  0.60467  Biso   1.000  O
  O230     1.0000 0.32333  0.14167  0.60467  Biso   1.000  O
  O231     1.0000 0.81833  0.67667  0.60467  Biso   1.000  O
  O232     1.0000 0.84833  0.19167  0.22867  Biso   1.000  O
  O233     1.0000 0.34333  0.15167  0.22867  Biso   1.000  O
  O234     1.0000 0.80833  0.65667  0.22867  Biso   1.000  O
  O235     1.0000 0.47500  0.48500  0.06200  Biso   1.000  O
  O236     1.0000 0.01000  0.52500  0.06200  Biso   1.000  O
  O237     1.0000 0.51500  0.99000  0.06200  Biso   1.000  O
  O238     1.0000 0.48500  0.47500  0.43800  Biso   1.000  O
  O239     1.0000 0.99000  0.51500  0.43800  Biso   1.000  O
  O240     1.0000 0.52500  0.01000  0.43800  Biso   1.000  O
  O241     1.0000 0.14167  0.81833  0.39533  Biso   1.000  O
  O242     1.0000 0.67667  0.85833  0.39533  Biso   1.000  O
  O243     1.0000 0.18167  0.32333  0.39533  Biso   1.000  O
  O244     1.0000 0.15167  0.80833  0.77133  Biso   1.000  O
  O245     1.0000 0.65667  0.84833  0.77133  Biso   1.000  O
  O246     1.0000 0.19167  0.34333  0.77133  Biso   1.000  O
  O247     1.0000 0.80833  0.15167  0.72867  Biso   1.000  O
  O248     1.0000 0.34333  0.19167  0.72867  Biso   1.000  O
  O249     1.0000 0.84833  0.65667  0.72867  Biso   1.000  O
  O250     1.0000 0.81833  0.14167  0.10467  Biso   1.000  O
  O251     1.0000 0.32333  0.18167  0.10467  Biso   1.000  O
  O252     1.0000 0.85833  0.67667  0.10467  Biso   1.000  O
  O253     1.0000 0.63200  0.48500  0.94660  Biso   1.000  O
  O254     1.0000 0.85300  0.36800  0.94660  Biso   1.000  O
  O255     1.0000 0.51500  0.14700  0.94660  Biso   1.000  O
  O256     1.0000 0.48500  0.63200  0.55340  Biso   1.000  O
  O257     1.0000 0.14700  0.51500  0.55340  Biso   1.000  O
  O258     1.0000 0.36800  0.85300  0.55340  Biso   1.000  O
  O259     1.0000 0.29867  0.81833  0.27993  Biso   1.000  O
  O260     1.0000 0.51967  0.70133  0.27993  Biso   1.000  O
  O261     1.0000 0.18167  0.48033  0.27993  Biso   1.000  O
  O262     1.0000 0.15167  0.96533  0.88673  Biso   1.000  O
  O263     1.0000 0.81367  0.84833  0.88673  Biso   1.000  O
  O264     1.0000 0.03467  0.18633  0.88673  Biso   1.000  O
  O265     1.0000 0.96533  0.15167  0.61327  Biso   1.000  O
  O266     1.0000 0.18633  0.03467  0.61327  Biso   1.000  O
  O267     1.0000 0.84833  0.81367  0.61327  Biso   1.000  O
  O268     1.0000 0.81833  0.29867  0.22007  Biso   1.000  O
  O269     1.0000 0.48033  0.18167  0.22007  Biso   1.000  O
  O270     1.0000 0.70133  0.51967  0.22007  Biso   1.000  O
  O271     1.0000 0.36800  0.51500  0.05340  Biso   1.000  O
  O272     1.0000 0.14700  0.63200  0.05340  Biso   1.000  O
  O273     1.0000 0.48500  0.85300  0.05340  Biso   1.000  O
  O274     1.0000 0.51500  0.36800  0.44660  Biso   1.000  O
  O275     1.0000 0.85300  0.48500  0.44660  Biso   1.000  O
  O276     1.0000 0.63200  0.14700  0.44660  Biso   1.000  O
  O277     1.0000 0.03467  0.84833  0.38673  Biso   1.000  O
  O278     1.0000 0.81367  0.96533  0.38673  Biso   1.000  O
  O279     1.0000 0.15167  0.18633  0.38673  Biso   1.000  O
  O280     1.0000 0.18167  0.70133  0.77993  Biso   1.000  O
  O281     1.0000 0.51967  0.81833  0.77993  Biso   1.000  O
  O282     1.0000 0.29867  0.48033  0.77993  Biso   1.000  O
  O283     1.0000 0.70133  0.18167  0.72007  Biso   1.000  O
  O284     1.0000 0.48033  0.29867  0.72007  Biso   1.000  O
  O285     1.0000 0.81833  0.51967  0.72007  Biso   1.000  O
  O286     1.0000 0.84833  0.03467  0.11327  Biso   1.000  O
  O287     1.0000 0.18633  0.15167  0.11327  Biso   1.000  O
  O288     1.0000 0.96533  0.81367  0.11327  Biso   1.000  O
  C577     1.0000 0.00000  0.00000  0.42835  Biso   1.000  C
  C578     1.0000 0.00000  0.00000  0.07165  Biso   1.000  C
  C579     1.0000 0.66667  0.33333  0.76168  Biso   1.000  C
  C580     1.0000 0.66667  0.33333  0.40498  Biso   1.000  C
  C581     1.0000 0.33333  0.66667  0.09502  Biso   1.000  C
  C582     1.0000 0.33333  0.66667  0.73832  Biso   1.000  C
  C583     1.0000 0.00000  0.00000  0.57165  Biso   1.000  C
  C584     1.0000 0.00000  0.00000  0.92835  Biso   1.000  C
  C585     1.0000 0.66667  0.33333  0.90498  Biso   1.000  C
  C586     1.0000 0.66667  0.33333  0.26168  Biso   1.000  C
  C587     1.0000 0.33333  0.66667  0.23832  Biso   1.000  C
  C588     1.0000 0.33333  0.66667  0.59502  Biso   1.000  C
  O289     1.0000 0.02000  0.04220  0.41516  Biso   1.000  O
  O290     1.0000 0.02220  0.98000  0.41516  Biso   1.000  O
  O291     1.0000 0.95780  0.97780  0.41516  Biso   1.000  O
  O292     1.0000 0.04220  0.02000  0.08484  Biso   1.000  O
  O293     1.0000 0.97780  0.95780  0.08484  Biso   1.000  O
  O294     1.0000 0.98000  0.02220  0.08484  Biso   1.000  O
  O295     1.0000 0.68667  0.37553  0.74849  Biso   1.000  O
  O296     1.0000 0.68887  0.31333  0.74849  Biso   1.000  O
  O297     1.0000 0.62447  0.31113  0.74849  Biso   1.000  O
  O298     1.0000 0.70887  0.35333  0.41817  Biso   1.000  O
  O299     1.0000 0.64447  0.29113  0.41817  Biso   1.000  O
  O300     1.0000 0.64667  0.35553  0.41817  Biso   1.000  O
  O301     1.0000 0.35333  0.70887  0.08183  Biso   1.000  O
  O302     1.0000 0.35553  0.64667  0.08183  Biso   1.000  O
  O303     1.0000 0.29113  0.64447  0.08183  Biso   1.000  O
  O304     1.0000 0.37553  0.68667  0.75151  Biso   1.000  O
  O305     1.0000 0.31113  0.62447  0.75151  Biso   1.000  O
  O306     1.0000 0.31333  0.68887  0.75151  Biso   1.000  O
  O307     1.0000 0.98000  0.95780  0.58484  Biso   1.000  O
  O308     1.0000 0.97780  0.02000  0.58484  Biso   1.000  O
  O309     1.0000 0.04220  0.02220  0.58484  Biso   1.000  O
  O310     1.0000 0.95780  0.98000  0.91516  Biso   1.000  O
  O311     1.0000 0.02220  0.04220  0.91516  Biso   1.000  O
  O312     1.0000 0.02000  0.97780  0.91516  Biso   1.000  O
  O313     1.0000 0.64667  0.29113  0.91817  Biso   1.000  O
  O314     1.0000 0.64447  0.35333  0.91817  Biso   1.000  O
  O315     1.0000 0.70887  0.35553  0.91817  Biso   1.000  O
  O316     1.0000 0.62447  0.31333  0.24849  Biso   1.000  O
  O317     1.0000 0.68887  0.37553  0.24849  Biso   1.000  O
  O318     1.0000 0.68667  0.31113  0.24849  Biso   1.000  O
  O319     1.0000 0.31333  0.62447  0.25151  Biso   1.000  O
  O320     1.0000 0.31113  0.68667  0.25151  Biso   1.000  O
  O321     1.0000 0.37553  0.68887  0.25151  Biso   1.000  O
  O322     1.0000 0.29113  0.64667  0.58183  Biso   1.000  O
  O323     1.0000 0.35553  0.70887  0.58183  Biso   1.000  O
  O324     1.0000 0.35333  0.64447  0.58183  Biso   1.000  O
  O325     1.0000 0.98000  0.95780  0.44154  Biso   1.000  O
  O326     1.0000 0.97780  0.02000  0.44154  Biso   1.000  O
  O327     1.0000 0.04220  0.02220  0.44154  Biso   1.000  O
  O328     1.0000 0.95780  0.98000  0.05846  Biso   1.000  O
  O329     1.0000 0.02220  0.04220  0.05846  Biso   1.000  O
  O330     1.0000 0.02000  0.97780  0.05846  Biso   1.000  O
  O331     1.0000 0.64667  0.29113  0.77487  Biso   1.000  O
  O332     1.0000 0.64447  0.35333  0.77487  Biso   1.000  O
  O333     1.0000 0.70887  0.35553  0.77487  Biso   1.000  O
  O334     1.0000 0.62447  0.31333  0.39179  Biso   1.000  O
  O335     1.0000 0.68887  0.37553  0.39179  Biso   1.000  O
  O336     1.0000 0.68667  0.31113  0.39179  Biso   1.000  O
  O337     1.0000 0.31333  0.62447  0.10821  Biso   1.000  O
  O338     1.0000 0.31113  0.68667  0.10821  Biso   1.000  O
  O339     1.0000 0.37553  0.68887  0.10821  Biso   1.000  O
  O340     1.0000 0.29113  0.64667  0.72513  Biso   1.000  O
  O341     1.0000 0.35553  0.70887  0.72513  Biso   1.000  O
  O342     1.0000 0.35333  0.64447  0.72513  Biso   1.000  O
  O343     1.0000 0.02000  0.04220  0.55846  Biso   1.000  O
  O344     1.0000 0.02220  0.98000  0.55846  Biso   1.000  O
  O345     1.0000 0.95780  0.97780  0.55846  Biso   1.000  O
  O346     1.0000 0.04220  0.02000  0.94154  Biso   1.000  O
  O347     1.0000 0.97780  0.95780  0.94154  Biso   1.000  O
  O348     1.0000 0.98000  0.02220  0.94154  Biso   1.000  O
  O349     1.0000 0.68667  0.37553  0.89179  Biso   1.000  O
  O350     1.0000 0.68887  0.31333  0.89179  Biso   1.000  O
  O351     1.0000 0.62447  0.31113  0.89179  Biso   1.000  O
  O352     1.0000 0.70887  0.35333  0.27487  Biso   1.000  O
  O353     1.0000 0.64447  0.29113  0.27487  Biso   1.000  O
  O354     1.0000 0.64667  0.35553  0.27487  Biso   1.000  O
  O355     1.0000 0.35333  0.70887  0.22513  Biso   1.000  O
  O356     1.0000 0.35553  0.64667  0.22513  Biso   1.000  O
  O357     1.0000 0.29113  0.64447  0.22513  Biso   1.000  O
  O358     1.0000 0.37553  0.68667  0.60821  Biso   1.000  O
  O359     1.0000 0.31113  0.62447  0.60821  Biso   1.000  O
  O360     1.0000 0.31333  0.68887  0.60821  Biso   1.000  O
