data_image0
_cell_length_a       18.272
_cell_length_b       18.272
_cell_length_c       72.65
_cell_angle_alpha    90
_cell_angle_beta     90
_cell_angle_gamma    120

_symmetry_space_group_name_H-M    "P 1"
_symmetry_int_tables_number       1

loop_
  _symmetry_equiv_pos_as_xyz
  'x, y, z'

loop_
  _atom_site_label
  _atom_site_occupancy
  _atom_site_fract_x
  _atom_site_fract_y
  _atom_site_fract_z
  _atom_site_thermal_displace_type
  _atom_site_B_iso_or_equiv
  _atom_site_type_symbol
  Cu1      1.0000 0.20660  0.38830  0.57067  Biso   1.000  Cu
  Cu2      1.0000 0.18170  0.79340  0.57067  Biso   1.000  Cu
  Cu3      1.0000 0.61170  0.81830  0.57067  Biso   1.000  Cu
  Cu4      1.0000 0.38830  0.20660  0.92933  Biso   1.000  Cu
  Cu5      1.0000 0.81830  0.61170  0.92933  Biso   1.000  Cu
  Cu6      1.0000 0.79340  0.18170  0.92933  Biso   1.000  Cu
  Cu7      1.0000 0.87327  0.72163  0.90400  Biso   1.000  Cu
  Cu8      1.0000 0.84837  0.12673  0.90400  Biso   1.000  Cu
  Cu9      1.0000 0.27837  0.15163  0.90400  Biso   1.000  Cu
  Cu10     1.0000 0.05497  0.53993  0.26266  Biso   1.000  Cu
  Cu11     1.0000 0.48497  0.94503  0.26266  Biso   1.000  Cu
  Cu12     1.0000 0.46007  0.51503  0.26266  Biso   1.000  Cu
  Cu13     1.0000 0.53993  0.05497  0.23734  Biso   1.000  Cu
  Cu14     1.0000 0.51503  0.46007  0.23734  Biso   1.000  Cu
  Cu15     1.0000 0.94503  0.48497  0.23734  Biso   1.000  Cu
  Cu16     1.0000 0.72163  0.87327  0.59600  Biso   1.000  Cu
  Cu17     1.0000 0.15163  0.27837  0.59600  Biso   1.000  Cu
  Cu18     1.0000 0.12673  0.84837  0.59600  Biso   1.000  Cu
  Cu19     1.0000 0.79340  0.61170  0.42933  Biso   1.000  Cu
  Cu20     1.0000 0.81830  0.20660  0.42933  Biso   1.000  Cu
  Cu21     1.0000 0.38830  0.18170  0.42933  Biso   1.000  Cu
  Cu22     1.0000 0.61170  0.79340  0.07067  Biso   1.000  Cu
  Cu23     1.0000 0.18170  0.38830  0.07067  Biso   1.000  Cu
  Cu24     1.0000 0.20660  0.81830  0.07067  Biso   1.000  Cu
  Cu25     1.0000 0.46007  0.94503  0.76266  Biso   1.000  Cu
  Cu26     1.0000 0.48497  0.53993  0.76266  Biso   1.000  Cu
  Cu27     1.0000 0.05497  0.51503  0.76266  Biso   1.000  Cu
  Cu28     1.0000 0.27837  0.12673  0.40400  Biso   1.000  Cu
  Cu29     1.0000 0.84837  0.72163  0.40400  Biso   1.000  Cu
  Cu30     1.0000 0.87327  0.15163  0.40400  Biso   1.000  Cu
  Cu31     1.0000 0.12673  0.27837  0.09600  Biso   1.000  Cu
  Cu32     1.0000 0.15163  0.87327  0.09600  Biso   1.000  Cu
  Cu33     1.0000 0.72163  0.84837  0.09600  Biso   1.000  Cu
  Cu34     1.0000 0.94503  0.46007  0.73734  Biso   1.000  Cu
  Cu35     1.0000 0.51503  0.05497  0.73734  Biso   1.000  Cu
  Cu36     1.0000 0.53993  0.48497  0.73734  Biso   1.000  Cu
  C1       1.0000 0.56070  0.47400  0.66194  Biso   1.000  C
  C2       1.0000 0.91330  0.43930  0.66194  Biso   1.000  C
  C3       1.0000 0.52600  0.08670  0.66194  Biso   1.000  C
  C4       1.0000 0.47400  0.56070  0.83806  Biso   1.000  C
  C5       1.0000 0.08670  0.52600  0.83806  Biso   1.000  C
  C6       1.0000 0.43930  0.91330  0.83806  Biso   1.000  C
  C7       1.0000 0.22737  0.80733  0.99527  Biso   1.000  C
  C8       1.0000 0.57997  0.77263  0.99527  Biso   1.000  C
  C9       1.0000 0.19267  0.42003  0.99527  Biso   1.000  C
  C10      1.0000 0.14067  0.89403  0.17139  Biso   1.000  C
  C11      1.0000 0.75337  0.85933  0.17139  Biso   1.000  C
  C12      1.0000 0.10597  0.24663  0.17139  Biso   1.000  C
  C13      1.0000 0.89403  0.14067  0.32861  Biso   1.000  C
  C14      1.0000 0.24663  0.10597  0.32861  Biso   1.000  C
  C15      1.0000 0.85933  0.75337  0.32861  Biso   1.000  C
  C16      1.0000 0.80733  0.22737  0.50473  Biso   1.000  C
  C17      1.0000 0.42003  0.19267  0.50473  Biso   1.000  C
  C18      1.0000 0.77263  0.57997  0.50473  Biso   1.000  C
  C19      1.0000 0.43930  0.52600  0.33806  Biso   1.000  C
  C20      1.0000 0.08670  0.56070  0.33806  Biso   1.000  C
  C21      1.0000 0.47400  0.91330  0.33806  Biso   1.000  C
  C22      1.0000 0.52600  0.43930  0.16194  Biso   1.000  C
  C23      1.0000 0.91330  0.47400  0.16194  Biso   1.000  C
  C24      1.0000 0.56070  0.08670  0.16194  Biso   1.000  C
  C25      1.0000 0.10597  0.85933  0.67139  Biso   1.000  C
  C26      1.0000 0.75337  0.89403  0.67139  Biso   1.000  C
  C27      1.0000 0.14067  0.24663  0.67139  Biso   1.000  C
  C28      1.0000 0.19267  0.77263  0.49527  Biso   1.000  C
  C29      1.0000 0.57997  0.80733  0.49527  Biso   1.000  C
  C30      1.0000 0.22737  0.42003  0.49527  Biso   1.000  C
  C31      1.0000 0.77263  0.19267  0.00473  Biso   1.000  C
  C32      1.0000 0.42003  0.22737  0.00473  Biso   1.000  C
  C33      1.0000 0.80733  0.57997  0.00473  Biso   1.000  C
  C34      1.0000 0.85933  0.10597  0.82861  Biso   1.000  C
  C35      1.0000 0.24663  0.14067  0.82861  Biso   1.000  C
  C36      1.0000 0.89403  0.75337  0.82861  Biso   1.000  C
  C37      1.0000 0.50774  0.51603  0.63127  Biso   1.000  C
  C38      1.0000 0.00829  0.49226  0.63127  Biso   1.000  C
  C39      1.0000 0.48397  0.99171  0.63127  Biso   1.000  C
  C40      1.0000 0.51603  0.50774  0.86873  Biso   1.000  C
  C41      1.0000 0.99171  0.48397  0.86873  Biso   1.000  C
  C42      1.0000 0.49226  0.00829  0.86873  Biso   1.000  C
  C43      1.0000 0.17441  0.84936  0.96460  Biso   1.000  C
  C44      1.0000 0.67496  0.82559  0.96460  Biso   1.000  C
  C45      1.0000 0.15064  0.32504  0.96460  Biso   1.000  C
  C46      1.0000 0.18270  0.84107  0.20206  Biso   1.000  C
  C47      1.0000 0.65838  0.81730  0.20206  Biso   1.000  C
  C48      1.0000 0.15893  0.34162  0.20206  Biso   1.000  C
  C49      1.0000 0.84107  0.18270  0.29794  Biso   1.000  C
  C50      1.0000 0.34162  0.15893  0.29794  Biso   1.000  C
  C51      1.0000 0.81730  0.65838  0.29794  Biso   1.000  C
  C52      1.0000 0.84936  0.17441  0.53540  Biso   1.000  C
  C53      1.0000 0.32504  0.15064  0.53540  Biso   1.000  C
  C54      1.0000 0.82559  0.67496  0.53540  Biso   1.000  C
  C55      1.0000 0.49226  0.48397  0.36873  Biso   1.000  C
  C56      1.0000 0.99171  0.50774  0.36873  Biso   1.000  C
  C57      1.0000 0.51603  0.00829  0.36873  Biso   1.000  C
  C58      1.0000 0.48397  0.49226  0.13127  Biso   1.000  C
  C59      1.0000 0.00829  0.51603  0.13127  Biso   1.000  C
  C60      1.0000 0.50774  0.99171  0.13127  Biso   1.000  C
  C61      1.0000 0.15893  0.81730  0.70206  Biso   1.000  C
  C62      1.0000 0.65838  0.84107  0.70206  Biso   1.000  C
  C63      1.0000 0.18270  0.34162  0.70206  Biso   1.000  C
  C64      1.0000 0.15064  0.82559  0.46460  Biso   1.000  C
  C65      1.0000 0.67496  0.84936  0.46460  Biso   1.000  C
  C66      1.0000 0.17441  0.32504  0.46460  Biso   1.000  C
  C67      1.0000 0.82559  0.15064  0.03540  Biso   1.000  C
  C68      1.0000 0.32504  0.17441  0.03540  Biso   1.000  C
  C69      1.0000 0.84936  0.67496  0.03540  Biso   1.000  C
  C70      1.0000 0.81730  0.15893  0.79794  Biso   1.000  C
  C71      1.0000 0.34162  0.18270  0.79794  Biso   1.000  C
  C72      1.0000 0.84107  0.65838  0.79794  Biso   1.000  C
  C73      1.0000 0.42993  0.45971  0.62308  Biso   1.000  C
  C74      1.0000 0.02978  0.57007  0.62308  Biso   1.000  C
  C75      1.0000 0.54029  0.97022  0.62308  Biso   1.000  C
  C76      1.0000 0.45971  0.42993  0.87692  Biso   1.000  C
  C77      1.0000 0.97022  0.54029  0.87692  Biso   1.000  C
  C78      1.0000 0.57007  0.02978  0.87692  Biso   1.000  C
  C79      1.0000 0.09660  0.79304  0.95641  Biso   1.000  C
  C80      1.0000 0.69645  0.90340  0.95641  Biso   1.000  C
  C81      1.0000 0.20696  0.30355  0.95641  Biso   1.000  C
  C82      1.0000 0.12638  0.76326  0.21025  Biso   1.000  C
  C83      1.0000 0.63689  0.87362  0.21025  Biso   1.000  C
  C84      1.0000 0.23674  0.36311  0.21025  Biso   1.000  C
  C85      1.0000 0.76326  0.12638  0.28975  Biso   1.000  C
  C86      1.0000 0.36311  0.23674  0.28975  Biso   1.000  C
  C87      1.0000 0.87362  0.63689  0.28975  Biso   1.000  C
  C88      1.0000 0.79304  0.09660  0.54359  Biso   1.000  C
  C89      1.0000 0.30355  0.20696  0.54359  Biso   1.000  C
  C90      1.0000 0.90340  0.69645  0.54359  Biso   1.000  C
  C91      1.0000 0.57007  0.54029  0.37692  Biso   1.000  C
  C92      1.0000 0.97022  0.42993  0.37692  Biso   1.000  C
  C93      1.0000 0.45971  0.02978  0.37692  Biso   1.000  C
  C94      1.0000 0.54029  0.57007  0.12308  Biso   1.000  C
  C95      1.0000 0.02978  0.45971  0.12308  Biso   1.000  C
  C96      1.0000 0.42993  0.97022  0.12308  Biso   1.000  C
  C97      1.0000 0.23674  0.87362  0.71025  Biso   1.000  C
  C98      1.0000 0.63689  0.76326  0.71025  Biso   1.000  C
  C99      1.0000 0.12638  0.36311  0.71025  Biso   1.000  C
  C100     1.0000 0.20696  0.90340  0.45641  Biso   1.000  C
  C101     1.0000 0.69645  0.79304  0.45641  Biso   1.000  C
  C102     1.0000 0.09660  0.30355  0.45641  Biso   1.000  C
  C103     1.0000 0.90340  0.20696  0.04359  Biso   1.000  C
  C104     1.0000 0.30355  0.09660  0.04359  Biso   1.000  C
  C105     1.0000 0.79304  0.69645  0.04359  Biso   1.000  C
  C106     1.0000 0.87362  0.23674  0.78975  Biso   1.000  C
  C107     1.0000 0.36311  0.12638  0.78975  Biso   1.000  C
  C108     1.0000 0.76326  0.63689  0.78975  Biso   1.000  C
  C109     1.0000 0.40298  0.48414  0.60733  Biso   1.000  C
  C110     1.0000 0.08116  0.59702  0.60733  Biso   1.000  C
  C111     1.0000 0.51586  0.91884  0.60733  Biso   1.000  C
  C112     1.0000 0.48414  0.40298  0.89267  Biso   1.000  C
  C113     1.0000 0.91884  0.51586  0.89267  Biso   1.000  C
  C114     1.0000 0.59702  0.08116  0.89267  Biso   1.000  C
  C115     1.0000 0.06965  0.81747  0.94066  Biso   1.000  C
  C116     1.0000 0.74783  0.93035  0.94066  Biso   1.000  C
  C117     1.0000 0.18253  0.25217  0.94066  Biso   1.000  C
  C118     1.0000 0.15081  0.73631  0.22600  Biso   1.000  C
  C119     1.0000 0.58551  0.84919  0.22600  Biso   1.000  C
  C120     1.0000 0.26369  0.41449  0.22600  Biso   1.000  C
  C121     1.0000 0.73631  0.15081  0.27400  Biso   1.000  C
  C122     1.0000 0.41449  0.26369  0.27400  Biso   1.000  C
  C123     1.0000 0.84919  0.58551  0.27400  Biso   1.000  C
  C124     1.0000 0.81747  0.06965  0.55934  Biso   1.000  C
  C125     1.0000 0.25217  0.18253  0.55934  Biso   1.000  C
  C126     1.0000 0.93035  0.74783  0.55934  Biso   1.000  C
  C127     1.0000 0.59702  0.51586  0.39267  Biso   1.000  C
  C128     1.0000 0.91884  0.40298  0.39267  Biso   1.000  C
  C129     1.0000 0.48414  0.08116  0.39267  Biso   1.000  C
  C130     1.0000 0.51586  0.59702  0.10733  Biso   1.000  C
  C131     1.0000 0.08116  0.48414  0.10733  Biso   1.000  C
  C132     1.0000 0.40298  0.91884  0.10733  Biso   1.000  C
  C133     1.0000 0.26369  0.84919  0.72600  Biso   1.000  C
  C134     1.0000 0.58551  0.73631  0.72600  Biso   1.000  C
  C135     1.0000 0.15081  0.41449  0.72600  Biso   1.000  C
  C136     1.0000 0.18253  0.93035  0.44066  Biso   1.000  C
  C137     1.0000 0.74783  0.81747  0.44066  Biso   1.000  C
  C138     1.0000 0.06965  0.25217  0.44066  Biso   1.000  C
  C139     1.0000 0.93035  0.18253  0.05934  Biso   1.000  C
  C140     1.0000 0.25217  0.06965  0.05934  Biso   1.000  C
  C141     1.0000 0.81747  0.74783  0.05934  Biso   1.000  C
  C142     1.0000 0.84919  0.26369  0.77400  Biso   1.000  C
  C143     1.0000 0.41449  0.15081  0.77400  Biso   1.000  C
  C144     1.0000 0.73631  0.58551  0.77400  Biso   1.000  C
  C145     1.0000 0.45383  0.56488  0.59977  Biso   1.000  C
  C146     1.0000 0.11105  0.54617  0.59977  Biso   1.000  C
  C147     1.0000 0.43512  0.88895  0.59977  Biso   1.000  C
  C148     1.0000 0.56488  0.45383  0.90023  Biso   1.000  C
  C149     1.0000 0.88895  0.43512  0.90023  Biso   1.000  C
  C150     1.0000 0.54617  0.11105  0.90023  Biso   1.000  C
  C151     1.0000 0.12050  0.89821  0.93310  Biso   1.000  C
  C152     1.0000 0.77772  0.87950  0.93310  Biso   1.000  C
  C153     1.0000 0.10179  0.22228  0.93310  Biso   1.000  C
  C154     1.0000 0.23155  0.78716  0.23356  Biso   1.000  C
  C155     1.0000 0.55562  0.76845  0.23356  Biso   1.000  C
  C156     1.0000 0.21284  0.44438  0.23356  Biso   1.000  C
  C157     1.0000 0.78716  0.23155  0.26644  Biso   1.000  C
  C158     1.0000 0.44438  0.21284  0.26644  Biso   1.000  C
  C159     1.0000 0.76845  0.55562  0.26644  Biso   1.000  C
  C160     1.0000 0.89821  0.12050  0.56690  Biso   1.000  C
  C161     1.0000 0.22228  0.10179  0.56690  Biso   1.000  C
  C162     1.0000 0.87950  0.77772  0.56690  Biso   1.000  C
  C163     1.0000 0.54617  0.43512  0.40023  Biso   1.000  C
  C164     1.0000 0.88895  0.45383  0.40023  Biso   1.000  C
  C165     1.0000 0.56488  0.11105  0.40023  Biso   1.000  C
  C166     1.0000 0.43512  0.54617  0.09977  Biso   1.000  C
  C167     1.0000 0.11105  0.56488  0.09977  Biso   1.000  C
  C168     1.0000 0.45383  0.88895  0.09977  Biso   1.000  C
  C169     1.0000 0.21284  0.76845  0.73356  Biso   1.000  C
  C170     1.0000 0.55562  0.78716  0.73356  Biso   1.000  C
  C171     1.0000 0.23155  0.44438  0.73356  Biso   1.000  C
  C172     1.0000 0.10179  0.87950  0.43310  Biso   1.000  C
  C173     1.0000 0.77772  0.89821  0.43310  Biso   1.000  C
  C174     1.0000 0.12050  0.22228  0.43310  Biso   1.000  C
  C175     1.0000 0.87950  0.10179  0.06690  Biso   1.000  C
  C176     1.0000 0.22228  0.12050  0.06690  Biso   1.000  C
  C177     1.0000 0.89821  0.77772  0.06690  Biso   1.000  C
  C178     1.0000 0.76845  0.21284  0.76644  Biso   1.000  C
  C179     1.0000 0.44438  0.23155  0.76644  Biso   1.000  C
  C180     1.0000 0.78716  0.55562  0.76644  Biso   1.000  C
  C181     1.0000 0.53164  0.62119  0.60795  Biso   1.000  C
  C182     1.0000 0.08955  0.46836  0.60795  Biso   1.000  C
  C183     1.0000 0.37881  0.91045  0.60795  Biso   1.000  C
  C184     1.0000 0.62119  0.53164  0.89205  Biso   1.000  C
  C185     1.0000 0.91045  0.37881  0.89205  Biso   1.000  C
  C186     1.0000 0.46836  0.08955  0.89205  Biso   1.000  C
  C187     1.0000 0.19831  0.95452  0.94128  Biso   1.000  C
  C188     1.0000 0.75622  0.80169  0.94128  Biso   1.000  C
  C189     1.0000 0.04548  0.24378  0.94128  Biso   1.000  C
  C190     1.0000 0.28786  0.86497  0.22538  Biso   1.000  C
  C191     1.0000 0.57712  0.71214  0.22538  Biso   1.000  C
  C192     1.0000 0.13503  0.42288  0.22538  Biso   1.000  C
  C193     1.0000 0.86497  0.28786  0.27462  Biso   1.000  C
  C194     1.0000 0.42288  0.13503  0.27462  Biso   1.000  C
  C195     1.0000 0.71214  0.57712  0.27462  Biso   1.000  C
  C196     1.0000 0.95452  0.19831  0.55872  Biso   1.000  C
  C197     1.0000 0.24378  0.04548  0.55872  Biso   1.000  C
  C198     1.0000 0.80169  0.75622  0.55872  Biso   1.000  C
  C199     1.0000 0.46836  0.37881  0.39205  Biso   1.000  C
  C200     1.0000 0.91045  0.53164  0.39205  Biso   1.000  C
  C201     1.0000 0.62119  0.08955  0.39205  Biso   1.000  C
  C202     1.0000 0.37881  0.46836  0.10795  Biso   1.000  C
  C203     1.0000 0.08955  0.62119  0.10795  Biso   1.000  C
  C204     1.0000 0.53164  0.91045  0.10795  Biso   1.000  C
  C205     1.0000 0.13503  0.71214  0.72538  Biso   1.000  C
  C206     1.0000 0.57712  0.86497  0.72538  Biso   1.000  C
  C207     1.0000 0.28786  0.42288  0.72538  Biso   1.000  C
  C208     1.0000 0.04548  0.80169  0.44128  Biso   1.000  C
  C209     1.0000 0.75622  0.95452  0.44128  Biso   1.000  C
  C210     1.0000 0.19831  0.24378  0.44128  Biso   1.000  C
  C211     1.0000 0.80169  0.04548  0.05872  Biso   1.000  C
  C212     1.0000 0.24378  0.19831  0.05872  Biso   1.000  C
  C213     1.0000 0.95452  0.75622  0.05872  Biso   1.000  C
  C214     1.0000 0.71214  0.13503  0.77462  Biso   1.000  C
  C215     1.0000 0.42288  0.28786  0.77462  Biso   1.000  C
  C216     1.0000 0.86497  0.57712  0.77462  Biso   1.000  C
  C217     1.0000 0.55859  0.59677  0.62370  Biso   1.000  C
  C218     1.0000 0.03818  0.44141  0.62370  Biso   1.000  C
  C219     1.0000 0.40323  0.96182  0.62370  Biso   1.000  C
  C220     1.0000 0.59677  0.55859  0.87630  Biso   1.000  C
  C221     1.0000 0.96182  0.40323  0.87630  Biso   1.000  C
  C222     1.0000 0.44141  0.03818  0.87630  Biso   1.000  C
  C223     1.0000 0.22526  0.93010  0.95703  Biso   1.000  C
  C224     1.0000 0.70485  0.77474  0.95703  Biso   1.000  C
  C225     1.0000 0.06990  0.29515  0.95703  Biso   1.000  C
  C226     1.0000 0.26344  0.89192  0.20963  Biso   1.000  C
  C227     1.0000 0.62849  0.73656  0.20963  Biso   1.000  C
  C228     1.0000 0.10808  0.37151  0.20963  Biso   1.000  C
  C229     1.0000 0.89192  0.26344  0.29037  Biso   1.000  C
  C230     1.0000 0.37151  0.10808  0.29037  Biso   1.000  C
  C231     1.0000 0.73656  0.62849  0.29037  Biso   1.000  C
  C232     1.0000 0.93010  0.22526  0.54297  Biso   1.000  C
  C233     1.0000 0.29515  0.06990  0.54297  Biso   1.000  C
  C234     1.0000 0.77474  0.70485  0.54297  Biso   1.000  C
  C235     1.0000 0.44141  0.40323  0.37630  Biso   1.000  C
  C236     1.0000 0.96182  0.55859  0.37630  Biso   1.000  C
  C237     1.0000 0.59677  0.03818  0.37630  Biso   1.000  C
  C238     1.0000 0.40323  0.44141  0.12370  Biso   1.000  C
  C239     1.0000 0.03818  0.59677  0.12370  Biso   1.000  C
  C240     1.0000 0.55859  0.96182  0.12370  Biso   1.000  C
  C241     1.0000 0.10808  0.73656  0.70963  Biso   1.000  C
  C242     1.0000 0.62849  0.89192  0.70963  Biso   1.000  C
  C243     1.0000 0.26344  0.37151  0.70963  Biso   1.000  C
  C244     1.0000 0.06990  0.77474  0.45703  Biso   1.000  C
  C245     1.0000 0.70485  0.93010  0.45703  Biso   1.000  C
  C246     1.0000 0.22526  0.29515  0.45703  Biso   1.000  C
  C247     1.0000 0.77474  0.06990  0.04297  Biso   1.000  C
  C248     1.0000 0.29515  0.22526  0.04297  Biso   1.000  C
  C249     1.0000 0.93010  0.70485  0.04297  Biso   1.000  C
  C250     1.0000 0.73656  0.10808  0.79037  Biso   1.000  C
  C251     1.0000 0.37151  0.26344  0.79037  Biso   1.000  C
  C252     1.0000 0.89192  0.62849  0.79037  Biso   1.000  C
  H1       1.0000 0.39010  0.39640  0.62900  Biso   1.000  H
  H2       1.0000 0.00630  0.60990  0.62900  Biso   1.000  H
  H3       1.0000 0.60360  0.99370  0.62900  Biso   1.000  H
  H4       1.0000 0.39640  0.39010  0.87100  Biso   1.000  H
  H5       1.0000 0.99370  0.60360  0.87100  Biso   1.000  H
  H6       1.0000 0.60990  0.00630  0.87100  Biso   1.000  H
  H7       1.0000 0.05677  0.72973  0.96233  Biso   1.000  H
  H8       1.0000 0.67297  0.94323  0.96233  Biso   1.000  H
  H9       1.0000 0.27027  0.32703  0.96233  Biso   1.000  H
  H10      1.0000 0.06307  0.72343  0.20433  Biso   1.000  H
  H11      1.0000 0.66037  0.93693  0.20433  Biso   1.000  H
  H12      1.0000 0.27657  0.33963  0.20433  Biso   1.000  H
  H13      1.0000 0.72343  0.06307  0.29567  Biso   1.000  H
  H14      1.0000 0.33963  0.27657  0.29567  Biso   1.000  H
  H15      1.0000 0.93693  0.66037  0.29567  Biso   1.000  H
  H16      1.0000 0.72973  0.05677  0.53767  Biso   1.000  H
  H17      1.0000 0.32703  0.27027  0.53767  Biso   1.000  H
  H18      1.0000 0.94323  0.67297  0.53767  Biso   1.000  H
  H19      1.0000 0.60990  0.60360  0.37100  Biso   1.000  H
  H20      1.0000 0.99370  0.39010  0.37100  Biso   1.000  H
  H21      1.0000 0.39640  0.00630  0.37100  Biso   1.000  H
  H22      1.0000 0.60360  0.60990  0.12900  Biso   1.000  H
  H23      1.0000 0.00630  0.39640  0.12900  Biso   1.000  H
  H24      1.0000 0.39010  0.99370  0.12900  Biso   1.000  H
  H25      1.0000 0.27657  0.93693  0.70433  Biso   1.000  H
  H26      1.0000 0.66037  0.72343  0.70433  Biso   1.000  H
  H27      1.0000 0.06307  0.33963  0.70433  Biso   1.000  H
  H28      1.0000 0.27027  0.94323  0.46233  Biso   1.000  H
  H29      1.0000 0.67297  0.72973  0.46233  Biso   1.000  H
  H30      1.0000 0.05677  0.32703  0.46233  Biso   1.000  H
  H31      1.0000 0.94323  0.27027  0.03767  Biso   1.000  H
  H32      1.0000 0.32703  0.05677  0.03767  Biso   1.000  H
  H33      1.0000 0.72973  0.67297  0.03767  Biso   1.000  H
  H34      1.0000 0.93693  0.27657  0.79567  Biso   1.000  H
  H35      1.0000 0.33963  0.06307  0.79567  Biso   1.000  H
  H36      1.0000 0.72343  0.66037  0.79567  Biso   1.000  H
  H37      1.0000 0.43270  0.58400  0.58743  Biso   1.000  H
  H38      1.0000 0.15130  0.56730  0.58743  Biso   1.000  H
  H39      1.0000 0.41600  0.84870  0.58743  Biso   1.000  H
  H40      1.0000 0.58400  0.43270  0.91257  Biso   1.000  H
  H41      1.0000 0.84870  0.41600  0.91257  Biso   1.000  H
  H42      1.0000 0.56730  0.15130  0.91257  Biso   1.000  H
  H43      1.0000 0.09937  0.91733  0.92076  Biso   1.000  H
  H44      1.0000 0.81797  0.90063  0.92076  Biso   1.000  H
  H45      1.0000 0.08267  0.18203  0.92076  Biso   1.000  H
  H46      1.0000 0.25067  0.76603  0.24590  Biso   1.000  H
  H47      1.0000 0.51537  0.74933  0.24590  Biso   1.000  H
  H48      1.0000 0.23397  0.48463  0.24590  Biso   1.000  H
  H49      1.0000 0.76603  0.25067  0.25410  Biso   1.000  H
  H50      1.0000 0.48463  0.23397  0.25410  Biso   1.000  H
  H51      1.0000 0.74933  0.51537  0.25410  Biso   1.000  H
  H52      1.0000 0.91733  0.09937  0.57924  Biso   1.000  H
  H53      1.0000 0.18203  0.08267  0.57924  Biso   1.000  H
  H54      1.0000 0.90063  0.81797  0.57924  Biso   1.000  H
  H55      1.0000 0.56730  0.41600  0.41257  Biso   1.000  H
  H56      1.0000 0.84870  0.43270  0.41257  Biso   1.000  H
  H57      1.0000 0.58400  0.15130  0.41257  Biso   1.000  H
  H58      1.0000 0.41600  0.56730  0.08743  Biso   1.000  H
  H59      1.0000 0.15130  0.58400  0.08743  Biso   1.000  H
  H60      1.0000 0.43270  0.84870  0.08743  Biso   1.000  H
  H61      1.0000 0.23397  0.74933  0.74590  Biso   1.000  H
  H62      1.0000 0.51537  0.76603  0.74590  Biso   1.000  H
  H63      1.0000 0.25067  0.48463  0.74590  Biso   1.000  H
  H64      1.0000 0.08267  0.90063  0.42076  Biso   1.000  H
  H65      1.0000 0.81797  0.91733  0.42076  Biso   1.000  H
  H66      1.0000 0.09937  0.18203  0.42076  Biso   1.000  H
  H67      1.0000 0.90063  0.08267  0.07924  Biso   1.000  H
  H68      1.0000 0.18203  0.09937  0.07924  Biso   1.000  H
  H69      1.0000 0.91733  0.81797  0.07924  Biso   1.000  H
  H70      1.0000 0.74933  0.23397  0.75410  Biso   1.000  H
  H71      1.0000 0.48463  0.25067  0.75410  Biso   1.000  H
  H72      1.0000 0.76603  0.51537  0.75410  Biso   1.000  H
  H73      1.0000 0.61960  0.64090  0.63012  Biso   1.000  H
  H74      1.0000 0.02130  0.38040  0.63012  Biso   1.000  H
  H75      1.0000 0.35910  0.97870  0.63012  Biso   1.000  H
  H76      1.0000 0.64090  0.61960  0.86988  Biso   1.000  H
  H77      1.0000 0.97870  0.35910  0.86988  Biso   1.000  H
  H78      1.0000 0.38040  0.02130  0.86988  Biso   1.000  H
  H79      1.0000 0.28627  0.97423  0.96345  Biso   1.000  H
  H80      1.0000 0.68797  0.71373  0.96345  Biso   1.000  H
  H81      1.0000 0.02577  0.31203  0.96345  Biso   1.000  H
  H82      1.0000 0.30757  0.95293  0.20321  Biso   1.000  H
  H83      1.0000 0.64537  0.69243  0.20321  Biso   1.000  H
  H84      1.0000 0.04707  0.35463  0.20321  Biso   1.000  H
  H85      1.0000 0.95293  0.30757  0.29679  Biso   1.000  H
  H86      1.0000 0.35463  0.04707  0.29679  Biso   1.000  H
  H87      1.0000 0.69243  0.64537  0.29679  Biso   1.000  H
  H88      1.0000 0.97423  0.28627  0.53655  Biso   1.000  H
  H89      1.0000 0.31203  0.02577  0.53655  Biso   1.000  H
  H90      1.0000 0.71373  0.68797  0.53655  Biso   1.000  H
  H91      1.0000 0.38040  0.35910  0.36988  Biso   1.000  H
  H92      1.0000 0.97870  0.61960  0.36988  Biso   1.000  H
  H93      1.0000 0.64090  0.02130  0.36988  Biso   1.000  H
  H94      1.0000 0.35910  0.38040  0.13012  Biso   1.000  H
  H95      1.0000 0.02130  0.64090  0.13012  Biso   1.000  H
  H96      1.0000 0.61960  0.97870  0.13012  Biso   1.000  H
  H97      1.0000 0.04707  0.69243  0.70321  Biso   1.000  H
  H98      1.0000 0.64537  0.95293  0.70321  Biso   1.000  H
  H99      1.0000 0.30757  0.35463  0.70321  Biso   1.000  H
  H100     1.0000 0.02577  0.71373  0.46345  Biso   1.000  H
  H101     1.0000 0.68797  0.97423  0.46345  Biso   1.000  H
  H102     1.0000 0.28627  0.31203  0.46345  Biso   1.000  H
  H103     1.0000 0.71373  0.02577  0.03655  Biso   1.000  H
  H104     1.0000 0.31203  0.28627  0.03655  Biso   1.000  H
  H105     1.0000 0.97423  0.68797  0.03655  Biso   1.000  H
  H106     1.0000 0.69243  0.04707  0.79679  Biso   1.000  H
  H107     1.0000 0.35463  0.30757  0.79679  Biso   1.000  H
  H108     1.0000 0.95293  0.64537  0.79679  Biso   1.000  H
  C253     1.0000 0.58550  0.70670  0.59995  Biso   1.000  C
  C254     1.0000 0.12120  0.41450  0.59995  Biso   1.000  C
  C255     1.0000 0.29330  0.87880  0.59995  Biso   1.000  C
  C256     1.0000 0.70670  0.58550  0.90005  Biso   1.000  C
  C257     1.0000 0.87880  0.29330  0.90005  Biso   1.000  C
  C258     1.0000 0.41450  0.12120  0.90005  Biso   1.000  C
  C259     1.0000 0.25217  0.04003  0.93328  Biso   1.000  C
  C260     1.0000 0.78787  0.74783  0.93328  Biso   1.000  C
  C261     1.0000 0.95997  0.21213  0.93328  Biso   1.000  C
  C262     1.0000 0.37337  0.91883  0.23338  Biso   1.000  C
  C263     1.0000 0.54547  0.62663  0.23338  Biso   1.000  C
  C264     1.0000 0.08117  0.45453  0.23338  Biso   1.000  C
  C265     1.0000 0.91883  0.37337  0.26662  Biso   1.000  C
  C266     1.0000 0.45453  0.08117  0.26662  Biso   1.000  C
  C267     1.0000 0.62663  0.54547  0.26662  Biso   1.000  C
  C268     1.0000 0.04003  0.25217  0.56672  Biso   1.000  C
  C269     1.0000 0.21213  0.95997  0.56672  Biso   1.000  C
  C270     1.0000 0.74783  0.78787  0.56672  Biso   1.000  C
  C271     1.0000 0.41450  0.29330  0.40005  Biso   1.000  C
  C272     1.0000 0.87880  0.58550  0.40005  Biso   1.000  C
  C273     1.0000 0.70670  0.12120  0.40005  Biso   1.000  C
  C274     1.0000 0.29330  0.41450  0.09995  Biso   1.000  C
  C275     1.0000 0.12120  0.70670  0.09995  Biso   1.000  C
  C276     1.0000 0.58550  0.87880  0.09995  Biso   1.000  C
  C277     1.0000 0.08117  0.62663  0.73338  Biso   1.000  C
  C278     1.0000 0.54547  0.91883  0.73338  Biso   1.000  C
  C279     1.0000 0.37337  0.45453  0.73338  Biso   1.000  C
  C280     1.0000 0.95997  0.74783  0.43328  Biso   1.000  C
  C281     1.0000 0.78787  0.04003  0.43328  Biso   1.000  C
  C282     1.0000 0.25217  0.21213  0.43328  Biso   1.000  C
  C283     1.0000 0.74783  0.95997  0.06672  Biso   1.000  C
  C284     1.0000 0.21213  0.25217  0.06672  Biso   1.000  C
  C285     1.0000 0.04003  0.78787  0.06672  Biso   1.000  C
  C286     1.0000 0.62663  0.08117  0.76662  Biso   1.000  C
  C287     1.0000 0.45453  0.37337  0.76662  Biso   1.000  C
  C288     1.0000 0.91883  0.54547  0.76662  Biso   1.000  C
  O1       1.0000 0.56370  0.71720  0.58416  Biso   1.000  O
  O2       1.0000 0.15350  0.43630  0.58416  Biso   1.000  O
  O3       1.0000 0.28280  0.84650  0.58416  Biso   1.000  O
  O4       1.0000 0.71720  0.56370  0.91584  Biso   1.000  O
  O5       1.0000 0.84650  0.28280  0.91584  Biso   1.000  O
  O6       1.0000 0.43630  0.15350  0.91584  Biso   1.000  O
  O7       1.0000 0.23037  0.05053  0.91749  Biso   1.000  O
  O8       1.0000 0.82017  0.76963  0.91749  Biso   1.000  O
  O9       1.0000 0.94947  0.17983  0.91749  Biso   1.000  O
  O10      1.0000 0.38387  0.89703  0.24917  Biso   1.000  O
  O11      1.0000 0.51317  0.61613  0.24917  Biso   1.000  O
  O12      1.0000 0.10297  0.48683  0.24917  Biso   1.000  O
  O13      1.0000 0.89703  0.38387  0.25083  Biso   1.000  O
  O14      1.0000 0.48683  0.10297  0.25083  Biso   1.000  O
  O15      1.0000 0.61613  0.51317  0.25083  Biso   1.000  O
  O16      1.0000 0.05053  0.23037  0.58251  Biso   1.000  O
  O17      1.0000 0.17983  0.94947  0.58251  Biso   1.000  O
  O18      1.0000 0.76963  0.82017  0.58251  Biso   1.000  O
  O19      1.0000 0.43630  0.28280  0.41584  Biso   1.000  O
  O20      1.0000 0.84650  0.56370  0.41584  Biso   1.000  O
  O21      1.0000 0.71720  0.15350  0.41584  Biso   1.000  O
  O22      1.0000 0.28280  0.43630  0.08416  Biso   1.000  O
  O23      1.0000 0.15350  0.71720  0.08416  Biso   1.000  O
  O24      1.0000 0.56370  0.84650  0.08416  Biso   1.000  O
  O25      1.0000 0.10297  0.61613  0.74917  Biso   1.000  O
  O26      1.0000 0.51317  0.89703  0.74917  Biso   1.000  O
  O27      1.0000 0.38387  0.48683  0.74917  Biso   1.000  O
  O28      1.0000 0.94947  0.76963  0.41749  Biso   1.000  O
  O29      1.0000 0.82017  0.05053  0.41749  Biso   1.000  O
  O30      1.0000 0.23037  0.17983  0.41749  Biso   1.000  O
  O31      1.0000 0.76963  0.94947  0.08251  Biso   1.000  O
  O32      1.0000 0.17983  0.23037  0.08251  Biso   1.000  O
  O33      1.0000 0.05053  0.82017  0.08251  Biso   1.000  O
  O34      1.0000 0.61613  0.10297  0.75083  Biso   1.000  O
  O35      1.0000 0.48683  0.38387  0.75083  Biso   1.000  O
  O36      1.0000 0.89703  0.51317  0.75083  Biso   1.000  O
  O37      1.0000 0.64700  0.76030  0.60935  Biso   1.000  O
  O38      1.0000 0.11330  0.35300  0.60935  Biso   1.000  O
  O39      1.0000 0.23970  0.88670  0.60935  Biso   1.000  O
  O40      1.0000 0.76030  0.64700  0.89065  Biso   1.000  O
  O41      1.0000 0.88670  0.23970  0.89065  Biso   1.000  O
  O42      1.0000 0.35300  0.11330  0.89065  Biso   1.000  O
  O43      1.0000 0.31367  0.09363  0.94268  Biso   1.000  O
  O44      1.0000 0.77997  0.68633  0.94268  Biso   1.000  O
  O45      1.0000 0.90637  0.22003  0.94268  Biso   1.000  O
  O46      1.0000 0.42697  0.98033  0.22398  Biso   1.000  O
  O47      1.0000 0.55337  0.57303  0.22398  Biso   1.000  O
  O48      1.0000 0.01967  0.44663  0.22398  Biso   1.000  O
  O49      1.0000 0.98033  0.42697  0.27602  Biso   1.000  O
  O50      1.0000 0.44663  0.01967  0.27602  Biso   1.000  O
  O51      1.0000 0.57303  0.55337  0.27602  Biso   1.000  O
  O52      1.0000 0.09363  0.31367  0.55732  Biso   1.000  O
  O53      1.0000 0.22003  0.90637  0.55732  Biso   1.000  O
  O54      1.0000 0.68633  0.77997  0.55732  Biso   1.000  O
  O55      1.0000 0.35300  0.23970  0.39065  Biso   1.000  O
  O56      1.0000 0.88670  0.64700  0.39065  Biso   1.000  O
  O57      1.0000 0.76030  0.11330  0.39065  Biso   1.000  O
  O58      1.0000 0.23970  0.35300  0.10935  Biso   1.000  O
  O59      1.0000 0.11330  0.76030  0.10935  Biso   1.000  O
  O60      1.0000 0.64700  0.88670  0.10935  Biso   1.000  O
  O61      1.0000 0.01967  0.57303  0.72398  Biso   1.000  O
  O62      1.0000 0.55337  0.98033  0.72398  Biso   1.000  O
  O63      1.0000 0.42697  0.44663  0.72398  Biso   1.000  O
  O64      1.0000 0.90637  0.68633  0.44268  Biso   1.000  O
  O65      1.0000 0.77997  0.09363  0.44268  Biso   1.000  O
  O66      1.0000 0.31367  0.22003  0.44268  Biso   1.000  O
  O67      1.0000 0.68633  0.90637  0.05732  Biso   1.000  O
  O68      1.0000 0.22003  0.31367  0.05732  Biso   1.000  O
  O69      1.0000 0.09363  0.77997  0.05732  Biso   1.000  O
  O70      1.0000 0.57303  0.01967  0.77602  Biso   1.000  O
  O71      1.0000 0.44663  0.42697  0.77602  Biso   1.000  O
  O72      1.0000 0.98033  0.55337  0.77602  Biso   1.000  O
  C289     1.0000 0.32060  0.42450  0.59866  Biso   1.000  C
  C290     1.0000 0.10390  0.67940  0.59866  Biso   1.000  C
  C291     1.0000 0.57550  0.89610  0.59866  Biso   1.000  C
  C292     1.0000 0.42450  0.32060  0.90134  Biso   1.000  C
  C293     1.0000 0.89610  0.57550  0.90134  Biso   1.000  C
  C294     1.0000 0.67940  0.10390  0.90134  Biso   1.000  C
  C295     1.0000 0.98727  0.75783  0.93199  Biso   1.000  C
  C296     1.0000 0.77057  0.01273  0.93199  Biso   1.000  C
  C297     1.0000 0.24217  0.22943  0.93199  Biso   1.000  C
  C298     1.0000 0.09117  0.65393  0.23467  Biso   1.000  C
  C299     1.0000 0.56277  0.90883  0.23467  Biso   1.000  C
  C300     1.0000 0.34607  0.43723  0.23467  Biso   1.000  C
  C301     1.0000 0.65393  0.09117  0.26533  Biso   1.000  C
  C302     1.0000 0.43723  0.34607  0.26533  Biso   1.000  C
  C303     1.0000 0.90883  0.56277  0.26533  Biso   1.000  C
  C304     1.0000 0.75783  0.98727  0.56801  Biso   1.000  C
  C305     1.0000 0.22943  0.24217  0.56801  Biso   1.000  C
  C306     1.0000 0.01273  0.77057  0.56801  Biso   1.000  C
  C307     1.0000 0.67940  0.57550  0.40134  Biso   1.000  C
  C308     1.0000 0.89610  0.32060  0.40134  Biso   1.000  C
  C309     1.0000 0.42450  0.10390  0.40134  Biso   1.000  C
  C310     1.0000 0.57550  0.67940  0.09866  Biso   1.000  C
  C311     1.0000 0.10390  0.42450  0.09866  Biso   1.000  C
  C312     1.0000 0.32060  0.89610  0.09866  Biso   1.000  C
  C313     1.0000 0.34607  0.90883  0.73467  Biso   1.000  C
  C314     1.0000 0.56277  0.65393  0.73467  Biso   1.000  C
  C315     1.0000 0.09117  0.43723  0.73467  Biso   1.000  C
  C316     1.0000 0.24217  0.01273  0.43199  Biso   1.000  C
  C317     1.0000 0.77057  0.75783  0.43199  Biso   1.000  C
  C318     1.0000 0.98727  0.22943  0.43199  Biso   1.000  C
  C319     1.0000 0.01273  0.24217  0.06801  Biso   1.000  C
  C320     1.0000 0.22943  0.98727  0.06801  Biso   1.000  C
  C321     1.0000 0.75783  0.77057  0.06801  Biso   1.000  C
  C322     1.0000 0.90883  0.34607  0.76533  Biso   1.000  C
  C323     1.0000 0.43723  0.09117  0.76533  Biso   1.000  C
  C324     1.0000 0.65393  0.56277  0.76533  Biso   1.000  C
  O73      1.0000 0.30900  0.44590  0.58292  Biso   1.000  O
  O74      1.0000 0.13690  0.69100  0.58292  Biso   1.000  O
  O75      1.0000 0.55410  0.86310  0.58292  Biso   1.000  O
  O76      1.0000 0.44590  0.30900  0.91708  Biso   1.000  O
  O77      1.0000 0.86310  0.55410  0.91708  Biso   1.000  O
  O78      1.0000 0.69100  0.13690  0.91708  Biso   1.000  O
  O79      1.0000 0.97567  0.77923  0.91625  Biso   1.000  O
  O80      1.0000 0.80357  0.02433  0.91625  Biso   1.000  O
  O81      1.0000 0.22077  0.19643  0.91625  Biso   1.000  O
  O82      1.0000 0.11257  0.64233  0.25041  Biso   1.000  O
  O83      1.0000 0.52977  0.88743  0.25041  Biso   1.000  O
  O84      1.0000 0.35767  0.47023  0.25041  Biso   1.000  O
  O85      1.0000 0.64233  0.11257  0.24959  Biso   1.000  O
  O86      1.0000 0.47023  0.35767  0.24959  Biso   1.000  O
  O87      1.0000 0.88743  0.52977  0.24959  Biso   1.000  O
  O88      1.0000 0.77923  0.97567  0.58375  Biso   1.000  O
  O89      1.0000 0.19643  0.22077  0.58375  Biso   1.000  O
  O90      1.0000 0.02433  0.80357  0.58375  Biso   1.000  O
  O91      1.0000 0.69100  0.55410  0.41708  Biso   1.000  O
  O92      1.0000 0.86310  0.30900  0.41708  Biso   1.000  O
  O93      1.0000 0.44590  0.13690  0.41708  Biso   1.000  O
  O94      1.0000 0.55410  0.69100  0.08292  Biso   1.000  O
  O95      1.0000 0.13690  0.44590  0.08292  Biso   1.000  O
  O96      1.0000 0.30900  0.86310  0.08292  Biso   1.000  O
  O97      1.0000 0.35767  0.88743  0.75041  Biso   1.000  O
  O98      1.0000 0.52977  0.64233  0.75041  Biso   1.000  O
  O99      1.0000 0.11257  0.47023  0.75041  Biso   1.000  O
  O100     1.0000 0.22077  0.02433  0.41625  Biso   1.000  O
  O101     1.0000 0.80357  0.77923  0.41625  Biso   1.000  O
  O102     1.0000 0.97567  0.19643  0.41625  Biso   1.000  O
  O103     1.0000 0.02433  0.22077  0.08375  Biso   1.000  O
  O104     1.0000 0.19643  0.97567  0.08375  Biso   1.000  O
  O105     1.0000 0.77923  0.80357  0.08375  Biso   1.000  O
  O106     1.0000 0.88743  0.35767  0.74959  Biso   1.000  O
  O107     1.0000 0.47023  0.11257  0.74959  Biso   1.000  O
  O108     1.0000 0.64233  0.52977  0.74959  Biso   1.000  O
  O109     1.0000 0.27030  0.35910  0.60752  Biso   1.000  O
  O110     1.0000 0.08880  0.72970  0.60752  Biso   1.000  O
  O111     1.0000 0.64090  0.91120  0.60752  Biso   1.000  O
  O112     1.0000 0.35910  0.27030  0.89248  Biso   1.000  O
  O113     1.0000 0.91120  0.64090  0.89248  Biso   1.000  O
  O114     1.0000 0.72970  0.08880  0.89248  Biso   1.000  O
  O115     1.0000 0.93697  0.69243  0.94085  Biso   1.000  O
  O116     1.0000 0.75547  0.06303  0.94085  Biso   1.000  O
  O117     1.0000 0.30757  0.24453  0.94085  Biso   1.000  O
  O118     1.0000 0.02577  0.60363  0.22581  Biso   1.000  O
  O119     1.0000 0.57787  0.97423  0.22581  Biso   1.000  O
  O120     1.0000 0.39637  0.42213  0.22581  Biso   1.000  O
  O121     1.0000 0.60363  0.02577  0.27419  Biso   1.000  O
  O122     1.0000 0.42213  0.39637  0.27419  Biso   1.000  O
  O123     1.0000 0.97423  0.57787  0.27419  Biso   1.000  O
  O124     1.0000 0.69243  0.93697  0.55915  Biso   1.000  O
  O125     1.0000 0.24453  0.30757  0.55915  Biso   1.000  O
  O126     1.0000 0.06303  0.75547  0.55915  Biso   1.000  O
  O127     1.0000 0.72970  0.64090  0.39248  Biso   1.000  O
  O128     1.0000 0.91120  0.27030  0.39248  Biso   1.000  O
  O129     1.0000 0.35910  0.08880  0.39248  Biso   1.000  O
  O130     1.0000 0.64090  0.72970  0.10752  Biso   1.000  O
  O131     1.0000 0.08880  0.35910  0.10752  Biso   1.000  O
  O132     1.0000 0.27030  0.91120  0.10752  Biso   1.000  O
  O133     1.0000 0.39637  0.97423  0.72581  Biso   1.000  O
  O134     1.0000 0.57787  0.60363  0.72581  Biso   1.000  O
  O135     1.0000 0.02577  0.42213  0.72581  Biso   1.000  O
  O136     1.0000 0.30757  0.06303  0.44085  Biso   1.000  O
  O137     1.0000 0.75547  0.69243  0.44085  Biso   1.000  O
  O138     1.0000 0.93697  0.24453  0.44085  Biso   1.000  O
  O139     1.0000 0.06303  0.30757  0.05915  Biso   1.000  O
  O140     1.0000 0.24453  0.93697  0.05915  Biso   1.000  O
  O141     1.0000 0.69243  0.75547  0.05915  Biso   1.000  O
  O142     1.0000 0.97423  0.39637  0.77419  Biso   1.000  O
  O143     1.0000 0.42213  0.02577  0.77419  Biso   1.000  O
  O144     1.0000 0.60363  0.57787  0.77419  Biso   1.000  O
  C325     1.0000 0.53500  0.49130  0.64719  Biso   1.000  C
  C326     1.0000 0.95630  0.46500  0.64719  Biso   1.000  C
  C327     1.0000 0.50870  0.04370  0.64719  Biso   1.000  C
  C328     1.0000 0.49130  0.53500  0.85281  Biso   1.000  C
  C329     1.0000 0.04370  0.50870  0.85281  Biso   1.000  C
  C330     1.0000 0.46500  0.95630  0.85281  Biso   1.000  C
  C331     1.0000 0.20167  0.82463  0.98052  Biso   1.000  C
  C332     1.0000 0.62297  0.79833  0.98052  Biso   1.000  C
  C333     1.0000 0.17537  0.37703  0.98052  Biso   1.000  C
  C334     1.0000 0.15797  0.86833  0.18614  Biso   1.000  C
  C335     1.0000 0.71037  0.84203  0.18614  Biso   1.000  C
  C336     1.0000 0.13167  0.28963  0.18614  Biso   1.000  C
  C337     1.0000 0.86833  0.15797  0.31386  Biso   1.000  C
  C338     1.0000 0.28963  0.13167  0.31386  Biso   1.000  C
  C339     1.0000 0.84203  0.71037  0.31386  Biso   1.000  C
  C340     1.0000 0.82463  0.20167  0.51948  Biso   1.000  C
  C341     1.0000 0.37703  0.17537  0.51948  Biso   1.000  C
  C342     1.0000 0.79833  0.62297  0.51948  Biso   1.000  C
  C343     1.0000 0.46500  0.50870  0.35281  Biso   1.000  C
  C344     1.0000 0.04370  0.53500  0.35281  Biso   1.000  C
  C345     1.0000 0.49130  0.95630  0.35281  Biso   1.000  C
  C346     1.0000 0.50870  0.46500  0.14719  Biso   1.000  C
  C347     1.0000 0.95630  0.49130  0.14719  Biso   1.000  C
  C348     1.0000 0.53500  0.04370  0.14719  Biso   1.000  C
  C349     1.0000 0.13167  0.84203  0.68614  Biso   1.000  C
  C350     1.0000 0.71037  0.86833  0.68614  Biso   1.000  C
  C351     1.0000 0.15797  0.28963  0.68614  Biso   1.000  C
  C352     1.0000 0.17537  0.79833  0.48052  Biso   1.000  C
  C353     1.0000 0.62297  0.82463  0.48052  Biso   1.000  C
  C354     1.0000 0.20167  0.37703  0.48052  Biso   1.000  C
  C355     1.0000 0.79833  0.17537  0.01948  Biso   1.000  C
  C356     1.0000 0.37703  0.20167  0.01948  Biso   1.000  C
  C357     1.0000 0.82463  0.62297  0.01948  Biso   1.000  C
  C358     1.0000 0.84203  0.13167  0.81386  Biso   1.000  C
  C359     1.0000 0.28963  0.15797  0.81386  Biso   1.000  C
  C360     1.0000 0.86833  0.71037  0.81386  Biso   1.000  C
  C361     1.0000 0.59500  0.46680  0.67859  Biso   1.000  C
  C362     1.0000 0.87180  0.40500  0.67859  Biso   1.000  C
  C363     1.0000 0.53320  0.12820  0.67859  Biso   1.000  C
  C364     1.0000 0.46680  0.59500  0.82141  Biso   1.000  C
  C365     1.0000 0.12820  0.53320  0.82141  Biso   1.000  C
  C366     1.0000 0.40500  0.87180  0.82141  Biso   1.000  C
  C367     1.0000 0.26167  0.80013  0.01192  Biso   1.000  C
  C368     1.0000 0.53847  0.73833  0.01192  Biso   1.000  C
  C369     1.0000 0.19987  0.46153  0.01192  Biso   1.000  C
  C370     1.0000 0.13347  0.92833  0.15474  Biso   1.000  C
  C371     1.0000 0.79487  0.86653  0.15474  Biso   1.000  C
  C372     1.0000 0.07167  0.20513  0.15474  Biso   1.000  C
  C373     1.0000 0.92833  0.13347  0.34526  Biso   1.000  C
  C374     1.0000 0.20513  0.07167  0.34526  Biso   1.000  C
  C375     1.0000 0.86653  0.79487  0.34526  Biso   1.000  C
  C376     1.0000 0.80013  0.26167  0.48808  Biso   1.000  C
  C377     1.0000 0.46153  0.19987  0.48808  Biso   1.000  C
  C378     1.0000 0.73833  0.53847  0.48808  Biso   1.000  C
  C379     1.0000 0.40500  0.53320  0.32141  Biso   1.000  C
  C380     1.0000 0.12820  0.59500  0.32141  Biso   1.000  C
  C381     1.0000 0.46680  0.87180  0.32141  Biso   1.000  C
  C382     1.0000 0.53320  0.40500  0.17859  Biso   1.000  C
  C383     1.0000 0.87180  0.46680  0.17859  Biso   1.000  C
  C384     1.0000 0.59500  0.12820  0.17859  Biso   1.000  C
  C385     1.0000 0.07167  0.86653  0.65474  Biso   1.000  C
  C386     1.0000 0.79487  0.92833  0.65474  Biso   1.000  C
  C387     1.0000 0.13347  0.20513  0.65474  Biso   1.000  C
  C388     1.0000 0.19987  0.73833  0.51192  Biso   1.000  C
  C389     1.0000 0.53847  0.80013  0.51192  Biso   1.000  C
  C390     1.0000 0.26167  0.46153  0.51192  Biso   1.000  C
  C391     1.0000 0.73833  0.19987  0.98808  Biso   1.000  C
  C392     1.0000 0.46153  0.26167  0.98808  Biso   1.000  C
  C393     1.0000 0.80013  0.53847  0.98808  Biso   1.000  C
  C394     1.0000 0.86653  0.07167  0.84526  Biso   1.000  C
  C395     1.0000 0.20513  0.13347  0.84526  Biso   1.000  C
  C396     1.0000 0.92833  0.79487  0.84526  Biso   1.000  C
  C397     1.0000 0.66900  0.46300  0.67980  Biso   1.000  C
  C398     1.0000 0.79400  0.33100  0.67980  Biso   1.000  C
  C399     1.0000 0.53700  0.20600  0.67980  Biso   1.000  C
  C400     1.0000 0.46300  0.66900  0.82020  Biso   1.000  C
  C401     1.0000 0.20600  0.53700  0.82020  Biso   1.000  C
  C402     1.0000 0.33100  0.79400  0.82020  Biso   1.000  C
  C403     1.0000 0.33567  0.79633  0.01313  Biso   1.000  C
  C404     1.0000 0.46067  0.66433  0.01313  Biso   1.000  C
  C405     1.0000 0.20367  0.53933  0.01313  Biso   1.000  C
  C406     1.0000 0.12967  0.00233  0.15353  Biso   1.000  C
  C407     1.0000 0.87267  0.87033  0.15353  Biso   1.000  C
  C408     1.0000 0.99767  0.12733  0.15353  Biso   1.000  C
  C409     1.0000 0.00233  0.12967  0.34647  Biso   1.000  C
  C410     1.0000 0.12733  0.99767  0.34647  Biso   1.000  C
  C411     1.0000 0.87033  0.87267  0.34647  Biso   1.000  C
  C412     1.0000 0.79633  0.33567  0.48687  Biso   1.000  C
  C413     1.0000 0.53933  0.20367  0.48687  Biso   1.000  C
  C414     1.0000 0.66433  0.46067  0.48687  Biso   1.000  C
  C415     1.0000 0.33100  0.53700  0.32020  Biso   1.000  C
  C416     1.0000 0.20600  0.66900  0.32020  Biso   1.000  C
  C417     1.0000 0.46300  0.79400  0.32020  Biso   1.000  C
  C418     1.0000 0.53700  0.33100  0.17980  Biso   1.000  C
  C419     1.0000 0.79400  0.46300  0.17980  Biso   1.000  C
  C420     1.0000 0.66900  0.20600  0.17980  Biso   1.000  C
  C421     1.0000 0.99767  0.87033  0.65353  Biso   1.000  C
  C422     1.0000 0.87267  0.00233  0.65353  Biso   1.000  C
  C423     1.0000 0.12967  0.12733  0.65353  Biso   1.000  C
  C424     1.0000 0.20367  0.66433  0.51313  Biso   1.000  C
  C425     1.0000 0.46067  0.79633  0.51313  Biso   1.000  C
  C426     1.0000 0.33567  0.53933  0.51313  Biso   1.000  C
  C427     1.0000 0.66433  0.20367  0.98687  Biso   1.000  C
  C428     1.0000 0.53933  0.33567  0.98687  Biso   1.000  C
  C429     1.0000 0.79633  0.46067  0.98687  Biso   1.000  C
  C430     1.0000 0.87033  0.99767  0.84647  Biso   1.000  C
  C431     1.0000 0.12733  0.12967  0.84647  Biso   1.000  C
  C432     1.0000 0.00233  0.87267  0.84647  Biso   1.000  C
  N1       1.0000 0.70100  0.45500  0.69600  Biso   1.000  N
  N2       1.0000 0.75400  0.29900  0.69600  Biso   1.000  N
  N3       1.0000 0.54500  0.24600  0.69600  Biso   1.000  N
  N4       1.0000 0.45500  0.70100  0.80400  Biso   1.000  N
  N5       1.0000 0.24600  0.54500  0.80400  Biso   1.000  N
  N6       1.0000 0.29900  0.75400  0.80400  Biso   1.000  N
  N7       1.0000 0.36767  0.78833  0.02933  Biso   1.000  N
  N8       1.0000 0.42067  0.63233  0.02933  Biso   1.000  N
  N9       1.0000 0.21167  0.57933  0.02933  Biso   1.000  N
  N10      1.0000 0.12167  0.03433  0.13733  Biso   1.000  N
  N11      1.0000 0.91267  0.87833  0.13733  Biso   1.000  N
  N12      1.0000 0.96567  0.08733  0.13733  Biso   1.000  N
  N13      1.0000 0.03433  0.12167  0.36267  Biso   1.000  N
  N14      1.0000 0.08733  0.96567  0.36267  Biso   1.000  N
  N15      1.0000 0.87833  0.91267  0.36267  Biso   1.000  N
  N16      1.0000 0.78833  0.36767  0.47067  Biso   1.000  N
  N17      1.0000 0.57933  0.21167  0.47067  Biso   1.000  N
  N18      1.0000 0.63233  0.42067  0.47067  Biso   1.000  N
  N19      1.0000 0.29900  0.54500  0.30400  Biso   1.000  N
  N20      1.0000 0.24600  0.70100  0.30400  Biso   1.000  N
  N21      1.0000 0.45500  0.75400  0.30400  Biso   1.000  N
  N22      1.0000 0.54500  0.29900  0.19600  Biso   1.000  N
  N23      1.0000 0.75400  0.45500  0.19600  Biso   1.000  N
  N24      1.0000 0.70100  0.24600  0.19600  Biso   1.000  N
  N25      1.0000 0.96567  0.87833  0.63733  Biso   1.000  N
  N26      1.0000 0.91267  0.03433  0.63733  Biso   1.000  N
  N27      1.0000 0.12167  0.08733  0.63733  Biso   1.000  N
  N28      1.0000 0.21167  0.63233  0.52933  Biso   1.000  N
  N29      1.0000 0.42067  0.78833  0.52933  Biso   1.000  N
  N30      1.0000 0.36767  0.57933  0.52933  Biso   1.000  N
  N31      1.0000 0.63233  0.21167  0.97067  Biso   1.000  N
  N32      1.0000 0.57933  0.36767  0.97067  Biso   1.000  N
  N33      1.0000 0.78833  0.42067  0.97067  Biso   1.000  N
  N34      1.0000 0.87833  0.96567  0.86267  Biso   1.000  N
  N35      1.0000 0.08733  0.12167  0.86267  Biso   1.000  N
  N36      1.0000 0.03433  0.91267  0.86267  Biso   1.000  N
  C433     1.0000 0.65700  0.45200  0.71110  Biso   1.000  C
  C434     1.0000 0.79500  0.34300  0.71110  Biso   1.000  C
  C435     1.0000 0.54800  0.20500  0.71110  Biso   1.000  C
  C436     1.0000 0.45200  0.65700  0.78890  Biso   1.000  C
  C437     1.0000 0.20500  0.54800  0.78890  Biso   1.000  C
  C438     1.0000 0.34300  0.79500  0.78890  Biso   1.000  C
  C439     1.0000 0.32367  0.78533  0.04443  Biso   1.000  C
  C440     1.0000 0.46167  0.67633  0.04443  Biso   1.000  C
  C441     1.0000 0.21467  0.53833  0.04443  Biso   1.000  C
  C442     1.0000 0.11867  0.99033  0.12223  Biso   1.000  C
  C443     1.0000 0.87167  0.88133  0.12223  Biso   1.000  C
  C444     1.0000 0.00967  0.12833  0.12223  Biso   1.000  C
  C445     1.0000 0.99033  0.11867  0.37777  Biso   1.000  C
  C446     1.0000 0.12833  0.00967  0.37777  Biso   1.000  C
  C447     1.0000 0.88133  0.87167  0.37777  Biso   1.000  C
  C448     1.0000 0.78533  0.32367  0.45557  Biso   1.000  C
  C449     1.0000 0.53833  0.21467  0.45557  Biso   1.000  C
  C450     1.0000 0.67633  0.46167  0.45557  Biso   1.000  C
  C451     1.0000 0.34300  0.54800  0.28890  Biso   1.000  C
  C452     1.0000 0.20500  0.65700  0.28890  Biso   1.000  C
  C453     1.0000 0.45200  0.79500  0.28890  Biso   1.000  C
  C454     1.0000 0.54800  0.34300  0.21110  Biso   1.000  C
  C455     1.0000 0.79500  0.45200  0.21110  Biso   1.000  C
  C456     1.0000 0.65700  0.20500  0.21110  Biso   1.000  C
  C457     1.0000 0.00967  0.88133  0.62223  Biso   1.000  C
  C458     1.0000 0.87167  0.99033  0.62223  Biso   1.000  C
  C459     1.0000 0.11867  0.12833  0.62223  Biso   1.000  C
  C460     1.0000 0.21467  0.67633  0.54443  Biso   1.000  C
  C461     1.0000 0.46167  0.78533  0.54443  Biso   1.000  C
  C462     1.0000 0.32367  0.53833  0.54443  Biso   1.000  C
  C463     1.0000 0.67633  0.21467  0.95557  Biso   1.000  C
  C464     1.0000 0.53833  0.32367  0.95557  Biso   1.000  C
  C465     1.0000 0.78533  0.46167  0.95557  Biso   1.000  C
  C466     1.0000 0.88133  0.00967  0.87777  Biso   1.000  C
  C467     1.0000 0.12833  0.11867  0.87777  Biso   1.000  C
  C468     1.0000 0.99033  0.87167  0.87777  Biso   1.000  C
  N37      1.0000 0.58500  0.45500  0.71186  Biso   1.000  N
  N38      1.0000 0.87000  0.41500  0.71186  Biso   1.000  N
  N39      1.0000 0.54500  0.13000  0.71186  Biso   1.000  N
  N40      1.0000 0.45500  0.58500  0.78814  Biso   1.000  N
  N41      1.0000 0.13000  0.54500  0.78814  Biso   1.000  N
  N42      1.0000 0.41500  0.87000  0.78814  Biso   1.000  N
  N43      1.0000 0.25167  0.78833  0.04519  Biso   1.000  N
  N44      1.0000 0.53667  0.74833  0.04519  Biso   1.000  N
  N45      1.0000 0.21167  0.46333  0.04519  Biso   1.000  N
  N46      1.0000 0.12167  0.91833  0.12147  Biso   1.000  N
  N47      1.0000 0.79667  0.87833  0.12147  Biso   1.000  N
  N48      1.0000 0.08167  0.20333  0.12147  Biso   1.000  N
  N49      1.0000 0.91833  0.12167  0.37853  Biso   1.000  N
  N50      1.0000 0.20333  0.08167  0.37853  Biso   1.000  N
  N51      1.0000 0.87833  0.79667  0.37853  Biso   1.000  N
  N52      1.0000 0.78833  0.25167  0.45481  Biso   1.000  N
  N53      1.0000 0.46333  0.21167  0.45481  Biso   1.000  N
  N54      1.0000 0.74833  0.53667  0.45481  Biso   1.000  N
  N55      1.0000 0.41500  0.54500  0.28814  Biso   1.000  N
  N56      1.0000 0.13000  0.58500  0.28814  Biso   1.000  N
  N57      1.0000 0.45500  0.87000  0.28814  Biso   1.000  N
  N58      1.0000 0.54500  0.41500  0.21186  Biso   1.000  N
  N59      1.0000 0.87000  0.45500  0.21186  Biso   1.000  N
  N60      1.0000 0.58500  0.13000  0.21186  Biso   1.000  N
  N61      1.0000 0.08167  0.87833  0.62147  Biso   1.000  N
  N62      1.0000 0.79667  0.91833  0.62147  Biso   1.000  N
  N63      1.0000 0.12167  0.20333  0.62147  Biso   1.000  N
  N64      1.0000 0.21167  0.74833  0.54519  Biso   1.000  N
  N65      1.0000 0.53667  0.78833  0.54519  Biso   1.000  N
  N66      1.0000 0.25167  0.46333  0.54519  Biso   1.000  N
  N67      1.0000 0.74833  0.21167  0.95481  Biso   1.000  N
  N68      1.0000 0.46333  0.25167  0.95481  Biso   1.000  N
  N69      1.0000 0.78833  0.53667  0.95481  Biso   1.000  N
  N70      1.0000 0.87833  0.08167  0.87853  Biso   1.000  N
  N71      1.0000 0.20333  0.12167  0.87853  Biso   1.000  N
  N72      1.0000 0.91833  0.79667  0.87853  Biso   1.000  N
  C469     1.0000 0.55400  0.46300  0.69520  Biso   1.000  C
  C470     1.0000 0.90900  0.44600  0.69520  Biso   1.000  C
  C471     1.0000 0.53700  0.09100  0.69520  Biso   1.000  C
  C472     1.0000 0.46300  0.55400  0.80480  Biso   1.000  C
  C473     1.0000 0.09100  0.53700  0.80480  Biso   1.000  C
  C474     1.0000 0.44600  0.90900  0.80480  Biso   1.000  C
  C475     1.0000 0.22067  0.79633  0.02853  Biso   1.000  C
  C476     1.0000 0.57567  0.77933  0.02853  Biso   1.000  C
  C477     1.0000 0.20367  0.42433  0.02853  Biso   1.000  C
  C478     1.0000 0.12967  0.88733  0.13813  Biso   1.000  C
  C479     1.0000 0.75767  0.87033  0.13813  Biso   1.000  C
  C480     1.0000 0.11267  0.24233  0.13813  Biso   1.000  C
  C481     1.0000 0.88733  0.12967  0.36187  Biso   1.000  C
  C482     1.0000 0.24233  0.11267  0.36187  Biso   1.000  C
  C483     1.0000 0.87033  0.75767  0.36187  Biso   1.000  C
  C484     1.0000 0.79633  0.22067  0.47147  Biso   1.000  C
  C485     1.0000 0.42433  0.20367  0.47147  Biso   1.000  C
  C486     1.0000 0.77933  0.57567  0.47147  Biso   1.000  C
  C487     1.0000 0.44600  0.53700  0.30480  Biso   1.000  C
  C488     1.0000 0.09100  0.55400  0.30480  Biso   1.000  C
  C489     1.0000 0.46300  0.90900  0.30480  Biso   1.000  C
  C490     1.0000 0.53700  0.44600  0.19520  Biso   1.000  C
  C491     1.0000 0.90900  0.46300  0.19520  Biso   1.000  C
  C492     1.0000 0.55400  0.09100  0.19520  Biso   1.000  C
  C493     1.0000 0.11267  0.87033  0.63813  Biso   1.000  C
  C494     1.0000 0.75767  0.88733  0.63813  Biso   1.000  C
  C495     1.0000 0.12967  0.24233  0.63813  Biso   1.000  C
  C496     1.0000 0.20367  0.77933  0.52853  Biso   1.000  C
  C497     1.0000 0.57567  0.79633  0.52853  Biso   1.000  C
  C498     1.0000 0.22067  0.42433  0.52853  Biso   1.000  C
  C499     1.0000 0.77933  0.20367  0.97147  Biso   1.000  C
  C500     1.0000 0.42433  0.22067  0.97147  Biso   1.000  C
  C501     1.0000 0.79633  0.57567  0.97147  Biso   1.000  C
  C502     1.0000 0.87033  0.11267  0.86187  Biso   1.000  C
  C503     1.0000 0.24233  0.12967  0.86187  Biso   1.000  C
  C504     1.0000 0.88733  0.75767  0.86187  Biso   1.000  C
  H109     1.0000 0.67500  0.44600  0.72280  Biso   1.000  H
  H110     1.0000 0.77100  0.32500  0.72280  Biso   1.000  H
  H111     1.0000 0.55400  0.22900  0.72280  Biso   1.000  H
  H112     1.0000 0.44600  0.67500  0.77720  Biso   1.000  H
  H113     1.0000 0.22900  0.55400  0.77720  Biso   1.000  H
  H114     1.0000 0.32500  0.77100  0.77720  Biso   1.000  H
  H115     1.0000 0.34167  0.77933  0.05613  Biso   1.000  H
  H116     1.0000 0.43767  0.65833  0.05613  Biso   1.000  H
  H117     1.0000 0.22067  0.56233  0.05613  Biso   1.000  H
  H118     1.0000 0.11267  0.00833  0.11053  Biso   1.000  H
  H119     1.0000 0.89567  0.88733  0.11053  Biso   1.000  H
  H120     1.0000 0.99167  0.10433  0.11053  Biso   1.000  H
  H121     1.0000 0.00833  0.11267  0.38947  Biso   1.000  H
  H122     1.0000 0.10433  0.99167  0.38947  Biso   1.000  H
  H123     1.0000 0.88733  0.89567  0.38947  Biso   1.000  H
  H124     1.0000 0.77933  0.34167  0.44387  Biso   1.000  H
  H125     1.0000 0.56233  0.22067  0.44387  Biso   1.000  H
  H126     1.0000 0.65833  0.43767  0.44387  Biso   1.000  H
  H127     1.0000 0.32500  0.55400  0.27720  Biso   1.000  H
  H128     1.0000 0.22900  0.67500  0.27720  Biso   1.000  H
  H129     1.0000 0.44600  0.77100  0.27720  Biso   1.000  H
  H130     1.0000 0.55400  0.32500  0.22280  Biso   1.000  H
  H131     1.0000 0.77100  0.44600  0.22280  Biso   1.000  H
  H132     1.0000 0.67500  0.22900  0.22280  Biso   1.000  H
  H133     1.0000 0.99167  0.88733  0.61053  Biso   1.000  H
  H134     1.0000 0.89567  0.00833  0.61053  Biso   1.000  H
  H135     1.0000 0.11267  0.10433  0.61053  Biso   1.000  H
  H136     1.0000 0.22067  0.65833  0.55613  Biso   1.000  H
  H137     1.0000 0.43767  0.77933  0.55613  Biso   1.000  H
  H138     1.0000 0.34167  0.56233  0.55613  Biso   1.000  H
  H139     1.0000 0.65833  0.22067  0.94387  Biso   1.000  H
  H140     1.0000 0.56233  0.34167  0.94387  Biso   1.000  H
  H141     1.0000 0.77933  0.43767  0.94387  Biso   1.000  H
  H142     1.0000 0.88733  0.99167  0.88947  Biso   1.000  H
  H143     1.0000 0.10433  0.11267  0.88947  Biso   1.000  H
  H144     1.0000 0.00833  0.89567  0.88947  Biso   1.000  H
  H145     1.0000 0.69900  0.46500  0.66920  Biso   1.000  H
  H146     1.0000 0.76600  0.30100  0.66920  Biso   1.000  H
  H147     1.0000 0.53500  0.23400  0.66920  Biso   1.000  H
  H148     1.0000 0.46500  0.69900  0.83080  Biso   1.000  H
  H149     1.0000 0.23400  0.53500  0.83080  Biso   1.000  H
  H150     1.0000 0.30100  0.76600  0.83080  Biso   1.000  H
  H151     1.0000 0.36567  0.79833  0.00253  Biso   1.000  H
  H152     1.0000 0.43267  0.63433  0.00253  Biso   1.000  H
  H153     1.0000 0.20167  0.56733  0.00253  Biso   1.000  H
  H154     1.0000 0.13167  0.03233  0.16413  Biso   1.000  H
  H155     1.0000 0.90067  0.86833  0.16413  Biso   1.000  H
  H156     1.0000 0.96767  0.09933  0.16413  Biso   1.000  H
  H157     1.0000 0.03233  0.13167  0.33587  Biso   1.000  H
  H158     1.0000 0.09933  0.96767  0.33587  Biso   1.000  H
  H159     1.0000 0.86833  0.90067  0.33587  Biso   1.000  H
  H160     1.0000 0.79833  0.36567  0.49747  Biso   1.000  H
  H161     1.0000 0.56733  0.20167  0.49747  Biso   1.000  H
  H162     1.0000 0.63433  0.43267  0.49747  Biso   1.000  H
  H163     1.0000 0.30100  0.53500  0.33080  Biso   1.000  H
  H164     1.0000 0.23400  0.69900  0.33080  Biso   1.000  H
  H165     1.0000 0.46500  0.76600  0.33080  Biso   1.000  H
  H166     1.0000 0.53500  0.30100  0.16920  Biso   1.000  H
  H167     1.0000 0.76600  0.46500  0.16920  Biso   1.000  H
  H168     1.0000 0.69900  0.23400  0.16920  Biso   1.000  H
  H169     1.0000 0.96767  0.86833  0.66413  Biso   1.000  H
  H170     1.0000 0.90067  0.03233  0.66413  Biso   1.000  H
  H171     1.0000 0.13167  0.09933  0.66413  Biso   1.000  H
  H172     1.0000 0.20167  0.63433  0.50253  Biso   1.000  H
  H173     1.0000 0.43267  0.79833  0.50253  Biso   1.000  H
  H174     1.0000 0.36567  0.56733  0.50253  Biso   1.000  H
  H175     1.0000 0.63433  0.20167  0.99747  Biso   1.000  H
  H176     1.0000 0.56733  0.36567  0.99747  Biso   1.000  H
  H177     1.0000 0.79833  0.43267  0.99747  Biso   1.000  H
  H178     1.0000 0.86833  0.96767  0.83587  Biso   1.000  H
  H179     1.0000 0.09933  0.13167  0.83587  Biso   1.000  H
  H180     1.0000 0.03233  0.90067  0.83587  Biso   1.000  H
  H181     1.0000 0.50500  0.46500  0.69520  Biso   1.000  H
  H182     1.0000 0.96000  0.49500  0.69520  Biso   1.000  H
  H183     1.0000 0.53500  0.04000  0.69520  Biso   1.000  H
  H184     1.0000 0.46500  0.50500  0.80480  Biso   1.000  H
  H185     1.0000 0.04000  0.53500  0.80480  Biso   1.000  H
  H186     1.0000 0.49500  0.96000  0.80480  Biso   1.000  H
  H187     1.0000 0.17167  0.79833  0.02853  Biso   1.000  H
  H188     1.0000 0.62667  0.82833  0.02853  Biso   1.000  H
  H189     1.0000 0.20167  0.37333  0.02853  Biso   1.000  H
  H190     1.0000 0.13167  0.83833  0.13813  Biso   1.000  H
  H191     1.0000 0.70667  0.86833  0.13813  Biso   1.000  H
  H192     1.0000 0.16167  0.29333  0.13813  Biso   1.000  H
  H193     1.0000 0.83833  0.13167  0.36187  Biso   1.000  H
  H194     1.0000 0.29333  0.16167  0.36187  Biso   1.000  H
  H195     1.0000 0.86833  0.70667  0.36187  Biso   1.000  H
  H196     1.0000 0.79833  0.17167  0.47147  Biso   1.000  H
  H197     1.0000 0.37333  0.20167  0.47147  Biso   1.000  H
  H198     1.0000 0.82833  0.62667  0.47147  Biso   1.000  H
  H199     1.0000 0.49500  0.53500  0.30480  Biso   1.000  H
  H200     1.0000 0.04000  0.50500  0.30480  Biso   1.000  H
  H201     1.0000 0.46500  0.96000  0.30480  Biso   1.000  H
  H202     1.0000 0.53500  0.49500  0.19520  Biso   1.000  H
  H203     1.0000 0.96000  0.46500  0.19520  Biso   1.000  H
  H204     1.0000 0.50500  0.04000  0.19520  Biso   1.000  H
  H205     1.0000 0.16167  0.86833  0.63813  Biso   1.000  H
  H206     1.0000 0.70667  0.83833  0.63813  Biso   1.000  H
  H207     1.0000 0.13167  0.29333  0.63813  Biso   1.000  H
  H208     1.0000 0.20167  0.82833  0.52853  Biso   1.000  H
  H209     1.0000 0.62667  0.79833  0.52853  Biso   1.000  H
  H210     1.0000 0.17167  0.37333  0.52853  Biso   1.000  H
  H211     1.0000 0.82833  0.20167  0.97147  Biso   1.000  H
  H212     1.0000 0.37333  0.17167  0.97147  Biso   1.000  H
  H213     1.0000 0.79833  0.62667  0.97147  Biso   1.000  H
  H214     1.0000 0.86833  0.16167  0.86187  Biso   1.000  H
  H215     1.0000 0.29333  0.13167  0.86187  Biso   1.000  H
  H216     1.0000 0.83833  0.70667  0.86187  Biso   1.000  H
