data_image0
_cell_length_a       18.5219
_cell_length_b       18.5219
_cell_length_c       34.897
_cell_angle_alpha    90
_cell_angle_beta     90
_cell_angle_gamma    120

_symmetry_space_group_name_H-M    "P 1"
_symmetry_int_tables_number       1

loop_
  _symmetry_equiv_pos_as_xyz
  'x, y, z'

loop_
  _atom_site_label
  _atom_site_occupancy
  _atom_site_fract_x
  _atom_site_fract_y
  _atom_site_fract_z
  _atom_site_thermal_displace_type
  _atom_site_B_iso_or_equiv
  _atom_site_type_symbol
  N1       1.0000 0.78640  0.88110  0.75130  Biso   1.000  N
  N2       1.0000 0.11890  0.90530  0.75130  Biso   1.000  N
  N3       1.0000 0.09470  0.21360  0.75130  Biso   1.000  N
  N4       1.0000 0.45307  0.21443  0.08463  Biso   1.000  N
  N5       1.0000 0.78557  0.23863  0.08463  Biso   1.000  N
  N6       1.0000 0.76137  0.54693  0.08463  Biso   1.000  N
  N7       1.0000 0.11973  0.54777  0.41797  Biso   1.000  N
  N8       1.0000 0.45223  0.57197  0.41797  Biso   1.000  N
  N9       1.0000 0.42803  0.88027  0.41797  Biso   1.000  N
  N10      1.0000 0.21360  0.11890  0.24870  Biso   1.000  N
  N11      1.0000 0.88110  0.09470  0.24870  Biso   1.000  N
  N12      1.0000 0.90530  0.78640  0.24870  Biso   1.000  N
  N13      1.0000 0.88027  0.45223  0.58203  Biso   1.000  N
  N14      1.0000 0.54777  0.42803  0.58203  Biso   1.000  N
  N15      1.0000 0.57197  0.11973  0.58203  Biso   1.000  N
  N16      1.0000 0.54693  0.78557  0.91537  Biso   1.000  N
  N17      1.0000 0.21443  0.76137  0.91537  Biso   1.000  N
  N18      1.0000 0.23863  0.45307  0.91537  Biso   1.000  N
  C1       1.0000 0.86480  0.89650  0.75000  Biso   1.000  C
  C2       1.0000 0.10350  0.96830  0.75000  Biso   1.000  C
  C3       1.0000 0.03170  0.13520  0.75000  Biso   1.000  C
  C4       1.0000 0.53147  0.22983  0.08333  Biso   1.000  C
  C5       1.0000 0.77017  0.30163  0.08333  Biso   1.000  C
  C6       1.0000 0.69837  0.46853  0.08333  Biso   1.000  C
  C7       1.0000 0.19813  0.56317  0.41667  Biso   1.000  C
  C8       1.0000 0.43683  0.63497  0.41667  Biso   1.000  C
  C9       1.0000 0.36503  0.80187  0.41667  Biso   1.000  C
  C10      1.0000 0.13520  0.10350  0.25000  Biso   1.000  C
  C11      1.0000 0.89650  0.03170  0.25000  Biso   1.000  C
  C12      1.0000 0.96830  0.86480  0.25000  Biso   1.000  C
  C13      1.0000 0.80187  0.43683  0.58333  Biso   1.000  C
  C14      1.0000 0.56317  0.36503  0.58333  Biso   1.000  C
  C15      1.0000 0.63497  0.19813  0.58333  Biso   1.000  C
  C16      1.0000 0.46853  0.77017  0.91667  Biso   1.000  C
  C17      1.0000 0.22983  0.69837  0.91667  Biso   1.000  C
  C18      1.0000 0.30163  0.53147  0.91667  Biso   1.000  C
  H1       1.0000 0.89370  0.91110  0.77370  Biso   1.000  H
  H2       1.0000 0.08890  0.98260  0.77370  Biso   1.000  H
  H3       1.0000 0.01740  0.10630  0.77370  Biso   1.000  H
  H4       1.0000 0.56037  0.24443  0.10703  Biso   1.000  H
  H5       1.0000 0.75557  0.31593  0.10703  Biso   1.000  H
  H6       1.0000 0.68407  0.43963  0.10703  Biso   1.000  H
  H7       1.0000 0.22703  0.57777  0.44037  Biso   1.000  H
  H8       1.0000 0.42223  0.64927  0.44037  Biso   1.000  H
  H9       1.0000 0.35073  0.77297  0.44037  Biso   1.000  H
  H10      1.0000 0.10630  0.08890  0.22630  Biso   1.000  H
  H11      1.0000 0.91110  0.01740  0.22630  Biso   1.000  H
  H12      1.0000 0.98260  0.89370  0.22630  Biso   1.000  H
  H13      1.0000 0.77297  0.42223  0.55963  Biso   1.000  H
  H14      1.0000 0.57777  0.35073  0.55963  Biso   1.000  H
  H15      1.0000 0.64927  0.22703  0.55963  Biso   1.000  H
  H16      1.0000 0.43963  0.75557  0.89297  Biso   1.000  H
  H17      1.0000 0.24443  0.68407  0.89297  Biso   1.000  H
  H18      1.0000 0.31593  0.56037  0.89297  Biso   1.000  H
  N19      1.0000 0.90820  0.89440  0.72000  Biso   1.000  N
  N20      1.0000 0.10560  0.01380  0.72000  Biso   1.000  N
  N21      1.0000 0.98620  0.09180  0.72000  Biso   1.000  N
  N22      1.0000 0.57487  0.22773  0.05333  Biso   1.000  N
  N23      1.0000 0.77227  0.34713  0.05333  Biso   1.000  N
  N24      1.0000 0.65287  0.42513  0.05333  Biso   1.000  N
  N25      1.0000 0.24153  0.56107  0.38667  Biso   1.000  N
  N26      1.0000 0.43893  0.68047  0.38667  Biso   1.000  N
  N27      1.0000 0.31953  0.75847  0.38667  Biso   1.000  N
  N28      1.0000 0.09180  0.10560  0.28000  Biso   1.000  N
  N29      1.0000 0.89440  0.98620  0.28000  Biso   1.000  N
  N30      1.0000 0.01380  0.90820  0.28000  Biso   1.000  N
  N31      1.0000 0.75847  0.43893  0.61333  Biso   1.000  N
  N32      1.0000 0.56107  0.31953  0.61333  Biso   1.000  N
  N33      1.0000 0.68047  0.24153  0.61333  Biso   1.000  N
  N34      1.0000 0.42513  0.77227  0.94667  Biso   1.000  N
  N35      1.0000 0.22773  0.65287  0.94667  Biso   1.000  N
  N36      1.0000 0.34713  0.57487  0.94667  Biso   1.000  N
  C19      1.0000 0.86910  0.87430  0.68680  Biso   1.000  C
  C20      1.0000 0.12570  0.99480  0.68680  Biso   1.000  C
  C21      1.0000 0.00520  0.13090  0.68680  Biso   1.000  C
  C22      1.0000 0.53577  0.20763  0.02013  Biso   1.000  C
  C23      1.0000 0.79237  0.32813  0.02013  Biso   1.000  C
  C24      1.0000 0.67187  0.46423  0.02013  Biso   1.000  C
  C25      1.0000 0.20243  0.54097  0.35347  Biso   1.000  C
  C26      1.0000 0.45903  0.66147  0.35347  Biso   1.000  C
  C27      1.0000 0.33853  0.79757  0.35347  Biso   1.000  C
  C28      1.0000 0.13090  0.12570  0.31320  Biso   1.000  C
  C29      1.0000 0.87430  0.00520  0.31320  Biso   1.000  C
  C30      1.0000 0.99480  0.86910  0.31320  Biso   1.000  C
  C31      1.0000 0.79757  0.45903  0.64653  Biso   1.000  C
  C32      1.0000 0.54097  0.33853  0.64653  Biso   1.000  C
  C33      1.0000 0.66147  0.20243  0.64653  Biso   1.000  C
  C34      1.0000 0.46423  0.79237  0.97987  Biso   1.000  C
  C35      1.0000 0.20763  0.67187  0.97987  Biso   1.000  C
  C36      1.0000 0.32813  0.53577  0.97987  Biso   1.000  C
  H19      1.0000 0.89760  0.87200  0.66460  Biso   1.000  H
  H20      1.0000 0.12800  0.02560  0.66460  Biso   1.000  H
  H21      1.0000 0.97440  0.10240  0.66460  Biso   1.000  H
  H22      1.0000 0.56427  0.20533  0.99793  Biso   1.000  H
  H23      1.0000 0.79467  0.35893  0.99793  Biso   1.000  H
  H24      1.0000 0.64107  0.43573  0.99793  Biso   1.000  H
  H25      1.0000 0.23093  0.53867  0.33127  Biso   1.000  H
  H26      1.0000 0.46133  0.69227  0.33127  Biso   1.000  H
  H27      1.0000 0.30773  0.76907  0.33127  Biso   1.000  H
  H28      1.0000 0.10240  0.12800  0.33540  Biso   1.000  H
  H29      1.0000 0.87200  0.97440  0.33540  Biso   1.000  H
  H30      1.0000 0.02560  0.89760  0.33540  Biso   1.000  H
  H31      1.0000 0.76907  0.46133  0.66873  Biso   1.000  H
  H32      1.0000 0.53867  0.30773  0.66873  Biso   1.000  H
  H33      1.0000 0.69227  0.23093  0.66873  Biso   1.000  H
  H34      1.0000 0.43573  0.79467  0.00207  Biso   1.000  H
  H35      1.0000 0.20533  0.64107  0.00207  Biso   1.000  H
  H36      1.0000 0.35893  0.56427  0.00207  Biso   1.000  H
  C37      1.0000 0.78920  0.85680  0.68360  Biso   1.000  C
  C38      1.0000 0.14320  0.93240  0.68360  Biso   1.000  C
  C39      1.0000 0.06760  0.21080  0.68360  Biso   1.000  C
  C40      1.0000 0.45587  0.19013  0.01693  Biso   1.000  C
  C41      1.0000 0.80987  0.26573  0.01693  Biso   1.000  C
  C42      1.0000 0.73427  0.54413  0.01693  Biso   1.000  C
  C43      1.0000 0.12253  0.52347  0.35027  Biso   1.000  C
  C44      1.0000 0.47653  0.59907  0.35027  Biso   1.000  C
  C45      1.0000 0.40093  0.87747  0.35027  Biso   1.000  C
  C46      1.0000 0.21080  0.14320  0.31640  Biso   1.000  C
  C47      1.0000 0.85680  0.06760  0.31640  Biso   1.000  C
  C48      1.0000 0.93240  0.78920  0.31640  Biso   1.000  C
  C49      1.0000 0.87747  0.47653  0.64973  Biso   1.000  C
  C50      1.0000 0.52347  0.40093  0.64973  Biso   1.000  C
  C51      1.0000 0.59907  0.12253  0.64973  Biso   1.000  C
  C52      1.0000 0.54413  0.80987  0.98307  Biso   1.000  C
  C53      1.0000 0.19013  0.73427  0.98307  Biso   1.000  C
  C54      1.0000 0.26573  0.45587  0.98307  Biso   1.000  C
  C55      1.0000 0.75310  0.86170  0.71690  Biso   1.000  C
  C56      1.0000 0.13830  0.89140  0.71690  Biso   1.000  C
  C57      1.0000 0.10860  0.24690  0.71690  Biso   1.000  C
  C58      1.0000 0.41977  0.19503  0.05023  Biso   1.000  C
  C59      1.0000 0.80497  0.22473  0.05023  Biso   1.000  C
  C60      1.0000 0.77527  0.58023  0.05023  Biso   1.000  C
  C61      1.0000 0.08643  0.52837  0.38357  Biso   1.000  C
  C62      1.0000 0.47163  0.55807  0.38357  Biso   1.000  C
  C63      1.0000 0.44193  0.91357  0.38357  Biso   1.000  C
  C64      1.0000 0.24690  0.13830  0.28310  Biso   1.000  C
  C65      1.0000 0.86170  0.10860  0.28310  Biso   1.000  C
  C66      1.0000 0.89140  0.75310  0.28310  Biso   1.000  C
  C67      1.0000 0.91357  0.47163  0.61643  Biso   1.000  C
  C68      1.0000 0.52837  0.44193  0.61643  Biso   1.000  C
  C69      1.0000 0.55807  0.08643  0.61643  Biso   1.000  C
  C70      1.0000 0.58023  0.80497  0.94977  Biso   1.000  C
  C71      1.0000 0.19503  0.77527  0.94977  Biso   1.000  C
  C72      1.0000 0.22473  0.41977  0.94977  Biso   1.000  C
  H37      1.0000 0.69690  0.84950  0.71500  Biso   1.000  H
  H38      1.0000 0.15050  0.84740  0.71500  Biso   1.000  H
  H39      1.0000 0.15260  0.30310  0.71500  Biso   1.000  H
  H40      1.0000 0.36357  0.18283  0.04833  Biso   1.000  H
  H41      1.0000 0.81717  0.18073  0.04833  Biso   1.000  H
  H42      1.0000 0.81927  0.63643  0.04833  Biso   1.000  H
  H43      1.0000 0.03023  0.51617  0.38167  Biso   1.000  H
  H44      1.0000 0.48383  0.51407  0.38167  Biso   1.000  H
  H45      1.0000 0.48593  0.96977  0.38167  Biso   1.000  H
  H46      1.0000 0.30310  0.15050  0.28500  Biso   1.000  H
  H47      1.0000 0.84950  0.15260  0.28500  Biso   1.000  H
  H48      1.0000 0.84740  0.69690  0.28500  Biso   1.000  H
  H49      1.0000 0.96977  0.48383  0.61833  Biso   1.000  H
  H50      1.0000 0.51617  0.48593  0.61833  Biso   1.000  H
  H51      1.0000 0.51407  0.03023  0.61833  Biso   1.000  H
  H52      1.0000 0.63643  0.81717  0.95167  Biso   1.000  H
  H53      1.0000 0.18283  0.81927  0.95167  Biso   1.000  H
  H54      1.0000 0.18073  0.36357  0.95167  Biso   1.000  H
  Cu1      1.0000 0.71438  0.85716  0.80260  Biso   1.000  Cu
  Cu2      1.0000 0.14284  0.85722  0.80260  Biso   1.000  Cu
  Cu3      1.0000 0.14278  0.28562  0.80260  Biso   1.000  Cu
  Cu4      1.0000 0.38105  0.19049  0.13593  Biso   1.000  Cu
  Cu5      1.0000 0.80951  0.19055  0.13593  Biso   1.000  Cu
  Cu6      1.0000 0.80945  0.61895  0.13593  Biso   1.000  Cu
  Cu7      1.0000 0.04771  0.52383  0.46927  Biso   1.000  Cu
  Cu8      1.0000 0.47617  0.52389  0.46927  Biso   1.000  Cu
  Cu9      1.0000 0.47611  0.95229  0.46927  Biso   1.000  Cu
  Cu10     1.0000 0.28562  0.14284  0.19740  Biso   1.000  Cu
  Cu11     1.0000 0.85716  0.14278  0.19740  Biso   1.000  Cu
  Cu12     1.0000 0.85722  0.71438  0.19740  Biso   1.000  Cu
  Cu13     1.0000 0.95229  0.47617  0.53073  Biso   1.000  Cu
  Cu14     1.0000 0.52383  0.47611  0.53073  Biso   1.000  Cu
  Cu15     1.0000 0.52389  0.04771  0.53073  Biso   1.000  Cu
  Cu16     1.0000 0.61895  0.80951  0.86407  Biso   1.000  Cu
  Cu17     1.0000 0.19049  0.80945  0.86407  Biso   1.000  Cu
  Cu18     1.0000 0.19055  0.38105  0.86407  Biso   1.000  Cu
  C73      1.0000 0.55110  0.64170  0.52940  Biso   1.000  C
  C74      1.0000 0.35830  0.90940  0.52940  Biso   1.000  C
  C75      1.0000 0.09060  0.44890  0.52940  Biso   1.000  C
  C76      1.0000 0.21777  0.97503  0.86273  Biso   1.000  C
  C77      1.0000 0.02497  0.24273  0.86273  Biso   1.000  C
  C78      1.0000 0.75727  0.78223  0.86273  Biso   1.000  C
  C79      1.0000 0.88443  0.30837  0.19607  Biso   1.000  C
  C80      1.0000 0.69163  0.57607  0.19607  Biso   1.000  C
  C81      1.0000 0.42393  0.11557  0.19607  Biso   1.000  C
  C82      1.0000 0.44890  0.35830  0.47060  Biso   1.000  C
  C83      1.0000 0.64170  0.09060  0.47060  Biso   1.000  C
  C84      1.0000 0.90940  0.55110  0.47060  Biso   1.000  C
  C85      1.0000 0.11557  0.69163  0.80393  Biso   1.000  C
  C86      1.0000 0.30837  0.42393  0.80393  Biso   1.000  C
  C87      1.0000 0.57607  0.88443  0.80393  Biso   1.000  C
  C88      1.0000 0.78223  0.02497  0.13727  Biso   1.000  C
  C89      1.0000 0.97503  0.75727  0.13727  Biso   1.000  C
  C90      1.0000 0.24273  0.21777  0.13727  Biso   1.000  C
  O1       1.0000 0.51890  0.62940  0.49680  Biso   1.000  O
  O2       1.0000 0.37060  0.88950  0.49680  Biso   1.000  O
  O3       1.0000 0.11050  0.48110  0.49680  Biso   1.000  O
  O4       1.0000 0.18557  0.96273  0.83013  Biso   1.000  O
  O5       1.0000 0.03727  0.22283  0.83013  Biso   1.000  O
  O6       1.0000 0.77717  0.81443  0.83013  Biso   1.000  O
  O7       1.0000 0.85223  0.29607  0.16347  Biso   1.000  O
  O8       1.0000 0.70393  0.55617  0.16347  Biso   1.000  O
  O9       1.0000 0.44383  0.14777  0.16347  Biso   1.000  O
  O10      1.0000 0.48110  0.37060  0.50320  Biso   1.000  O
  O11      1.0000 0.62940  0.11050  0.50320  Biso   1.000  O
  O12      1.0000 0.88950  0.51890  0.50320  Biso   1.000  O
  O13      1.0000 0.14777  0.70393  0.83653  Biso   1.000  O
  O14      1.0000 0.29607  0.44383  0.83653  Biso   1.000  O
  O15      1.0000 0.55617  0.85223  0.83653  Biso   1.000  O
  O16      1.0000 0.81443  0.03727  0.16987  Biso   1.000  O
  O17      1.0000 0.96273  0.77717  0.16987  Biso   1.000  O
  O18      1.0000 0.22283  0.18557  0.16987  Biso   1.000  O
  O19      1.0000 0.56060  0.58970  0.54837  Biso   1.000  O
  O20      1.0000 0.41030  0.97090  0.54837  Biso   1.000  O
  O21      1.0000 0.02910  0.43940  0.54837  Biso   1.000  O
  O22      1.0000 0.22727  0.92303  0.88170  Biso   1.000  O
  O23      1.0000 0.07697  0.30423  0.88170  Biso   1.000  O
  O24      1.0000 0.69577  0.77273  0.88170  Biso   1.000  O
  O25      1.0000 0.89393  0.25637  0.21504  Biso   1.000  O
  O26      1.0000 0.74363  0.63757  0.21504  Biso   1.000  O
  O27      1.0000 0.36243  0.10607  0.21504  Biso   1.000  O
  O28      1.0000 0.43940  0.41030  0.45163  Biso   1.000  O
  O29      1.0000 0.58970  0.02910  0.45163  Biso   1.000  O
  O30      1.0000 0.97090  0.56060  0.45163  Biso   1.000  O
  O31      1.0000 0.10607  0.74363  0.78496  Biso   1.000  O
  O32      1.0000 0.25637  0.36243  0.78496  Biso   1.000  O
  O33      1.0000 0.63757  0.89393  0.78496  Biso   1.000  O
  O34      1.0000 0.77273  0.07697  0.11830  Biso   1.000  O
  O35      1.0000 0.92303  0.69577  0.11830  Biso   1.000  O
  O36      1.0000 0.30423  0.22727  0.11830  Biso   1.000  O
  C91      1.0000 0.55080  0.90930  0.52960  Biso   1.000  C
  C92      1.0000 0.09070  0.64150  0.52960  Biso   1.000  C
  C93      1.0000 0.35850  0.44920  0.52960  Biso   1.000  C
  C94      1.0000 0.21747  0.24263  0.86293  Biso   1.000  C
  C95      1.0000 0.75737  0.97483  0.86293  Biso   1.000  C
  C96      1.0000 0.02517  0.78253  0.86293  Biso   1.000  C
  C97      1.0000 0.88413  0.57597  0.19627  Biso   1.000  C
  C98      1.0000 0.42403  0.30817  0.19627  Biso   1.000  C
  C99      1.0000 0.69183  0.11587  0.19627  Biso   1.000  C
  C100     1.0000 0.44920  0.09070  0.47040  Biso   1.000  C
  C101     1.0000 0.90930  0.35850  0.47040  Biso   1.000  C
  C102     1.0000 0.64150  0.55080  0.47040  Biso   1.000  C
  C103     1.0000 0.11587  0.42403  0.80373  Biso   1.000  C
  C104     1.0000 0.57597  0.69183  0.80373  Biso   1.000  C
  C105     1.0000 0.30817  0.88413  0.80373  Biso   1.000  C
  C106     1.0000 0.78253  0.75737  0.13707  Biso   1.000  C
  C107     1.0000 0.24263  0.02517  0.13707  Biso   1.000  C
  C108     1.0000 0.97483  0.21747  0.13707  Biso   1.000  C
  O37      1.0000 0.51880  0.88960  0.49700  Biso   1.000  O
  O38      1.0000 0.11040  0.62920  0.49700  Biso   1.000  O
  O39      1.0000 0.37080  0.48120  0.49700  Biso   1.000  O
  O40      1.0000 0.18547  0.22293  0.83033  Biso   1.000  O
  O41      1.0000 0.77707  0.96253  0.83033  Biso   1.000  O
  O42      1.0000 0.03747  0.81453  0.83033  Biso   1.000  O
  O43      1.0000 0.85213  0.55627  0.16367  Biso   1.000  O
  O44      1.0000 0.44373  0.29587  0.16367  Biso   1.000  O
  O45      1.0000 0.70413  0.14787  0.16367  Biso   1.000  O
  O46      1.0000 0.48120  0.11040  0.50300  Biso   1.000  O
  O47      1.0000 0.88960  0.37080  0.50300  Biso   1.000  O
  O48      1.0000 0.62920  0.51880  0.50300  Biso   1.000  O
  O49      1.0000 0.14787  0.44373  0.83633  Biso   1.000  O
  O50      1.0000 0.55627  0.70413  0.83633  Biso   1.000  O
  O51      1.0000 0.29587  0.85213  0.83633  Biso   1.000  O
  O52      1.0000 0.81453  0.77707  0.16967  Biso   1.000  O
  O53      1.0000 0.22293  0.03747  0.16967  Biso   1.000  O
  O54      1.0000 0.96253  0.18547  0.16967  Biso   1.000  O
  O55      1.0000 0.56080  0.97100  0.54798  Biso   1.000  O
  O56      1.0000 0.02900  0.58980  0.54798  Biso   1.000  O
  O57      1.0000 0.41020  0.43920  0.54798  Biso   1.000  O
  O58      1.0000 0.22747  0.30433  0.88131  Biso   1.000  O
  O59      1.0000 0.69567  0.92313  0.88131  Biso   1.000  O
  O60      1.0000 0.07687  0.77253  0.88131  Biso   1.000  O
  O61      1.0000 0.89413  0.63767  0.21465  Biso   1.000  O
  O62      1.0000 0.36233  0.25647  0.21465  Biso   1.000  O
  O63      1.0000 0.74353  0.10587  0.21465  Biso   1.000  O
  O64      1.0000 0.43920  0.02900  0.45202  Biso   1.000  O
  O65      1.0000 0.97100  0.41020  0.45202  Biso   1.000  O
  O66      1.0000 0.58980  0.56080  0.45202  Biso   1.000  O
  O67      1.0000 0.10587  0.36233  0.78535  Biso   1.000  O
  O68      1.0000 0.63767  0.74353  0.78535  Biso   1.000  O
  O69      1.0000 0.25647  0.89413  0.78535  Biso   1.000  O
  O70      1.0000 0.77253  0.69567  0.11869  Biso   1.000  O
  O71      1.0000 0.30433  0.07687  0.11869  Biso   1.000  O
  O72      1.0000 0.92313  0.22747  0.11869  Biso   1.000  O
  H55      1.0000 0.69740  0.84660  0.71370  Biso   1.000  H
  H56      1.0000 0.15340  0.85080  0.71370  Biso   1.000  H
  H57      1.0000 0.14920  0.30260  0.71370  Biso   1.000  H
  H58      1.0000 0.36407  0.17993  0.04703  Biso   1.000  H
  H59      1.0000 0.82007  0.18413  0.04703  Biso   1.000  H
  H60      1.0000 0.81587  0.63593  0.04703  Biso   1.000  H
  H61      1.0000 0.03073  0.51327  0.38037  Biso   1.000  H
  H62      1.0000 0.48673  0.51747  0.38037  Biso   1.000  H
  H63      1.0000 0.48253  0.96927  0.38037  Biso   1.000  H
  H64      1.0000 0.30260  0.15340  0.28630  Biso   1.000  H
  H65      1.0000 0.84660  0.14920  0.28630  Biso   1.000  H
  H66      1.0000 0.85080  0.69740  0.28630  Biso   1.000  H
  H67      1.0000 0.96927  0.48673  0.61963  Biso   1.000  H
  H68      1.0000 0.51327  0.48253  0.61963  Biso   1.000  H
  H69      1.0000 0.51747  0.03073  0.61963  Biso   1.000  H
  H70      1.0000 0.63593  0.82007  0.95297  Biso   1.000  H
  H71      1.0000 0.17993  0.81587  0.95297  Biso   1.000  H
  H72      1.0000 0.18413  0.36407  0.95297  Biso   1.000  H
  C109     1.0000 0.75360  0.83570  0.64420  Biso   1.000  C
  C110     1.0000 0.16430  0.91790  0.64420  Biso   1.000  C
  C111     1.0000 0.08210  0.24640  0.64420  Biso   1.000  C
  C112     1.0000 0.42027  0.16903  0.97753  Biso   1.000  C
  C113     1.0000 0.83097  0.25123  0.97753  Biso   1.000  C
  C114     1.0000 0.74877  0.57973  0.97753  Biso   1.000  C
  C115     1.0000 0.08693  0.50237  0.31087  Biso   1.000  C
  C116     1.0000 0.49763  0.58457  0.31087  Biso   1.000  C
  C117     1.0000 0.41543  0.91307  0.31087  Biso   1.000  C
  C118     1.0000 0.24640  0.16430  0.35580  Biso   1.000  C
  C119     1.0000 0.83570  0.08210  0.35580  Biso   1.000  C
  C120     1.0000 0.91790  0.75360  0.35580  Biso   1.000  C
  C121     1.0000 0.91307  0.49763  0.68913  Biso   1.000  C
  C122     1.0000 0.50237  0.41543  0.68913  Biso   1.000  C
  C123     1.0000 0.58457  0.08693  0.68913  Biso   1.000  C
  C124     1.0000 0.57973  0.83097  0.02247  Biso   1.000  C
  C125     1.0000 0.16903  0.74877  0.02247  Biso   1.000  C
  C126     1.0000 0.25123  0.42027  0.02247  Biso   1.000  C
  O73      1.0000 0.79550  0.80800  0.62190  Biso   1.000  O
  O74      1.0000 0.19200  0.98750  0.62190  Biso   1.000  O
  O75      1.0000 0.01250  0.20450  0.62190  Biso   1.000  O
  O76      1.0000 0.46217  0.14133  0.95523  Biso   1.000  O
  O77      1.0000 0.85867  0.32083  0.95523  Biso   1.000  O
  O78      1.0000 0.67917  0.53783  0.95523  Biso   1.000  O
  O79      1.0000 0.12883  0.47467  0.28857  Biso   1.000  O
  O80      1.0000 0.52533  0.65417  0.28857  Biso   1.000  O
  O81      1.0000 0.34583  0.87117  0.28857  Biso   1.000  O
  O82      1.0000 0.20450  0.19200  0.37810  Biso   1.000  O
  O83      1.0000 0.80800  0.01250  0.37810  Biso   1.000  O
  O84      1.0000 0.98750  0.79550  0.37810  Biso   1.000  O
  O85      1.0000 0.87117  0.52533  0.71143  Biso   1.000  O
  O86      1.0000 0.47467  0.34583  0.71143  Biso   1.000  O
  O87      1.0000 0.65417  0.12883  0.71143  Biso   1.000  O
  O88      1.0000 0.53783  0.85867  0.04477  Biso   1.000  O
  O89      1.0000 0.14133  0.67917  0.04477  Biso   1.000  O
  O90      1.0000 0.32083  0.46217  0.04477  Biso   1.000  O
  C127     1.0000 0.66830  0.83500  0.58780  Biso   1.000  C
  C128     1.0000 0.16500  0.83330  0.58780  Biso   1.000  C
  C129     1.0000 0.16670  0.33170  0.58780  Biso   1.000  C
  C130     1.0000 0.33497  0.16833  0.92113  Biso   1.000  C
  C131     1.0000 0.83167  0.16663  0.92113  Biso   1.000  C
  C132     1.0000 0.83337  0.66503  0.92113  Biso   1.000  C
  C133     1.0000 0.00163  0.50167  0.25447  Biso   1.000  C
  C134     1.0000 0.49833  0.49997  0.25447  Biso   1.000  C
  C135     1.0000 0.50003  0.99837  0.25447  Biso   1.000  C
  C136     1.0000 0.33170  0.16500  0.41220  Biso   1.000  C
  C137     1.0000 0.83500  0.16670  0.41220  Biso   1.000  C
  C138     1.0000 0.83330  0.66830  0.41220  Biso   1.000  C
  C139     1.0000 0.99837  0.49833  0.74553  Biso   1.000  C
  C140     1.0000 0.50167  0.50003  0.74553  Biso   1.000  C
  C141     1.0000 0.49997  0.00163  0.74553  Biso   1.000  C
  C142     1.0000 0.66503  0.83167  0.07887  Biso   1.000  C
  C143     1.0000 0.16833  0.83337  0.07887  Biso   1.000  C
  C144     1.0000 0.16663  0.33497  0.07887  Biso   1.000  C
  C145     1.0000 0.64400  0.75680  0.57320  Biso   1.000  C
  C146     1.0000 0.24320  0.88720  0.57320  Biso   1.000  C
  C147     1.0000 0.11280  0.35600  0.57320  Biso   1.000  C
  C148     1.0000 0.31067  0.09013  0.90653  Biso   1.000  C
  C149     1.0000 0.90987  0.22053  0.90653  Biso   1.000  C
  C150     1.0000 0.77947  0.68933  0.90653  Biso   1.000  C
  C151     1.0000 0.97733  0.42347  0.23987  Biso   1.000  C
  C152     1.0000 0.57653  0.55387  0.23987  Biso   1.000  C
  C153     1.0000 0.44613  0.02267  0.23987  Biso   1.000  C
  C154     1.0000 0.35600  0.24320  0.42680  Biso   1.000  C
  C155     1.0000 0.75680  0.11280  0.42680  Biso   1.000  C
  C156     1.0000 0.88720  0.64400  0.42680  Biso   1.000  C
  C157     1.0000 0.02267  0.57653  0.76013  Biso   1.000  C
  C158     1.0000 0.42347  0.44613  0.76013  Biso   1.000  C
  C159     1.0000 0.55387  0.97733  0.76013  Biso   1.000  C
  C160     1.0000 0.68933  0.90987  0.09347  Biso   1.000  C
  C161     1.0000 0.09013  0.77947  0.09347  Biso   1.000  C
  C162     1.0000 0.22053  0.31067  0.09347  Biso   1.000  C
  H73      1.0000 0.66690  0.72420  0.58230  Biso   1.000  H
  H74      1.0000 0.27580  0.94270  0.58230  Biso   1.000  H
  H75      1.0000 0.05730  0.33310  0.58230  Biso   1.000  H
  H76      1.0000 0.33357  0.05753  0.91563  Biso   1.000  H
  H77      1.0000 0.94247  0.27603  0.91563  Biso   1.000  H
  H78      1.0000 0.72397  0.66643  0.91563  Biso   1.000  H
  H79      1.0000 0.00023  0.39087  0.24897  Biso   1.000  H
  H80      1.0000 0.60913  0.60937  0.24897  Biso   1.000  H
  H81      1.0000 0.39063  0.99977  0.24897  Biso   1.000  H
  H82      1.0000 0.33310  0.27580  0.41770  Biso   1.000  H
  H83      1.0000 0.72420  0.05730  0.41770  Biso   1.000  H
  H84      1.0000 0.94270  0.66690  0.41770  Biso   1.000  H
  H85      1.0000 0.99977  0.60913  0.75103  Biso   1.000  H
  H86      1.0000 0.39087  0.39063  0.75103  Biso   1.000  H
  H87      1.0000 0.60937  0.00023  0.75103  Biso   1.000  H
  H88      1.0000 0.66643  0.94247  0.08437  Biso   1.000  H
  H89      1.0000 0.05753  0.72397  0.08437  Biso   1.000  H
  H90      1.0000 0.27603  0.33357  0.08437  Biso   1.000  H
  C163     1.0000 0.58300  0.72780  0.54380  Biso   1.000  C
  C164     1.0000 0.27220  0.85520  0.54380  Biso   1.000  C
  C165     1.0000 0.14480  0.41700  0.54380  Biso   1.000  C
  C166     1.0000 0.24967  0.06113  0.87713  Biso   1.000  C
  C167     1.0000 0.93887  0.18853  0.87713  Biso   1.000  C
  C168     1.0000 0.81147  0.75033  0.87713  Biso   1.000  C
  C169     1.0000 0.91633  0.39447  0.21047  Biso   1.000  C
  C170     1.0000 0.60553  0.52187  0.21047  Biso   1.000  C
  C171     1.0000 0.47813  0.08367  0.21047  Biso   1.000  C
  C172     1.0000 0.41700  0.27220  0.45620  Biso   1.000  C
  C173     1.0000 0.72780  0.14480  0.45620  Biso   1.000  C
  C174     1.0000 0.85520  0.58300  0.45620  Biso   1.000  C
  C175     1.0000 0.08367  0.60553  0.78953  Biso   1.000  C
  C176     1.0000 0.39447  0.47813  0.78953  Biso   1.000  C
  C177     1.0000 0.52187  0.91633  0.78953  Biso   1.000  C
  C178     1.0000 0.75033  0.93887  0.12287  Biso   1.000  C
  C179     1.0000 0.06113  0.81147  0.12287  Biso   1.000  C
  C180     1.0000 0.18853  0.24967  0.12287  Biso   1.000  C
  C181     1.0000 0.56100  0.78100  0.52600  Biso   1.000  C
  C182     1.0000 0.21900  0.78000  0.52600  Biso   1.000  C
  C183     1.0000 0.22000  0.43900  0.52600  Biso   1.000  C
  C184     1.0000 0.22767  0.11433  0.85933  Biso   1.000  C
  C185     1.0000 0.88567  0.11333  0.85933  Biso   1.000  C
  C186     1.0000 0.88667  0.77233  0.85933  Biso   1.000  C
  C187     1.0000 0.89433  0.44767  0.19267  Biso   1.000  C
  C188     1.0000 0.55233  0.44667  0.19267  Biso   1.000  C
  C189     1.0000 0.55333  0.10567  0.19267  Biso   1.000  C
  C190     1.0000 0.43900  0.21900  0.47400  Biso   1.000  C
  C191     1.0000 0.78100  0.22000  0.47400  Biso   1.000  C
  C192     1.0000 0.78000  0.56100  0.47400  Biso   1.000  C
  C193     1.0000 0.10567  0.55233  0.80733  Biso   1.000  C
  C194     1.0000 0.44767  0.55333  0.80733  Biso   1.000  C
  C195     1.0000 0.44667  0.89433  0.80733  Biso   1.000  C
  C196     1.0000 0.77233  0.88567  0.14067  Biso   1.000  C
  C197     1.0000 0.11433  0.88667  0.14067  Biso   1.000  C
  C198     1.0000 0.11333  0.22767  0.14067  Biso   1.000  C
  H91      1.0000 0.53200  0.76600  0.50230  Biso   1.000  H
  H92      1.0000 0.23400  0.76600  0.50230  Biso   1.000  H
  H93      1.0000 0.23400  0.46800  0.50230  Biso   1.000  H
  H94      1.0000 0.19867  0.09933  0.83563  Biso   1.000  H
  H95      1.0000 0.90067  0.09933  0.83563  Biso   1.000  H
  H96      1.0000 0.90067  0.80133  0.83563  Biso   1.000  H
  H97      1.0000 0.86533  0.43267  0.16897  Biso   1.000  H
  H98      1.0000 0.56733  0.43267  0.16897  Biso   1.000  H
  H99      1.0000 0.56733  0.13467  0.16897  Biso   1.000  H
  H100     1.0000 0.46800  0.23400  0.49770  Biso   1.000  H
  H101     1.0000 0.76600  0.23400  0.49770  Biso   1.000  H
  H102     1.0000 0.76600  0.53200  0.49770  Biso   1.000  H
  H103     1.0000 0.13467  0.56733  0.83103  Biso   1.000  H
  H104     1.0000 0.43267  0.56733  0.83103  Biso   1.000  H
  H105     1.0000 0.43267  0.86533  0.83103  Biso   1.000  H
  H106     1.0000 0.80133  0.90067  0.16437  Biso   1.000  H
  H107     1.0000 0.09933  0.90067  0.16437  Biso   1.000  H
  H108     1.0000 0.09933  0.19867  0.16437  Biso   1.000  H
  C199     1.0000 0.58350  0.85570  0.54350  Biso   1.000  C
  C200     1.0000 0.14430  0.72780  0.54350  Biso   1.000  C
  C201     1.0000 0.27220  0.41650  0.54350  Biso   1.000  C
  C202     1.0000 0.25017  0.18903  0.87683  Biso   1.000  C
  C203     1.0000 0.81097  0.06113  0.87683  Biso   1.000  C
  C204     1.0000 0.93887  0.74983  0.87683  Biso   1.000  C
  C205     1.0000 0.91683  0.52237  0.21017  Biso   1.000  C
  C206     1.0000 0.47763  0.39447  0.21017  Biso   1.000  C
  C207     1.0000 0.60553  0.08317  0.21017  Biso   1.000  C
  C208     1.0000 0.41650  0.14430  0.45650  Biso   1.000  C
  C209     1.0000 0.85570  0.27220  0.45650  Biso   1.000  C
  C210     1.0000 0.72780  0.58350  0.45650  Biso   1.000  C
  C211     1.0000 0.08317  0.47763  0.78983  Biso   1.000  C
  C212     1.0000 0.52237  0.60553  0.78983  Biso   1.000  C
  C213     1.0000 0.39447  0.91683  0.78983  Biso   1.000  C
  C214     1.0000 0.74983  0.81097  0.12317  Biso   1.000  C
  C215     1.0000 0.18903  0.93887  0.12317  Biso   1.000  C
  C216     1.0000 0.06113  0.25017  0.12317  Biso   1.000  C
  C217     1.0000 0.64210  0.88770  0.57370  Biso   1.000  C
  C218     1.0000 0.11230  0.75440  0.57370  Biso   1.000  C
  C219     1.0000 0.24560  0.35790  0.57370  Biso   1.000  C
  C220     1.0000 0.30877  0.22103  0.90703  Biso   1.000  C
  C221     1.0000 0.77897  0.08773  0.90703  Biso   1.000  C
  C222     1.0000 0.91227  0.69123  0.90703  Biso   1.000  C
  C223     1.0000 0.97543  0.55437  0.24037  Biso   1.000  C
  C224     1.0000 0.44563  0.42107  0.24037  Biso   1.000  C
  C225     1.0000 0.57893  0.02457  0.24037  Biso   1.000  C
  C226     1.0000 0.35790  0.11230  0.42630  Biso   1.000  C
  C227     1.0000 0.88770  0.24560  0.42630  Biso   1.000  C
  C228     1.0000 0.75440  0.64210  0.42630  Biso   1.000  C
  C229     1.0000 0.02457  0.44563  0.75963  Biso   1.000  C
  C230     1.0000 0.55437  0.57893  0.75963  Biso   1.000  C
  C231     1.0000 0.42107  0.97543  0.75963  Biso   1.000  C
  C232     1.0000 0.69123  0.77897  0.09297  Biso   1.000  C
  C233     1.0000 0.22103  0.91227  0.09297  Biso   1.000  C
  C234     1.0000 0.08773  0.30877  0.09297  Biso   1.000  C
  H109     1.0000 0.66230  0.94230  0.58360  Biso   1.000  H
  H110     1.0000 0.05770  0.72000  0.58360  Biso   1.000  H
  H111     1.0000 0.28000  0.33770  0.58360  Biso   1.000  H
  H112     1.0000 0.32897  0.27563  0.91693  Biso   1.000  H
  H113     1.0000 0.72437  0.05333  0.91693  Biso   1.000  H
  H114     1.0000 0.94667  0.67103  0.91693  Biso   1.000  H
  H115     1.0000 0.99563  0.60897  0.25027  Biso   1.000  H
  H116     1.0000 0.39103  0.38667  0.25027  Biso   1.000  H
  H117     1.0000 0.61333  0.00437  0.25027  Biso   1.000  H
  H118     1.0000 0.33770  0.05770  0.41640  Biso   1.000  H
  H119     1.0000 0.94230  0.28000  0.41640  Biso   1.000  H
  H120     1.0000 0.72000  0.66230  0.41640  Biso   1.000  H
  H121     1.0000 0.00437  0.39103  0.74973  Biso   1.000  H
  H122     1.0000 0.60897  0.61333  0.74973  Biso   1.000  H
  H123     1.0000 0.38667  0.99563  0.74973  Biso   1.000  H
  H124     1.0000 0.67103  0.72437  0.08307  Biso   1.000  H
  H125     1.0000 0.27563  0.94667  0.08307  Biso   1.000  H
  H126     1.0000 0.05333  0.32897  0.08307  Biso   1.000  H
  N37      1.0000 0.72320  0.86110  0.61940  Biso   1.000  N
  N38      1.0000 0.13890  0.86210  0.61940  Biso   1.000  N
  N39      1.0000 0.13790  0.27680  0.61940  Biso   1.000  N
  N40      1.0000 0.38987  0.19443  0.95273  Biso   1.000  N
  N41      1.0000 0.80557  0.19543  0.95273  Biso   1.000  N
  N42      1.0000 0.80457  0.61013  0.95273  Biso   1.000  N
  N43      1.0000 0.05653  0.52777  0.28607  Biso   1.000  N
  N44      1.0000 0.47223  0.52877  0.28607  Biso   1.000  N
  N45      1.0000 0.47123  0.94347  0.28607  Biso   1.000  N
  N46      1.0000 0.27680  0.13890  0.38060  Biso   1.000  N
  N47      1.0000 0.86110  0.13790  0.38060  Biso   1.000  N
  N48      1.0000 0.86210  0.72320  0.38060  Biso   1.000  N
  N49      1.0000 0.94347  0.47223  0.71393  Biso   1.000  N
  N50      1.0000 0.52777  0.47123  0.71393  Biso   1.000  N
  N51      1.0000 0.52877  0.05653  0.71393  Biso   1.000  N
  N52      1.0000 0.61013  0.80557  0.04727  Biso   1.000  N
  N53      1.0000 0.19443  0.80457  0.04727  Biso   1.000  N
  N54      1.0000 0.19543  0.38987  0.04727  Biso   1.000  N
  N55      1.0000 0.90740  0.01240  0.72030  Biso   1.000  N
  N56      1.0000 0.98760  0.89500  0.72030  Biso   1.000  N
  N57      1.0000 0.10500  0.09260  0.72030  Biso   1.000  N
  N58      1.0000 0.57407  0.34573  0.05363  Biso   1.000  N
  N59      1.0000 0.65427  0.22833  0.05363  Biso   1.000  N
  N60      1.0000 0.77167  0.42593  0.05363  Biso   1.000  N
  N61      1.0000 0.24073  0.67907  0.38697  Biso   1.000  N
  N62      1.0000 0.32093  0.56167  0.38697  Biso   1.000  N
  N63      1.0000 0.43833  0.75927  0.38697  Biso   1.000  N
  N64      1.0000 0.09260  0.98760  0.27970  Biso   1.000  N
  N65      1.0000 0.01240  0.10500  0.27970  Biso   1.000  N
  N66      1.0000 0.89500  0.90740  0.27970  Biso   1.000  N
  N67      1.0000 0.75927  0.32093  0.61303  Biso   1.000  N
  N68      1.0000 0.67907  0.43833  0.61303  Biso   1.000  N
  N69      1.0000 0.56167  0.24073  0.61303  Biso   1.000  N
  N70      1.0000 0.42593  0.65427  0.94637  Biso   1.000  N
  N71      1.0000 0.34573  0.77167  0.94637  Biso   1.000  N
  N72      1.0000 0.22833  0.57407  0.94637  Biso   1.000  N
  C235     1.0000 0.86390  0.96630  0.74990  Biso   1.000  C
  C236     1.0000 0.03370  0.89760  0.74990  Biso   1.000  C
  C237     1.0000 0.10240  0.13610  0.74990  Biso   1.000  C
  C238     1.0000 0.53057  0.29963  0.08323  Biso   1.000  C
  C239     1.0000 0.70037  0.23093  0.08323  Biso   1.000  C
  C240     1.0000 0.76907  0.46943  0.08323  Biso   1.000  C
  C241     1.0000 0.19723  0.63297  0.41657  Biso   1.000  C
  C242     1.0000 0.36703  0.56427  0.41657  Biso   1.000  C
  C243     1.0000 0.43573  0.80277  0.41657  Biso   1.000  C
  C244     1.0000 0.13610  0.03370  0.25010  Biso   1.000  C
  C245     1.0000 0.96630  0.10240  0.25010  Biso   1.000  C
  C246     1.0000 0.89760  0.86390  0.25010  Biso   1.000  C
  C247     1.0000 0.80277  0.36703  0.58343  Biso   1.000  C
  C248     1.0000 0.63297  0.43573  0.58343  Biso   1.000  C
  C249     1.0000 0.56427  0.19723  0.58343  Biso   1.000  C
  C250     1.0000 0.46943  0.70037  0.91677  Biso   1.000  C
  C251     1.0000 0.29963  0.76907  0.91677  Biso   1.000  C
  C252     1.0000 0.23093  0.53057  0.91677  Biso   1.000  C
  C253     1.0000 0.86950  0.99470  0.68680  Biso   1.000  C
  C254     1.0000 0.00530  0.87480  0.68680  Biso   1.000  C
  C255     1.0000 0.12520  0.13050  0.68680  Biso   1.000  C
  C256     1.0000 0.53617  0.32803  0.02013  Biso   1.000  C
  C257     1.0000 0.67197  0.20813  0.02013  Biso   1.000  C
  C258     1.0000 0.79187  0.46383  0.02013  Biso   1.000  C
  C259     1.0000 0.20283  0.66137  0.35347  Biso   1.000  C
  C260     1.0000 0.33863  0.54147  0.35347  Biso   1.000  C
  C261     1.0000 0.45853  0.79717  0.35347  Biso   1.000  C
  C262     1.0000 0.13050  0.00530  0.31320  Biso   1.000  C
  C263     1.0000 0.99470  0.12520  0.31320  Biso   1.000  C
  C264     1.0000 0.87480  0.86950  0.31320  Biso   1.000  C
  C265     1.0000 0.79717  0.33863  0.64653  Biso   1.000  C
  C266     1.0000 0.66137  0.45853  0.64653  Biso   1.000  C
  C267     1.0000 0.54147  0.20283  0.64653  Biso   1.000  C
  C268     1.0000 0.46383  0.67197  0.97987  Biso   1.000  C
  C269     1.0000 0.32803  0.79187  0.97987  Biso   1.000  C
  C270     1.0000 0.20813  0.53617  0.97987  Biso   1.000  C
  C271     1.0000 0.78990  0.93240  0.68310  Biso   1.000  C
  C272     1.0000 0.06760  0.85750  0.68310  Biso   1.000  C
  C273     1.0000 0.14250  0.21010  0.68310  Biso   1.000  C
  C274     1.0000 0.45657  0.26573  0.01643  Biso   1.000  C
  C275     1.0000 0.73427  0.19083  0.01643  Biso   1.000  C
  C276     1.0000 0.80917  0.54343  0.01643  Biso   1.000  C
  C277     1.0000 0.12323  0.59907  0.34977  Biso   1.000  C
  C278     1.0000 0.40093  0.52417  0.34977  Biso   1.000  C
  C279     1.0000 0.47583  0.87677  0.34977  Biso   1.000  C
  C280     1.0000 0.21010  0.06760  0.31690  Biso   1.000  C
  C281     1.0000 0.93240  0.14250  0.31690  Biso   1.000  C
  C282     1.0000 0.85750  0.78990  0.31690  Biso   1.000  C
  C283     1.0000 0.87677  0.40093  0.65023  Biso   1.000  C
  C284     1.0000 0.59907  0.47583  0.65023  Biso   1.000  C
  C285     1.0000 0.52417  0.12323  0.65023  Biso   1.000  C
  C286     1.0000 0.54343  0.73427  0.98357  Biso   1.000  C
  C287     1.0000 0.26573  0.80917  0.98357  Biso   1.000  C
  C288     1.0000 0.19083  0.45657  0.98357  Biso   1.000  C
  H127     1.0000 0.89240  0.98010  0.77380  Biso   1.000  H
  H128     1.0000 0.01990  0.91230  0.77380  Biso   1.000  H
  H129     1.0000 0.08770  0.10760  0.77380  Biso   1.000  H
  H130     1.0000 0.55907  0.31343  0.10713  Biso   1.000  H
  H131     1.0000 0.68657  0.24563  0.10713  Biso   1.000  H
  H132     1.0000 0.75437  0.44093  0.10713  Biso   1.000  H
  H133     1.0000 0.22573  0.64677  0.44047  Biso   1.000  H
  H134     1.0000 0.35323  0.57897  0.44047  Biso   1.000  H
  H135     1.0000 0.42103  0.77427  0.44047  Biso   1.000  H
  H136     1.0000 0.10760  0.01990  0.22620  Biso   1.000  H
  H137     1.0000 0.98010  0.08770  0.22620  Biso   1.000  H
  H138     1.0000 0.91230  0.89240  0.22620  Biso   1.000  H
  H139     1.0000 0.77427  0.35323  0.55953  Biso   1.000  H
  H140     1.0000 0.64677  0.42103  0.55953  Biso   1.000  H
  H141     1.0000 0.57897  0.22573  0.55953  Biso   1.000  H
  H142     1.0000 0.44093  0.68657  0.89287  Biso   1.000  H
  H143     1.0000 0.31343  0.75437  0.89287  Biso   1.000  H
  H144     1.0000 0.24563  0.55907  0.89287  Biso   1.000  H
  H145     1.0000 0.97360  0.87220  0.66490  Biso   1.000  H
  H146     1.0000 0.12780  0.10140  0.66490  Biso   1.000  H
  H147     1.0000 0.89860  0.02640  0.66490  Biso   1.000  H
  H148     1.0000 0.64027  0.20553  0.99823  Biso   1.000  H
  H149     1.0000 0.79447  0.43473  0.99823  Biso   1.000  H
  H150     1.0000 0.56527  0.35973  0.99823  Biso   1.000  H
  H151     1.0000 0.30693  0.53887  0.33157  Biso   1.000  H
  H152     1.0000 0.46113  0.76807  0.33157  Biso   1.000  H
  H153     1.0000 0.23193  0.69307  0.33157  Biso   1.000  H
  H154     1.0000 0.02640  0.12780  0.33510  Biso   1.000  H
  H155     1.0000 0.87220  0.89860  0.33510  Biso   1.000  H
  H156     1.0000 0.10140  0.97360  0.33510  Biso   1.000  H
  H157     1.0000 0.69307  0.46113  0.66843  Biso   1.000  H
  H158     1.0000 0.53887  0.23193  0.66843  Biso   1.000  H
  H159     1.0000 0.76807  0.30693  0.66843  Biso   1.000  H
  H160     1.0000 0.35973  0.79447  0.00177  Biso   1.000  H
  H161     1.0000 0.20553  0.56527  0.00177  Biso   1.000  H
  H162     1.0000 0.43473  0.64027  0.00177  Biso   1.000  H
  N73      1.0000 0.78510  0.90280  0.75080  Biso   1.000  N
  N74      1.0000 0.09720  0.88230  0.75080  Biso   1.000  N
  N75      1.0000 0.11770  0.21490  0.75080  Biso   1.000  N
  N76      1.0000 0.45177  0.23613  0.08413  Biso   1.000  N
  N77      1.0000 0.76387  0.21563  0.08413  Biso   1.000  N
  N78      1.0000 0.78437  0.54823  0.08413  Biso   1.000  N
  N79      1.0000 0.11843  0.56947  0.41747  Biso   1.000  N
  N80      1.0000 0.43053  0.54897  0.41747  Biso   1.000  N
  N81      1.0000 0.45103  0.88157  0.41747  Biso   1.000  N
  N82      1.0000 0.21490  0.09720  0.24920  Biso   1.000  N
  N83      1.0000 0.90280  0.11770  0.24920  Biso   1.000  N
  N84      1.0000 0.88230  0.78510  0.24920  Biso   1.000  N
  N85      1.0000 0.88157  0.43053  0.58253  Biso   1.000  N
  N86      1.0000 0.56947  0.45103  0.58253  Biso   1.000  N
  N87      1.0000 0.54897  0.11843  0.58253  Biso   1.000  N
  N88      1.0000 0.54823  0.76387  0.91587  Biso   1.000  N
  N89      1.0000 0.23613  0.78437  0.91587  Biso   1.000  N
  N90      1.0000 0.21563  0.45177  0.91587  Biso   1.000  N
  C289     1.0000 0.75340  0.89060  0.71610  Biso   1.000  C
  C290     1.0000 0.10940  0.86280  0.71610  Biso   1.000  C
  C291     1.0000 0.13720  0.24660  0.71610  Biso   1.000  C
  C292     1.0000 0.42007  0.22393  0.04943  Biso   1.000  C
  C293     1.0000 0.77607  0.19613  0.04943  Biso   1.000  C
  C294     1.0000 0.80387  0.57993  0.04943  Biso   1.000  C
  C295     1.0000 0.08673  0.55727  0.38277  Biso   1.000  C
  C296     1.0000 0.44273  0.52947  0.38277  Biso   1.000  C
  C297     1.0000 0.47053  0.91327  0.38277  Biso   1.000  C
  C298     1.0000 0.24660  0.10940  0.28390  Biso   1.000  C
  C299     1.0000 0.89060  0.13720  0.28390  Biso   1.000  C
  C300     1.0000 0.86280  0.75340  0.28390  Biso   1.000  C
  C301     1.0000 0.91327  0.44273  0.61723  Biso   1.000  C
  C302     1.0000 0.55727  0.47053  0.61723  Biso   1.000  C
  C303     1.0000 0.52947  0.08673  0.61723  Biso   1.000  C
  C304     1.0000 0.57993  0.77607  0.95057  Biso   1.000  C
  C305     1.0000 0.22393  0.80387  0.95057  Biso   1.000  C
  C306     1.0000 0.19613  0.42007  0.95057  Biso   1.000  C
  H163     1.0000 0.67820  0.80670  0.65210  Biso   1.000  H
  H164     1.0000 0.19330  0.87150  0.65210  Biso   1.000  H
  H165     1.0000 0.12850  0.32180  0.65210  Biso   1.000  H
  H166     1.0000 0.34487  0.14003  0.98543  Biso   1.000  H
  H167     1.0000 0.85997  0.20483  0.98543  Biso   1.000  H
  H168     1.0000 0.79517  0.65513  0.98543  Biso   1.000  H
  H169     1.0000 0.01153  0.47337  0.31877  Biso   1.000  H
  H170     1.0000 0.52663  0.53817  0.31877  Biso   1.000  H
  H171     1.0000 0.46183  0.98847  0.31877  Biso   1.000  H
  H172     1.0000 0.32180  0.19330  0.34790  Biso   1.000  H
  H173     1.0000 0.80670  0.12850  0.34790  Biso   1.000  H
  H174     1.0000 0.87150  0.67820  0.34790  Biso   1.000  H
  H175     1.0000 0.98847  0.52663  0.68123  Biso   1.000  H
  H176     1.0000 0.47337  0.46183  0.68123  Biso   1.000  H
  H177     1.0000 0.53817  0.01153  0.68123  Biso   1.000  H
  H178     1.0000 0.65513  0.85997  0.01457  Biso   1.000  H
  H179     1.0000 0.14003  0.79517  0.01457  Biso   1.000  H
  H180     1.0000 0.20483  0.34487  0.01457  Biso   1.000  H
  C307     1.0000 0.73220  0.82650  0.64960  Biso   1.000  C
  C308     1.0000 0.17350  0.90570  0.64960  Biso   1.000  C
  C309     1.0000 0.09430  0.26780  0.64960  Biso   1.000  C
  C310     1.0000 0.39887  0.15983  0.98293  Biso   1.000  C
  C311     1.0000 0.84017  0.23903  0.98293  Biso   1.000  C
  C312     1.0000 0.76097  0.60113  0.98293  Biso   1.000  C
  C313     1.0000 0.06553  0.49317  0.31627  Biso   1.000  C
  C314     1.0000 0.50683  0.57237  0.31627  Biso   1.000  C
  C315     1.0000 0.42763  0.93447  0.31627  Biso   1.000  C
  C316     1.0000 0.26780  0.17350  0.35040  Biso   1.000  C
  C317     1.0000 0.82650  0.09430  0.35040  Biso   1.000  C
  C318     1.0000 0.90570  0.73220  0.35040  Biso   1.000  C
  C319     1.0000 0.93447  0.50683  0.68373  Biso   1.000  C
  C320     1.0000 0.49317  0.42763  0.68373  Biso   1.000  C
  C321     1.0000 0.57237  0.06553  0.68373  Biso   1.000  C
  C322     1.0000 0.60113  0.84017  0.01707  Biso   1.000  C
  C323     1.0000 0.15983  0.76097  0.01707  Biso   1.000  C
  C324     1.0000 0.23903  0.39887  0.01707  Biso   1.000  C
  C325     1.0000 0.75330  0.91910  0.64410  Biso   1.000  C
  C326     1.0000 0.08090  0.83420  0.64410  Biso   1.000  C
  C327     1.0000 0.16580  0.24670  0.64410  Biso   1.000  C
  C328     1.0000 0.41997  0.25243  0.97743  Biso   1.000  C
  C329     1.0000 0.74757  0.16753  0.97743  Biso   1.000  C
  C330     1.0000 0.83247  0.58003  0.97743  Biso   1.000  C
  C331     1.0000 0.08663  0.58577  0.31077  Biso   1.000  C
  C332     1.0000 0.41423  0.50087  0.31077  Biso   1.000  C
  C333     1.0000 0.49913  0.91337  0.31077  Biso   1.000  C
  C334     1.0000 0.24670  0.08090  0.35590  Biso   1.000  C
  C335     1.0000 0.91910  0.16580  0.35590  Biso   1.000  C
  C336     1.0000 0.83420  0.75330  0.35590  Biso   1.000  C
  C337     1.0000 0.91337  0.41423  0.68923  Biso   1.000  C
  C338     1.0000 0.58577  0.49913  0.68923  Biso   1.000  C
  C339     1.0000 0.50087  0.08663  0.68923  Biso   1.000  C
  C340     1.0000 0.58003  0.74757  0.02257  Biso   1.000  C
  C341     1.0000 0.25243  0.83247  0.02257  Biso   1.000  C
  C342     1.0000 0.16753  0.41997  0.02257  Biso   1.000  C
  O91      1.0000 0.79190  0.98910  0.62250  Biso   1.000  O
  O92      1.0000 0.01090  0.80280  0.62250  Biso   1.000  O
  O93      1.0000 0.19720  0.20810  0.62250  Biso   1.000  O
  O94      1.0000 0.45857  0.32243  0.95583  Biso   1.000  O
  O95      1.0000 0.67757  0.13613  0.95583  Biso   1.000  O
  O96      1.0000 0.86387  0.54143  0.95583  Biso   1.000  O
  O97      1.0000 0.12523  0.65577  0.28917  Biso   1.000  O
  O98      1.0000 0.34423  0.46947  0.28917  Biso   1.000  O
  O99      1.0000 0.53053  0.87477  0.28917  Biso   1.000  O
  O100     1.0000 0.20810  0.01090  0.37750  Biso   1.000  O
  O101     1.0000 0.98910  0.19720  0.37750  Biso   1.000  O
  O102     1.0000 0.80280  0.79190  0.37750  Biso   1.000  O
  O103     1.0000 0.87477  0.34423  0.71083  Biso   1.000  O
  O104     1.0000 0.65577  0.53053  0.71083  Biso   1.000  O
  O105     1.0000 0.46947  0.12523  0.71083  Biso   1.000  O
  O106     1.0000 0.54143  0.67757  0.04417  Biso   1.000  O
  O107     1.0000 0.32243  0.86387  0.04417  Biso   1.000  O
  O108     1.0000 0.13613  0.45857  0.04417  Biso   1.000  O
  H181     1.0000 0.67770  0.87160  0.65200  Biso   1.000  H
  H182     1.0000 0.12840  0.80610  0.65200  Biso   1.000  H
  H183     1.0000 0.19390  0.32230  0.65200  Biso   1.000  H
  H184     1.0000 0.34437  0.20493  0.98533  Biso   1.000  H
  H185     1.0000 0.79507  0.13943  0.98533  Biso   1.000  H
  H186     1.0000 0.86057  0.65563  0.98533  Biso   1.000  H
  H187     1.0000 0.01103  0.53827  0.31867  Biso   1.000  H
  H188     1.0000 0.46173  0.47277  0.31867  Biso   1.000  H
  H189     1.0000 0.52723  0.98897  0.31867  Biso   1.000  H
  H190     1.0000 0.32230  0.12840  0.34800  Biso   1.000  H
  H191     1.0000 0.87160  0.19390  0.34800  Biso   1.000  H
  H192     1.0000 0.80610  0.67770  0.34800  Biso   1.000  H
  H193     1.0000 0.98897  0.46173  0.68133  Biso   1.000  H
  H194     1.0000 0.53827  0.52723  0.68133  Biso   1.000  H
  H195     1.0000 0.47277  0.01103  0.68133  Biso   1.000  H
  H196     1.0000 0.65563  0.79507  0.01467  Biso   1.000  H
  H197     1.0000 0.20493  0.86057  0.01467  Biso   1.000  H
  H198     1.0000 0.13943  0.34437  0.01467  Biso   1.000  H
  C343     1.0000 0.73370  0.90760  0.64890  Biso   1.000  C
  C344     1.0000 0.09240  0.82610  0.64890  Biso   1.000  C
  C345     1.0000 0.17390  0.26630  0.64890  Biso   1.000  C
  C346     1.0000 0.40037  0.24093  0.98223  Biso   1.000  C
  C347     1.0000 0.75907  0.15943  0.98223  Biso   1.000  C
  C348     1.0000 0.84057  0.59963  0.98223  Biso   1.000  C
  C349     1.0000 0.06703  0.57427  0.31557  Biso   1.000  C
  C350     1.0000 0.42573  0.49277  0.31557  Biso   1.000  C
  C351     1.0000 0.50723  0.93297  0.31557  Biso   1.000  C
  C352     1.0000 0.26630  0.09240  0.35110  Biso   1.000  C
  C353     1.0000 0.90760  0.17390  0.35110  Biso   1.000  C
  C354     1.0000 0.82610  0.73370  0.35110  Biso   1.000  C
  C355     1.0000 0.93297  0.42573  0.68443  Biso   1.000  C
  C356     1.0000 0.57427  0.50723  0.68443  Biso   1.000  C
  C357     1.0000 0.49277  0.06703  0.68443  Biso   1.000  C
  C358     1.0000 0.59963  0.75907  0.01777  Biso   1.000  C
  C359     1.0000 0.24093  0.84057  0.01777  Biso   1.000  C
  C360     1.0000 0.15943  0.40037  0.01777  Biso   1.000  C
  O109     1.0000 0.69000  0.94900  0.65430  Biso   1.000  O
  O110     1.0000 0.05100  0.74100  0.65430  Biso   1.000  O
  O111     1.0000 0.25900  0.31000  0.65430  Biso   1.000  O
  O112     1.0000 0.35667  0.28233  0.98763  Biso   1.000  O
  O113     1.0000 0.71767  0.07433  0.98763  Biso   1.000  O
  O114     1.0000 0.92567  0.64333  0.98763  Biso   1.000  O
  O115     1.0000 0.02333  0.61567  0.32097  Biso   1.000  O
  O116     1.0000 0.38433  0.40767  0.32097  Biso   1.000  O
  O117     1.0000 0.59233  0.97667  0.32097  Biso   1.000  O
  O118     1.0000 0.31000  0.05100  0.34570  Biso   1.000  O
  O119     1.0000 0.94900  0.25900  0.34570  Biso   1.000  O
  O120     1.0000 0.74100  0.69000  0.34570  Biso   1.000  O
  O121     1.0000 0.97667  0.38433  0.67903  Biso   1.000  O
  O122     1.0000 0.61567  0.59233  0.67903  Biso   1.000  O
  O123     1.0000 0.40767  0.02333  0.67903  Biso   1.000  O
  O124     1.0000 0.64333  0.71767  0.01237  Biso   1.000  O
  O125     1.0000 0.28233  0.92567  0.01237  Biso   1.000  O
  O126     1.0000 0.07433  0.35667  0.01237  Biso   1.000  O
  O127     1.0000 0.68700  0.74200  0.65720  Biso   1.000  O
  O128     1.0000 0.25800  0.94500  0.65720  Biso   1.000  O
  O129     1.0000 0.05500  0.31300  0.65720  Biso   1.000  O
  O130     1.0000 0.35367  0.07533  0.99053  Biso   1.000  O
  O131     1.0000 0.92467  0.27833  0.99053  Biso   1.000  O
  O132     1.0000 0.72167  0.64633  0.99053  Biso   1.000  O
  O133     1.0000 0.02033  0.40867  0.32387  Biso   1.000  O
  O134     1.0000 0.59133  0.61167  0.32387  Biso   1.000  O
  O135     1.0000 0.38833  0.97967  0.32387  Biso   1.000  O
  O136     1.0000 0.31300  0.25800  0.34280  Biso   1.000  O
  O137     1.0000 0.74200  0.05500  0.34280  Biso   1.000  O
  O138     1.0000 0.94500  0.68700  0.34280  Biso   1.000  O
  O139     1.0000 0.97967  0.59133  0.67613  Biso   1.000  O
  O140     1.0000 0.40867  0.38833  0.67613  Biso   1.000  O
  O141     1.0000 0.61167  0.02033  0.67613  Biso   1.000  O
  O142     1.0000 0.64633  0.92467  0.00947  Biso   1.000  O
  O143     1.0000 0.07533  0.72167  0.00947  Biso   1.000  O
  O144     1.0000 0.27833  0.35367  0.00947  Biso   1.000  O
  H199     1.0000 0.76070  0.91440  0.61810  Biso   1.000  H
  H200     1.0000 0.08560  0.84630  0.61810  Biso   1.000  H
  H201     1.0000 0.15370  0.23930  0.61810  Biso   1.000  H
  H202     1.0000 0.42737  0.24773  0.95143  Biso   1.000  H
  H203     1.0000 0.75227  0.17963  0.95143  Biso   1.000  H
  H204     1.0000 0.82037  0.57263  0.95143  Biso   1.000  H
  H205     1.0000 0.09403  0.58107  0.28477  Biso   1.000  H
  H206     1.0000 0.41893  0.51297  0.28477  Biso   1.000  H
  H207     1.0000 0.48703  0.90597  0.28477  Biso   1.000  H
  H208     1.0000 0.23930  0.08560  0.38190  Biso   1.000  H
  H209     1.0000 0.91440  0.15370  0.38190  Biso   1.000  H
  H210     1.0000 0.84630  0.76070  0.38190  Biso   1.000  H
  H211     1.0000 0.90597  0.41893  0.71523  Biso   1.000  H
  H212     1.0000 0.58107  0.48703  0.71523  Biso   1.000  H
  H213     1.0000 0.51297  0.09403  0.71523  Biso   1.000  H
  H214     1.0000 0.57263  0.75227  0.04857  Biso   1.000  H
  H215     1.0000 0.24773  0.82037  0.04857  Biso   1.000  H
  H216     1.0000 0.17963  0.42737  0.04857  Biso   1.000  H
  H217     1.0000 0.75770  0.84140  0.61890  Biso   1.000  H
  H218     1.0000 0.15860  0.91630  0.61890  Biso   1.000  H
  H219     1.0000 0.08370  0.24230  0.61890  Biso   1.000  H
  H220     1.0000 0.42437  0.17473  0.95223  Biso   1.000  H
  H221     1.0000 0.82527  0.24963  0.95223  Biso   1.000  H
  H222     1.0000 0.75037  0.57563  0.95223  Biso   1.000  H
  H223     1.0000 0.09103  0.50807  0.28557  Biso   1.000  H
  H224     1.0000 0.49193  0.58297  0.28557  Biso   1.000  H
  H225     1.0000 0.41703  0.90897  0.28557  Biso   1.000  H
  H226     1.0000 0.24230  0.15860  0.38110  Biso   1.000  H
  H227     1.0000 0.84140  0.08370  0.38110  Biso   1.000  H
  H228     1.0000 0.91630  0.75770  0.38110  Biso   1.000  H
  H229     1.0000 0.90897  0.49193  0.71443  Biso   1.000  H
  H230     1.0000 0.50807  0.41703  0.71443  Biso   1.000  H
  H231     1.0000 0.58297  0.09103  0.71443  Biso   1.000  H
  H232     1.0000 0.57563  0.82527  0.04777  Biso   1.000  H
  H233     1.0000 0.17473  0.75037  0.04777  Biso   1.000  H
  H234     1.0000 0.24963  0.42437  0.04777  Biso   1.000  H
  C361     1.0000 0.64440  0.82190  0.60040  Biso   1.000  C
  C362     1.0000 0.17810  0.82250  0.60040  Biso   1.000  C
  C363     1.0000 0.17750  0.35560  0.60040  Biso   1.000  C
  C364     1.0000 0.31107  0.15523  0.93373  Biso   1.000  C
  C365     1.0000 0.84477  0.15583  0.93373  Biso   1.000  C
  C366     1.0000 0.84417  0.68893  0.93373  Biso   1.000  C
  C367     1.0000 0.97773  0.48857  0.26707  Biso   1.000  C
  C368     1.0000 0.51143  0.48917  0.26707  Biso   1.000  C
  C369     1.0000 0.51083  0.02227  0.26707  Biso   1.000  C
  C370     1.0000 0.35560  0.17810  0.39960  Biso   1.000  C
  C371     1.0000 0.82190  0.17750  0.39960  Biso   1.000  C
  C372     1.0000 0.82250  0.64440  0.39960  Biso   1.000  C
  C373     1.0000 0.02227  0.51143  0.73293  Biso   1.000  C
  C374     1.0000 0.48857  0.51083  0.73293  Biso   1.000  C
  C375     1.0000 0.48917  0.97773  0.73293  Biso   1.000  C
  C376     1.0000 0.68893  0.84477  0.06627  Biso   1.000  C
  C377     1.0000 0.15523  0.84417  0.06627  Biso   1.000  C
  C378     1.0000 0.15583  0.31107  0.06627  Biso   1.000  C
  C379     1.0000 0.62090  0.74570  0.58320  Biso   1.000  C
  C380     1.0000 0.25430  0.87520  0.58320  Biso   1.000  C
  C381     1.0000 0.12480  0.37910  0.58320  Biso   1.000  C
  C382     1.0000 0.28757  0.07903  0.91653  Biso   1.000  C
  C383     1.0000 0.92097  0.20853  0.91653  Biso   1.000  C
  C384     1.0000 0.79147  0.71243  0.91653  Biso   1.000  C
  C385     1.0000 0.95423  0.41237  0.24987  Biso   1.000  C
  C386     1.0000 0.58763  0.54187  0.24987  Biso   1.000  C
  C387     1.0000 0.45813  0.04577  0.24987  Biso   1.000  C
  C388     1.0000 0.37910  0.25430  0.41680  Biso   1.000  C
  C389     1.0000 0.74570  0.12480  0.41680  Biso   1.000  C
  C390     1.0000 0.87520  0.62090  0.41680  Biso   1.000  C
  C391     1.0000 0.04577  0.58763  0.75013  Biso   1.000  C
  C392     1.0000 0.41237  0.45813  0.75013  Biso   1.000  C
  C393     1.0000 0.54187  0.95423  0.75013  Biso   1.000  C
  C394     1.0000 0.71243  0.92097  0.08347  Biso   1.000  C
  C395     1.0000 0.07903  0.79147  0.08347  Biso   1.000  C
  C396     1.0000 0.20853  0.28757  0.08347  Biso   1.000  C
  H235     1.0000 0.63540  0.70850  0.59500  Biso   1.000  H
  H236     1.0000 0.29150  0.92690  0.59500  Biso   1.000  H
  H237     1.0000 0.07310  0.36460  0.59500  Biso   1.000  H
  H238     1.0000 0.30207  0.04183  0.92833  Biso   1.000  H
  H239     1.0000 0.95817  0.26023  0.92833  Biso   1.000  H
  H240     1.0000 0.73977  0.69793  0.92833  Biso   1.000  H
  H241     1.0000 0.96873  0.37517  0.26167  Biso   1.000  H
  H242     1.0000 0.62483  0.59357  0.26167  Biso   1.000  H
  H243     1.0000 0.40643  0.03127  0.26167  Biso   1.000  H
  H244     1.0000 0.36460  0.29150  0.40500  Biso   1.000  H
  H245     1.0000 0.70850  0.07310  0.40500  Biso   1.000  H
  H246     1.0000 0.92690  0.63540  0.40500  Biso   1.000  H
  H247     1.0000 0.03127  0.62483  0.73833  Biso   1.000  H
  H248     1.0000 0.37517  0.40643  0.73833  Biso   1.000  H
  H249     1.0000 0.59357  0.96873  0.73833  Biso   1.000  H
  H250     1.0000 0.69793  0.95817  0.07167  Biso   1.000  H
  H251     1.0000 0.04183  0.73977  0.07167  Biso   1.000  H
  H252     1.0000 0.26023  0.30207  0.07167  Biso   1.000  H
  C397     1.0000 0.57570  0.72260  0.54840  Biso   1.000  C
  C398     1.0000 0.27740  0.85310  0.54840  Biso   1.000  C
  C399     1.0000 0.14690  0.42430  0.54840  Biso   1.000  C
  C400     1.0000 0.24237  0.05593  0.88173  Biso   1.000  C
  C401     1.0000 0.94407  0.18643  0.88173  Biso   1.000  C
  C402     1.0000 0.81357  0.75763  0.88173  Biso   1.000  C
  C403     1.0000 0.90903  0.38927  0.21507  Biso   1.000  C
  C404     1.0000 0.61073  0.51977  0.21507  Biso   1.000  C
  C405     1.0000 0.48023  0.09097  0.21507  Biso   1.000  C
  C406     1.0000 0.42430  0.27740  0.45160  Biso   1.000  C
  C407     1.0000 0.72260  0.14690  0.45160  Biso   1.000  C
  C408     1.0000 0.85310  0.57570  0.45160  Biso   1.000  C
  C409     1.0000 0.09097  0.61073  0.78493  Biso   1.000  C
  C410     1.0000 0.38927  0.48023  0.78493  Biso   1.000  C
  C411     1.0000 0.51977  0.90903  0.78493  Biso   1.000  C
  C412     1.0000 0.75763  0.94407  0.11827  Biso   1.000  C
  C413     1.0000 0.05593  0.81357  0.11827  Biso   1.000  C
  C414     1.0000 0.18643  0.24237  0.11827  Biso   1.000  C
  C415     1.0000 0.55520  0.77760  0.53200  Biso   1.000  C
  C416     1.0000 0.22240  0.77760  0.53200  Biso   1.000  C
  C417     1.0000 0.22240  0.44480  0.53200  Biso   1.000  C
  C418     1.0000 0.22187  0.11093  0.86533  Biso   1.000  C
  C419     1.0000 0.88907  0.11093  0.86533  Biso   1.000  C
  C420     1.0000 0.88907  0.77813  0.86533  Biso   1.000  C
  C421     1.0000 0.88853  0.44427  0.19867  Biso   1.000  C
  C422     1.0000 0.55573  0.44427  0.19867  Biso   1.000  C
  C423     1.0000 0.55573  0.11147  0.19867  Biso   1.000  C
  C424     1.0000 0.44480  0.22240  0.46800  Biso   1.000  C
  C425     1.0000 0.77760  0.22240  0.46800  Biso   1.000  C
  C426     1.0000 0.77760  0.55520  0.46800  Biso   1.000  C
  C427     1.0000 0.11147  0.55573  0.80133  Biso   1.000  C
  C428     1.0000 0.44427  0.55573  0.80133  Biso   1.000  C
  C429     1.0000 0.44427  0.88853  0.80133  Biso   1.000  C
  C430     1.0000 0.77813  0.88907  0.13467  Biso   1.000  C
  C431     1.0000 0.11093  0.88907  0.13467  Biso   1.000  C
  C432     1.0000 0.11093  0.22187  0.13467  Biso   1.000  C
  H253     1.0000 0.52610  0.76300  0.50830  Biso   1.000  H
  H254     1.0000 0.23700  0.76310  0.50830  Biso   1.000  H
  H255     1.0000 0.23690  0.47390  0.50830  Biso   1.000  H
  H256     1.0000 0.19277  0.09633  0.84163  Biso   1.000  H
  H257     1.0000 0.90367  0.09643  0.84163  Biso   1.000  H
  H258     1.0000 0.90357  0.80723  0.84163  Biso   1.000  H
  H259     1.0000 0.85943  0.42967  0.17497  Biso   1.000  H
  H260     1.0000 0.57033  0.42977  0.17497  Biso   1.000  H
  H261     1.0000 0.57023  0.14057  0.17497  Biso   1.000  H
  H262     1.0000 0.47390  0.23700  0.49170  Biso   1.000  H
  H263     1.0000 0.76300  0.23690  0.49170  Biso   1.000  H
  H264     1.0000 0.76310  0.52610  0.49170  Biso   1.000  H
  H265     1.0000 0.14057  0.57033  0.82503  Biso   1.000  H
  H266     1.0000 0.42967  0.57023  0.82503  Biso   1.000  H
  H267     1.0000 0.42977  0.85943  0.82503  Biso   1.000  H
  H268     1.0000 0.80723  0.90367  0.15837  Biso   1.000  H
  H269     1.0000 0.09633  0.90357  0.15837  Biso   1.000  H
  H270     1.0000 0.09643  0.19277  0.15837  Biso   1.000  H
  C433     1.0000 0.57520  0.85300  0.54860  Biso   1.000  C
  C434     1.0000 0.14700  0.72220  0.54860  Biso   1.000  C
  C435     1.0000 0.27780  0.42480  0.54860  Biso   1.000  C
  C436     1.0000 0.24187  0.18633  0.88193  Biso   1.000  C
  C437     1.0000 0.81367  0.05553  0.88193  Biso   1.000  C
  C438     1.0000 0.94447  0.75813  0.88193  Biso   1.000  C
  C439     1.0000 0.90853  0.51967  0.21527  Biso   1.000  C
  C440     1.0000 0.48033  0.38887  0.21527  Biso   1.000  C
  C441     1.0000 0.61113  0.09147  0.21527  Biso   1.000  C
  C442     1.0000 0.42480  0.14700  0.45140  Biso   1.000  C
  C443     1.0000 0.85300  0.27780  0.45140  Biso   1.000  C
  C444     1.0000 0.72220  0.57520  0.45140  Biso   1.000  C
  C445     1.0000 0.09147  0.48033  0.78473  Biso   1.000  C
  C446     1.0000 0.51967  0.61113  0.78473  Biso   1.000  C
  C447     1.0000 0.38887  0.90853  0.78473  Biso   1.000  C
  C448     1.0000 0.75813  0.81367  0.11807  Biso   1.000  C
  C449     1.0000 0.18633  0.94447  0.11807  Biso   1.000  C
  C450     1.0000 0.05553  0.24187  0.11807  Biso   1.000  C
  C451     1.0000 0.62100  0.87440  0.58310  Biso   1.000  C
  C452     1.0000 0.12560  0.74660  0.58310  Biso   1.000  C
  C453     1.0000 0.25340  0.37900  0.58310  Biso   1.000  C
  C454     1.0000 0.28767  0.20773  0.91643  Biso   1.000  C
  C455     1.0000 0.79227  0.07993  0.91643  Biso   1.000  C
  C456     1.0000 0.92007  0.71233  0.91643  Biso   1.000  C
  C457     1.0000 0.95433  0.54107  0.24977  Biso   1.000  C
  C458     1.0000 0.45893  0.41327  0.24977  Biso   1.000  C
  C459     1.0000 0.58673  0.04567  0.24977  Biso   1.000  C
  C460     1.0000 0.37900  0.12560  0.41690  Biso   1.000  C
  C461     1.0000 0.87440  0.25340  0.41690  Biso   1.000  C
  C462     1.0000 0.74660  0.62100  0.41690  Biso   1.000  C
  C463     1.0000 0.04567  0.45893  0.75023  Biso   1.000  C
  C464     1.0000 0.54107  0.58673  0.75023  Biso   1.000  C
  C465     1.0000 0.41327  0.95433  0.75023  Biso   1.000  C
  C466     1.0000 0.71233  0.79227  0.08357  Biso   1.000  C
  C467     1.0000 0.20773  0.92007  0.08357  Biso   1.000  C
  C468     1.0000 0.07993  0.28767  0.08357  Biso   1.000  C
  N91      1.0000 0.69210  0.84620  0.63490  Biso   1.000  N
  N92      1.0000 0.15380  0.84590  0.63490  Biso   1.000  N
  N93      1.0000 0.15410  0.30790  0.63490  Biso   1.000  N
  N94      1.0000 0.35877  0.17953  0.96823  Biso   1.000  N
  N95      1.0000 0.82047  0.17923  0.96823  Biso   1.000  N
  N96      1.0000 0.82077  0.64123  0.96823  Biso   1.000  N
  N97      1.0000 0.02543  0.51287  0.30157  Biso   1.000  N
  N98      1.0000 0.48713  0.51257  0.30157  Biso   1.000  N
  N99      1.0000 0.48743  0.97457  0.30157  Biso   1.000  N
  N100     1.0000 0.30790  0.15380  0.36510  Biso   1.000  N
  N101     1.0000 0.84620  0.15410  0.36510  Biso   1.000  N
  N102     1.0000 0.84590  0.69210  0.36510  Biso   1.000  N
  N103     1.0000 0.97457  0.48713  0.69843  Biso   1.000  N
  N104     1.0000 0.51287  0.48743  0.69843  Biso   1.000  N
  N105     1.0000 0.51257  0.02543  0.69843  Biso   1.000  N
  N106     1.0000 0.64123  0.82047  0.03177  Biso   1.000  N
  N107     1.0000 0.17953  0.82077  0.03177  Biso   1.000  N
  N108     1.0000 0.17923  0.35877  0.03177  Biso   1.000  N
  H271     1.0000 0.63620  0.92630  0.59480  Biso   1.000  H
  H272     1.0000 0.07370  0.70990  0.59480  Biso   1.000  H
  H273     1.0000 0.29010  0.36380  0.59480  Biso   1.000  H
  H274     1.0000 0.30287  0.25963  0.92813  Biso   1.000  H
  H275     1.0000 0.74037  0.04323  0.92813  Biso   1.000  H
  H276     1.0000 0.95677  0.69713  0.92813  Biso   1.000  H
  H277     1.0000 0.96953  0.59297  0.26147  Biso   1.000  H
  H278     1.0000 0.40703  0.37657  0.26147  Biso   1.000  H
  H279     1.0000 0.62343  0.03047  0.26147  Biso   1.000  H
  H280     1.0000 0.36380  0.07370  0.40520  Biso   1.000  H
  H281     1.0000 0.92630  0.29010  0.40520  Biso   1.000  H
  H282     1.0000 0.70990  0.63620  0.40520  Biso   1.000  H
  H283     1.0000 0.03047  0.40703  0.73853  Biso   1.000  H
  H284     1.0000 0.59297  0.62343  0.73853  Biso   1.000  H
  H285     1.0000 0.37657  0.96953  0.73853  Biso   1.000  H
  H286     1.0000 0.69713  0.74037  0.07187  Biso   1.000  H
  H287     1.0000 0.25963  0.95677  0.07187  Biso   1.000  H
  H288     1.0000 0.04323  0.30287  0.07187  Biso   1.000  H
