data_image0
_cell_length_a       18.1118
_cell_length_b       18.1118
_cell_length_c       55.4016
_cell_angle_alpha    90
_cell_angle_beta     90
_cell_angle_gamma    120

_symmetry_space_group_name_H-M    "P 1"
_symmetry_int_tables_number       1

loop_
  _symmetry_equiv_pos_as_xyz
  'x, y, z'

loop_
  _atom_site_label
  _atom_site_occupancy
  _atom_site_fract_x
  _atom_site_fract_y
  _atom_site_fract_z
  _atom_site_thermal_displace_type
  _atom_site_B_iso_or_equiv
  _atom_site_type_symbol
  Cu1      1.0000 0.80699  0.61395  0.14808  Biso   1.000  Cu
  Cu2      1.0000 0.38605  0.19304  0.14808  Biso   1.000  Cu
  Cu3      1.0000 0.80696  0.19301  0.14808  Biso   1.000  Cu
  Cu4      1.0000 0.47366  0.94728  0.48141  Biso   1.000  Cu
  Cu5      1.0000 0.05272  0.52637  0.48141  Biso   1.000  Cu
  Cu6      1.0000 0.47363  0.52634  0.48141  Biso   1.000  Cu
  Cu7      1.0000 0.14032  0.28062  0.81475  Biso   1.000  Cu
  Cu8      1.0000 0.71938  0.85971  0.81475  Biso   1.000  Cu
  Cu9      1.0000 0.14029  0.85968  0.81475  Biso   1.000  Cu
  Cu10     1.0000 0.19301  0.38605  0.85192  Biso   1.000  Cu
  Cu11     1.0000 0.61395  0.80696  0.85192  Biso   1.000  Cu
  Cu12     1.0000 0.19304  0.80699  0.85192  Biso   1.000  Cu
  Cu13     1.0000 0.85968  0.71938  0.18525  Biso   1.000  Cu
  Cu14     1.0000 0.28062  0.14029  0.18525  Biso   1.000  Cu
  Cu15     1.0000 0.85971  0.14032  0.18525  Biso   1.000  Cu
  Cu16     1.0000 0.52634  0.05272  0.51859  Biso   1.000  Cu
  Cu17     1.0000 0.94728  0.47363  0.51859  Biso   1.000  Cu
  Cu18     1.0000 0.52637  0.47366  0.51859  Biso   1.000  Cu
  O1       1.0000 0.70335  0.55774  0.16753  Biso   1.000  O
  O2       1.0000 0.44226  0.14561  0.16753  Biso   1.000  O
  O3       1.0000 0.85439  0.29665  0.16753  Biso   1.000  O
  O4       1.0000 0.37002  0.89107  0.50086  Biso   1.000  O
  O5       1.0000 0.10893  0.47894  0.50086  Biso   1.000  O
  O6       1.0000 0.52106  0.62998  0.50086  Biso   1.000  O
  O7       1.0000 0.03668  0.22441  0.83420  Biso   1.000  O
  O8       1.0000 0.77559  0.81228  0.83420  Biso   1.000  O
  O9       1.0000 0.18772  0.96332  0.83420  Biso   1.000  O
  O10      1.0000 0.29665  0.44226  0.83247  Biso   1.000  O
  O11      1.0000 0.55774  0.85439  0.83247  Biso   1.000  O
  O12      1.0000 0.14561  0.70335  0.83247  Biso   1.000  O
  O13      1.0000 0.96332  0.77559  0.16580  Biso   1.000  O
  O14      1.0000 0.22441  0.18772  0.16580  Biso   1.000  O
  O15      1.0000 0.81228  0.03668  0.16580  Biso   1.000  O
  O16      1.0000 0.62998  0.10893  0.49914  Biso   1.000  O
  O17      1.0000 0.89107  0.52106  0.49914  Biso   1.000  O
  O18      1.0000 0.47894  0.37002  0.49914  Biso   1.000  O
  O19      1.0000 0.44229  0.29669  0.16751  Biso   1.000  O
  O20      1.0000 0.70331  0.14560  0.16751  Biso   1.000  O
  O21      1.0000 0.85440  0.55771  0.16751  Biso   1.000  O
  O22      1.0000 0.10896  0.63002  0.50084  Biso   1.000  O
  O23      1.0000 0.36998  0.47893  0.50084  Biso   1.000  O
  O24      1.0000 0.52107  0.89104  0.50084  Biso   1.000  O
  O25      1.0000 0.77562  0.96336  0.83418  Biso   1.000  O
  O26      1.0000 0.03664  0.81227  0.83418  Biso   1.000  O
  O27      1.0000 0.18773  0.22438  0.83418  Biso   1.000  O
  O28      1.0000 0.55771  0.70331  0.83249  Biso   1.000  O
  O29      1.0000 0.29669  0.85440  0.83249  Biso   1.000  O
  O30      1.0000 0.14560  0.44229  0.83249  Biso   1.000  O
  O31      1.0000 0.22438  0.03664  0.16582  Biso   1.000  O
  O32      1.0000 0.96336  0.18773  0.16582  Biso   1.000  O
  O33      1.0000 0.81227  0.77562  0.16582  Biso   1.000  O
  O34      1.0000 0.89104  0.36998  0.49916  Biso   1.000  O
  O35      1.0000 0.63002  0.52107  0.49916  Biso   1.000  O
  O36      1.0000 0.47893  0.10896  0.49916  Biso   1.000  O
  O37      1.0000 0.74746  0.64469  0.19961  Biso   1.000  O
  O38      1.0000 0.35531  0.10277  0.19961  Biso   1.000  O
  O39      1.0000 0.89723  0.25254  0.19961  Biso   1.000  O
  O40      1.0000 0.41413  0.97802  0.53294  Biso   1.000  O
  O41      1.0000 0.02198  0.43610  0.53294  Biso   1.000  O
  O42      1.0000 0.56390  0.58587  0.53294  Biso   1.000  O
  O43      1.0000 0.08079  0.31136  0.86628  Biso   1.000  O
  O44      1.0000 0.68864  0.76944  0.86628  Biso   1.000  O
  O45      1.0000 0.23056  0.91921  0.86628  Biso   1.000  O
  O46      1.0000 0.25254  0.35531  0.80039  Biso   1.000  O
  O47      1.0000 0.64469  0.89723  0.80039  Biso   1.000  O
  O48      1.0000 0.10277  0.74746  0.80039  Biso   1.000  O
  O49      1.0000 0.91921  0.68864  0.13372  Biso   1.000  O
  O50      1.0000 0.31136  0.23056  0.13372  Biso   1.000  O
  O51      1.0000 0.76944  0.08079  0.13372  Biso   1.000  O
  O52      1.0000 0.58587  0.02198  0.46706  Biso   1.000  O
  O53      1.0000 0.97802  0.56390  0.46706  Biso   1.000  O
  O54      1.0000 0.43610  0.41413  0.46706  Biso   1.000  O
  O55      1.0000 0.35520  0.25237  0.19960  Biso   1.000  O
  O56      1.0000 0.74763  0.10283  0.19960  Biso   1.000  O
  O57      1.0000 0.89717  0.64480  0.19960  Biso   1.000  O
  O58      1.0000 0.02187  0.58570  0.53293  Biso   1.000  O
  O59      1.0000 0.41430  0.43616  0.53293  Biso   1.000  O
  O60      1.0000 0.56384  0.97813  0.53293  Biso   1.000  O
  O61      1.0000 0.68853  0.91904  0.86627  Biso   1.000  O
  O62      1.0000 0.08096  0.76950  0.86627  Biso   1.000  O
  O63      1.0000 0.23050  0.31147  0.86627  Biso   1.000  O
  O64      1.0000 0.64480  0.74763  0.80040  Biso   1.000  O
  O65      1.0000 0.25237  0.89717  0.80040  Biso   1.000  O
  O66      1.0000 0.10283  0.35520  0.80040  Biso   1.000  O
  O67      1.0000 0.31147  0.08096  0.13373  Biso   1.000  O
  O68      1.0000 0.91904  0.23050  0.13373  Biso   1.000  O
  O69      1.0000 0.76950  0.68853  0.13373  Biso   1.000  O
  O70      1.0000 0.97813  0.41430  0.46707  Biso   1.000  O
  O71      1.0000 0.58570  0.56384  0.46707  Biso   1.000  O
  O72      1.0000 0.43616  0.02187  0.46707  Biso   1.000  O
  C1       1.0000 0.55420  0.44590  0.18929  Biso   1.000  C
  C2       1.0000 0.55410  0.10830  0.18929  Biso   1.000  C
  C3       1.0000 0.89170  0.44580  0.18929  Biso   1.000  C
  C4       1.0000 0.22087  0.77923  0.52262  Biso   1.000  C
  C5       1.0000 0.22077  0.44163  0.52262  Biso   1.000  C
  C6       1.0000 0.55837  0.77913  0.52262  Biso   1.000  C
  C7       1.0000 0.88753  0.11257  0.85596  Biso   1.000  C
  C8       1.0000 0.88743  0.77497  0.85596  Biso   1.000  C
  C9       1.0000 0.22503  0.11247  0.85596  Biso   1.000  C
  C10      1.0000 0.44580  0.55410  0.81071  Biso   1.000  C
  C11      1.0000 0.44590  0.89170  0.81071  Biso   1.000  C
  C12      1.0000 0.10830  0.55420  0.81071  Biso   1.000  C
  C13      1.0000 0.11247  0.88743  0.14404  Biso   1.000  C
  C14      1.0000 0.11257  0.22503  0.14404  Biso   1.000  C
  C15      1.0000 0.77497  0.88753  0.14404  Biso   1.000  C
  C16      1.0000 0.77913  0.22077  0.47738  Biso   1.000  C
  C17      1.0000 0.77923  0.55837  0.47738  Biso   1.000  C
  C18      1.0000 0.44163  0.22087  0.47738  Biso   1.000  C
  H1       1.0000 0.56450  0.43570  0.17320  Biso   1.000  H
  H2       1.0000 0.56430  0.12880  0.17320  Biso   1.000  H
  H3       1.0000 0.87120  0.43550  0.17320  Biso   1.000  H
  H4       1.0000 0.23117  0.76903  0.50653  Biso   1.000  H
  H5       1.0000 0.23097  0.46213  0.50653  Biso   1.000  H
  H6       1.0000 0.53787  0.76883  0.50653  Biso   1.000  H
  H7       1.0000 0.89783  0.10237  0.83987  Biso   1.000  H
  H8       1.0000 0.89763  0.79547  0.83987  Biso   1.000  H
  H9       1.0000 0.20453  0.10217  0.83987  Biso   1.000  H
  H10      1.0000 0.43550  0.56430  0.82680  Biso   1.000  H
  H11      1.0000 0.43570  0.87120  0.82680  Biso   1.000  H
  H12      1.0000 0.12880  0.56450  0.82680  Biso   1.000  H
  H13      1.0000 0.10217  0.89763  0.16013  Biso   1.000  H
  H14      1.0000 0.10237  0.20453  0.16013  Biso   1.000  H
  H15      1.0000 0.79547  0.89783  0.16013  Biso   1.000  H
  H16      1.0000 0.76883  0.23097  0.49347  Biso   1.000  H
  H17      1.0000 0.76903  0.53787  0.49347  Biso   1.000  H
  H18      1.0000 0.46213  0.23117  0.49347  Biso   1.000  H
  C19      1.0000 0.69400  0.57919  0.18839  Biso   1.000  C
  C20      1.0000 0.42081  0.11481  0.18839  Biso   1.000  C
  C21      1.0000 0.88519  0.30600  0.18839  Biso   1.000  C
  C22      1.0000 0.36067  0.91252  0.52172  Biso   1.000  C
  C23      1.0000 0.08748  0.44814  0.52172  Biso   1.000  C
  C24      1.0000 0.55186  0.63933  0.52172  Biso   1.000  C
  C25      1.0000 0.02733  0.24586  0.85506  Biso   1.000  C
  C26      1.0000 0.75414  0.78148  0.85506  Biso   1.000  C
  C27      1.0000 0.21852  0.97267  0.85506  Biso   1.000  C
  C28      1.0000 0.30600  0.42081  0.81161  Biso   1.000  C
  C29      1.0000 0.57919  0.88519  0.81161  Biso   1.000  C
  C30      1.0000 0.11481  0.69400  0.81161  Biso   1.000  C
  C31      1.0000 0.97267  0.75414  0.14494  Biso   1.000  C
  C32      1.0000 0.24586  0.21852  0.14494  Biso   1.000  C
  C33      1.0000 0.78148  0.02733  0.14494  Biso   1.000  C
  C34      1.0000 0.63933  0.08748  0.47828  Biso   1.000  C
  C35      1.0000 0.91252  0.55186  0.47828  Biso   1.000  C
  C36      1.0000 0.44814  0.36067  0.47828  Biso   1.000  C
  C37      1.0000 0.61260  0.51920  0.20098  Biso   1.000  C
  C38      1.0000 0.48080  0.09340  0.20098  Biso   1.000  C
  C39      1.0000 0.90660  0.38740  0.20098  Biso   1.000  C
  C40      1.0000 0.27927  0.85253  0.53431  Biso   1.000  C
  C41      1.0000 0.14747  0.42673  0.53431  Biso   1.000  C
  C42      1.0000 0.57327  0.72073  0.53431  Biso   1.000  C
  C43      1.0000 0.94593  0.18587  0.86765  Biso   1.000  C
  C44      1.0000 0.81413  0.76007  0.86765  Biso   1.000  C
  C45      1.0000 0.23993  0.05407  0.86765  Biso   1.000  C
  C46      1.0000 0.38740  0.48080  0.79902  Biso   1.000  C
  C47      1.0000 0.51920  0.90660  0.79902  Biso   1.000  C
  C48      1.0000 0.09340  0.61260  0.79902  Biso   1.000  C
  C49      1.0000 0.05407  0.81413  0.13235  Biso   1.000  C
  C50      1.0000 0.18587  0.23993  0.13235  Biso   1.000  C
  C51      1.0000 0.76007  0.94593  0.13235  Biso   1.000  C
  C52      1.0000 0.72073  0.14747  0.46569  Biso   1.000  C
  C53      1.0000 0.85253  0.57327  0.46569  Biso   1.000  C
  C54      1.0000 0.42673  0.27927  0.46569  Biso   1.000  C
  C55      1.0000 0.48080  0.38740  0.20100  Biso   1.000  C
  C56      1.0000 0.61260  0.09340  0.20100  Biso   1.000  C
  C57      1.0000 0.90660  0.51920  0.20100  Biso   1.000  C
  C58      1.0000 0.14747  0.72073  0.53433  Biso   1.000  C
  C59      1.0000 0.27927  0.42673  0.53433  Biso   1.000  C
  C60      1.0000 0.57327  0.85253  0.53433  Biso   1.000  C
  C61      1.0000 0.81413  0.05407  0.86767  Biso   1.000  C
  C62      1.0000 0.94593  0.76007  0.86767  Biso   1.000  C
  C63      1.0000 0.23993  0.18587  0.86767  Biso   1.000  C
  C64      1.0000 0.51920  0.61260  0.79900  Biso   1.000  C
  C65      1.0000 0.38740  0.90660  0.79900  Biso   1.000  C
  C66      1.0000 0.09340  0.48080  0.79900  Biso   1.000  C
  C67      1.0000 0.18587  0.94593  0.13233  Biso   1.000  C
  C68      1.0000 0.05407  0.23993  0.13233  Biso   1.000  C
  C69      1.0000 0.76007  0.81413  0.13233  Biso   1.000  C
  C70      1.0000 0.85253  0.27927  0.46567  Biso   1.000  C
  C71      1.0000 0.72073  0.57327  0.46567  Biso   1.000  C
  C72      1.0000 0.42673  0.14747  0.46567  Biso   1.000  C
  C73      1.0000 0.59760  0.53340  0.22478  Biso   1.000  C
  C74      1.0000 0.46660  0.06420  0.22478  Biso   1.000  C
  C75      1.0000 0.93580  0.40240  0.22478  Biso   1.000  C
  C76      1.0000 0.26427  0.86673  0.55811  Biso   1.000  C
  C77      1.0000 0.13327  0.39753  0.55811  Biso   1.000  C
  C78      1.0000 0.60247  0.73573  0.55811  Biso   1.000  C
  C79      1.0000 0.93093  0.20007  0.89145  Biso   1.000  C
  C80      1.0000 0.79993  0.73087  0.89145  Biso   1.000  C
  C81      1.0000 0.26913  0.06907  0.89145  Biso   1.000  C
  C82      1.0000 0.40240  0.46660  0.77522  Biso   1.000  C
  C83      1.0000 0.53340  0.93580  0.77522  Biso   1.000  C
  C84      1.0000 0.06420  0.59760  0.77522  Biso   1.000  C
  C85      1.0000 0.06907  0.79993  0.10855  Biso   1.000  C
  C86      1.0000 0.20007  0.26913  0.10855  Biso   1.000  C
  C87      1.0000 0.73087  0.93093  0.10855  Biso   1.000  C
  C88      1.0000 0.73573  0.13327  0.44189  Biso   1.000  C
  C89      1.0000 0.86673  0.60247  0.44189  Biso   1.000  C
  C90      1.0000 0.39753  0.26427  0.44189  Biso   1.000  C
  H19      1.0000 0.63790  0.58430  0.23270  Biso   1.000  H
  H20      1.0000 0.41570  0.05360  0.23270  Biso   1.000  H
  H21      1.0000 0.94640  0.36210  0.23270  Biso   1.000  H
  H22      1.0000 0.30457  0.91763  0.56603  Biso   1.000  H
  H23      1.0000 0.08237  0.38693  0.56603  Biso   1.000  H
  H24      1.0000 0.61307  0.69543  0.56603  Biso   1.000  H
  H25      1.0000 0.97123  0.25097  0.89937  Biso   1.000  H
  H26      1.0000 0.74903  0.72027  0.89937  Biso   1.000  H
  H27      1.0000 0.27973  0.02877  0.89937  Biso   1.000  H
  H28      1.0000 0.36210  0.41570  0.76730  Biso   1.000  H
  H29      1.0000 0.58430  0.94640  0.76730  Biso   1.000  H
  H30      1.0000 0.05360  0.63790  0.76730  Biso   1.000  H
  H31      1.0000 0.02877  0.74903  0.10063  Biso   1.000  H
  H32      1.0000 0.25097  0.27973  0.10063  Biso   1.000  H
  H33      1.0000 0.72027  0.97123  0.10063  Biso   1.000  H
  H34      1.0000 0.69543  0.08237  0.43397  Biso   1.000  H
  H35      1.0000 0.91763  0.61307  0.43397  Biso   1.000  H
  H36      1.0000 0.38693  0.30457  0.43397  Biso   1.000  H
  C91      1.0000 0.42094  0.30610  0.18841  Biso   1.000  C
  C92      1.0000 0.69390  0.11484  0.18841  Biso   1.000  C
  C93      1.0000 0.88516  0.57906  0.18841  Biso   1.000  C
  C94      1.0000 0.08761  0.63943  0.52174  Biso   1.000  C
  C95      1.0000 0.36057  0.44817  0.52174  Biso   1.000  C
  C96      1.0000 0.55183  0.91239  0.52174  Biso   1.000  C
  C97      1.0000 0.75427  0.97277  0.85508  Biso   1.000  C
  C98      1.0000 0.02723  0.78151  0.85508  Biso   1.000  C
  C99      1.0000 0.21849  0.24573  0.85508  Biso   1.000  C
  C100     1.0000 0.57906  0.69390  0.81159  Biso   1.000  C
  C101     1.0000 0.30610  0.88516  0.81159  Biso   1.000  C
  C102     1.0000 0.11484  0.42094  0.81159  Biso   1.000  C
  C103     1.0000 0.24573  0.02723  0.14492  Biso   1.000  C
  C104     1.0000 0.97277  0.21849  0.14492  Biso   1.000  C
  C105     1.0000 0.78151  0.75427  0.14492  Biso   1.000  C
  C106     1.0000 0.91239  0.36057  0.47826  Biso   1.000  C
  C107     1.0000 0.63943  0.55183  0.47826  Biso   1.000  C
  C108     1.0000 0.44817  0.08761  0.47826  Biso   1.000  C
  C109     1.0000 0.52520  0.47470  0.23694  Biso   1.000  C
  C110     1.0000 0.52530  0.05050  0.23694  Biso   1.000  C
  C111     1.0000 0.94950  0.47480  0.23694  Biso   1.000  C
  C112     1.0000 0.19187  0.80803  0.57027  Biso   1.000  C
  C113     1.0000 0.19197  0.38383  0.57027  Biso   1.000  C
  C114     1.0000 0.61617  0.80813  0.57027  Biso   1.000  C
  C115     1.0000 0.85853  0.14137  0.90361  Biso   1.000  C
  C116     1.0000 0.85863  0.71717  0.90361  Biso   1.000  C
  C117     1.0000 0.28283  0.14147  0.90361  Biso   1.000  C
  C118     1.0000 0.47480  0.52530  0.76306  Biso   1.000  C
  C119     1.0000 0.47470  0.94950  0.76306  Biso   1.000  C
  C120     1.0000 0.05050  0.52520  0.76306  Biso   1.000  C
  C121     1.0000 0.14147  0.85863  0.09639  Biso   1.000  C
  C122     1.0000 0.14137  0.28283  0.09639  Biso   1.000  C
  C123     1.0000 0.71717  0.85853  0.09639  Biso   1.000  C
  C124     1.0000 0.80813  0.19197  0.42973  Biso   1.000  C
  C125     1.0000 0.80803  0.61617  0.42973  Biso   1.000  C
  C126     1.0000 0.38383  0.19187  0.42973  Biso   1.000  C
  C127     1.0000 0.46630  0.40200  0.22484  Biso   1.000  C
  C128     1.0000 0.59800  0.06430  0.22484  Biso   1.000  C
  C129     1.0000 0.93570  0.53370  0.22484  Biso   1.000  C
  C130     1.0000 0.13297  0.73533  0.55817  Biso   1.000  C
  C131     1.0000 0.26467  0.39763  0.55817  Biso   1.000  C
  C132     1.0000 0.60237  0.86703  0.55817  Biso   1.000  C
  C133     1.0000 0.79963  0.06867  0.89151  Biso   1.000  C
  C134     1.0000 0.93133  0.73097  0.89151  Biso   1.000  C
  C135     1.0000 0.26903  0.20037  0.89151  Biso   1.000  C
  C136     1.0000 0.53370  0.59800  0.77516  Biso   1.000  C
  C137     1.0000 0.40200  0.93570  0.77516  Biso   1.000  C
  C138     1.0000 0.06430  0.46630  0.77516  Biso   1.000  C
  C139     1.0000 0.20037  0.93133  0.10849  Biso   1.000  C
  C140     1.0000 0.06867  0.26903  0.10849  Biso   1.000  C
  C141     1.0000 0.73097  0.79963  0.10849  Biso   1.000  C
  C142     1.0000 0.86703  0.26467  0.44183  Biso   1.000  C
  C143     1.0000 0.73533  0.60237  0.44183  Biso   1.000  C
  C144     1.0000 0.39763  0.13297  0.44183  Biso   1.000  C
  H37      1.0000 0.41550  0.36170  0.23280  Biso   1.000  H
  H38      1.0000 0.63830  0.05380  0.23280  Biso   1.000  H
  H39      1.0000 0.94620  0.58450  0.23280  Biso   1.000  H
  H40      1.0000 0.08217  0.69503  0.56613  Biso   1.000  H
  H41      1.0000 0.30497  0.38713  0.56613  Biso   1.000  H
  H42      1.0000 0.61287  0.91783  0.56613  Biso   1.000  H
  H43      1.0000 0.74883  0.02837  0.89947  Biso   1.000  H
  H44      1.0000 0.97163  0.72047  0.89947  Biso   1.000  H
  H45      1.0000 0.27953  0.25117  0.89947  Biso   1.000  H
  H46      1.0000 0.58450  0.63830  0.76720  Biso   1.000  H
  H47      1.0000 0.36170  0.94620  0.76720  Biso   1.000  H
  H48      1.0000 0.05380  0.41550  0.76720  Biso   1.000  H
  H49      1.0000 0.25117  0.97163  0.10053  Biso   1.000  H
  H50      1.0000 0.02837  0.27953  0.10053  Biso   1.000  H
  H51      1.0000 0.72047  0.74883  0.10053  Biso   1.000  H
  H52      1.0000 0.91783  0.30497  0.43387  Biso   1.000  H
  H53      1.0000 0.69503  0.61287  0.43387  Biso   1.000  H
  H54      1.0000 0.38713  0.08217  0.43387  Biso   1.000  H
  C145     1.0000 0.49130  0.55470  0.33660  Biso   1.000  C
  C146     1.0000 0.44530  0.93660  0.33660  Biso   1.000  C
  C147     1.0000 0.06340  0.50870  0.33660  Biso   1.000  C
  C148     1.0000 0.15797  0.88803  0.66993  Biso   1.000  C
  C149     1.0000 0.11197  0.26993  0.66993  Biso   1.000  C
  C150     1.0000 0.73007  0.84203  0.66993  Biso   1.000  C
  C151     1.0000 0.82463  0.22137  0.00327  Biso   1.000  C
  C152     1.0000 0.77863  0.60327  0.00327  Biso   1.000  C
  C153     1.0000 0.39673  0.17537  0.00327  Biso   1.000  C
  C154     1.0000 0.50870  0.44530  0.66340  Biso   1.000  C
  C155     1.0000 0.55470  0.06340  0.66340  Biso   1.000  C
  C156     1.0000 0.93660  0.49130  0.66340  Biso   1.000  C
  C157     1.0000 0.17537  0.77863  0.99673  Biso   1.000  C
  C158     1.0000 0.22137  0.39673  0.99673  Biso   1.000  C
  C159     1.0000 0.60327  0.82463  0.99673  Biso   1.000  C
  C160     1.0000 0.84203  0.11197  0.33007  Biso   1.000  C
  C161     1.0000 0.88803  0.73007  0.33007  Biso   1.000  C
  C162     1.0000 0.26993  0.15797  0.33007  Biso   1.000  C
  C163     1.0000 0.54160  0.63800  0.34467  Biso   1.000  C
  C164     1.0000 0.36200  0.90360  0.34467  Biso   1.000  C
  C165     1.0000 0.09640  0.45840  0.34467  Biso   1.000  C
  C166     1.0000 0.20827  0.97133  0.67800  Biso   1.000  C
  C167     1.0000 0.02867  0.23693  0.67800  Biso   1.000  C
  C168     1.0000 0.76307  0.79173  0.67800  Biso   1.000  C
  C169     1.0000 0.87493  0.30467  0.01134  Biso   1.000  C
  C170     1.0000 0.69533  0.57027  0.01134  Biso   1.000  C
  C171     1.0000 0.42973  0.12507  0.01134  Biso   1.000  C
  C172     1.0000 0.45840  0.36200  0.65533  Biso   1.000  C
  C173     1.0000 0.63800  0.09640  0.65533  Biso   1.000  C
  C174     1.0000 0.90360  0.54160  0.65533  Biso   1.000  C
  C175     1.0000 0.12507  0.69533  0.98866  Biso   1.000  C
  C176     1.0000 0.30467  0.42973  0.98866  Biso   1.000  C
  C177     1.0000 0.57027  0.87493  0.98866  Biso   1.000  C
  C178     1.0000 0.79173  0.02867  0.32200  Biso   1.000  C
  C179     1.0000 0.97133  0.76307  0.32200  Biso   1.000  C
  C180     1.0000 0.23693  0.20827  0.32200  Biso   1.000  C
  H55      1.0000 0.58070  0.68060  0.33400  Biso   1.000  H
  H56      1.0000 0.31940  0.90010  0.33400  Biso   1.000  H
  H57      1.0000 0.09990  0.41930  0.33400  Biso   1.000  H
  H58      1.0000 0.24737  0.01393  0.66733  Biso   1.000  H
  H59      1.0000 0.98607  0.23343  0.66733  Biso   1.000  H
  H60      1.0000 0.76657  0.75263  0.66733  Biso   1.000  H
  H61      1.0000 0.91403  0.34727  0.00067  Biso   1.000  H
  H62      1.0000 0.65273  0.56677  0.00067  Biso   1.000  H
  H63      1.0000 0.43323  0.08597  0.00067  Biso   1.000  H
  H64      1.0000 0.41930  0.31940  0.66600  Biso   1.000  H
  H65      1.0000 0.68060  0.09990  0.66600  Biso   1.000  H
  H66      1.0000 0.90010  0.58070  0.66600  Biso   1.000  H
  H67      1.0000 0.08597  0.65273  0.99933  Biso   1.000  H
  H68      1.0000 0.34727  0.43323  0.99933  Biso   1.000  H
  H69      1.0000 0.56677  0.91403  0.99933  Biso   1.000  H
  H70      1.0000 0.75263  0.98607  0.33267  Biso   1.000  H
  H71      1.0000 0.01393  0.76657  0.33267  Biso   1.000  H
  H72      1.0000 0.23343  0.24737  0.33267  Biso   1.000  H
  C181     1.0000 0.53450  0.65890  0.36836  Biso   1.000  C
  C182     1.0000 0.34110  0.87560  0.36836  Biso   1.000  C
  C183     1.0000 0.12440  0.46550  0.36836  Biso   1.000  C
  C184     1.0000 0.20117  0.99223  0.70169  Biso   1.000  C
  C185     1.0000 0.00777  0.20893  0.70169  Biso   1.000  C
  C186     1.0000 0.79107  0.79883  0.70169  Biso   1.000  C
  C187     1.0000 0.86783  0.32557  0.03503  Biso   1.000  C
  C188     1.0000 0.67443  0.54227  0.03503  Biso   1.000  C
  C189     1.0000 0.45773  0.13217  0.03503  Biso   1.000  C
  C190     1.0000 0.46550  0.34110  0.63164  Biso   1.000  C
  C191     1.0000 0.65890  0.12440  0.63164  Biso   1.000  C
  C192     1.0000 0.87560  0.53450  0.63164  Biso   1.000  C
  C193     1.0000 0.13217  0.67443  0.96497  Biso   1.000  C
  C194     1.0000 0.32557  0.45773  0.96497  Biso   1.000  C
  C195     1.0000 0.54227  0.86783  0.96497  Biso   1.000  C
  C196     1.0000 0.79883  0.00777  0.29831  Biso   1.000  C
  C197     1.0000 0.99223  0.79107  0.29831  Biso   1.000  C
  C198     1.0000 0.20893  0.20117  0.29831  Biso   1.000  C
  H73      1.0000 0.56880  0.71590  0.37390  Biso   1.000  H
  H74      1.0000 0.28410  0.85290  0.37390  Biso   1.000  H
  H75      1.0000 0.14710  0.43120  0.37390  Biso   1.000  H
  H76      1.0000 0.23547  0.04923  0.70723  Biso   1.000  H
  H77      1.0000 0.95077  0.18623  0.70723  Biso   1.000  H
  H78      1.0000 0.81377  0.76453  0.70723  Biso   1.000  H
  H79      1.0000 0.90213  0.38257  0.04057  Biso   1.000  H
  H80      1.0000 0.61743  0.51957  0.04057  Biso   1.000  H
  H81      1.0000 0.48043  0.09787  0.04057  Biso   1.000  H
  H82      1.0000 0.43120  0.28410  0.62610  Biso   1.000  H
  H83      1.0000 0.71590  0.14710  0.62610  Biso   1.000  H
  H84      1.0000 0.85290  0.56880  0.62610  Biso   1.000  H
  H85      1.0000 0.09787  0.61743  0.95943  Biso   1.000  H
  H86      1.0000 0.38257  0.48043  0.95943  Biso   1.000  H
  H87      1.0000 0.51957  0.90213  0.95943  Biso   1.000  H
  H88      1.0000 0.76453  0.95077  0.29277  Biso   1.000  H
  H89      1.0000 0.04923  0.81377  0.29277  Biso   1.000  H
  H90      1.0000 0.18623  0.23547  0.29277  Biso   1.000  H
  C199     1.0000 0.47710  0.59650  0.38399  Biso   1.000  C
  C200     1.0000 0.40350  0.88060  0.38399  Biso   1.000  C
  C201     1.0000 0.11940  0.52290  0.38399  Biso   1.000  C
  C202     1.0000 0.14377  0.92983  0.71732  Biso   1.000  C
  C203     1.0000 0.07017  0.21393  0.71732  Biso   1.000  C
  C204     1.0000 0.78607  0.85623  0.71732  Biso   1.000  C
  C205     1.0000 0.81043  0.26317  0.05066  Biso   1.000  C
  C206     1.0000 0.73683  0.54727  0.05066  Biso   1.000  C
  C207     1.0000 0.45273  0.18957  0.05066  Biso   1.000  C
  C208     1.0000 0.52290  0.40350  0.61601  Biso   1.000  C
  C209     1.0000 0.59650  0.11940  0.61601  Biso   1.000  C
  C210     1.0000 0.88060  0.47710  0.61601  Biso   1.000  C
  C211     1.0000 0.18957  0.73683  0.94934  Biso   1.000  C
  C212     1.0000 0.26317  0.45273  0.94934  Biso   1.000  C
  C213     1.0000 0.54727  0.81043  0.94934  Biso   1.000  C
  C214     1.0000 0.85623  0.07017  0.28268  Biso   1.000  C
  C215     1.0000 0.92983  0.78607  0.28268  Biso   1.000  C
  C216     1.0000 0.21393  0.14377  0.28268  Biso   1.000  C
  C217     1.0000 0.42680  0.51320  0.37593  Biso   1.000  C
  C218     1.0000 0.48680  0.91360  0.37593  Biso   1.000  C
  C219     1.0000 0.08640  0.57320  0.37593  Biso   1.000  C
  C220     1.0000 0.09347  0.84653  0.70926  Biso   1.000  C
  C221     1.0000 0.15347  0.24693  0.70926  Biso   1.000  C
  C222     1.0000 0.75307  0.90653  0.70926  Biso   1.000  C
  C223     1.0000 0.76013  0.17987  0.04260  Biso   1.000  C
  C224     1.0000 0.82013  0.58027  0.04260  Biso   1.000  C
  C225     1.0000 0.41973  0.23987  0.04260  Biso   1.000  C
  C226     1.0000 0.57320  0.48680  0.62407  Biso   1.000  C
  C227     1.0000 0.51320  0.08640  0.62407  Biso   1.000  C
  C228     1.0000 0.91360  0.42680  0.62407  Biso   1.000  C
  C229     1.0000 0.23987  0.82013  0.95740  Biso   1.000  C
  C230     1.0000 0.17987  0.41973  0.95740  Biso   1.000  C
  C231     1.0000 0.58027  0.76013  0.95740  Biso   1.000  C
  C232     1.0000 0.90653  0.15347  0.29074  Biso   1.000  C
  C233     1.0000 0.84653  0.75307  0.29074  Biso   1.000  C
  C234     1.0000 0.24693  0.09347  0.29074  Biso   1.000  C
  H91      1.0000 0.38760  0.47050  0.38660  Biso   1.000  H
  H92      1.0000 0.52950  0.91710  0.38660  Biso   1.000  H
  H93      1.0000 0.08290  0.61240  0.38660  Biso   1.000  H
  H94      1.0000 0.05427  0.80383  0.71993  Biso   1.000  H
  H95      1.0000 0.19617  0.25043  0.71993  Biso   1.000  H
  H96      1.0000 0.74957  0.94573  0.71993  Biso   1.000  H
  H97      1.0000 0.72093  0.13717  0.05327  Biso   1.000  H
  H98      1.0000 0.86283  0.58377  0.05327  Biso   1.000  H
  H99      1.0000 0.41623  0.27907  0.05327  Biso   1.000  H
  H100     1.0000 0.61240  0.52950  0.61340  Biso   1.000  H
  H101     1.0000 0.47050  0.08290  0.61340  Biso   1.000  H
  H102     1.0000 0.91710  0.38760  0.61340  Biso   1.000  H
  H103     1.0000 0.27907  0.86283  0.94673  Biso   1.000  H
  H104     1.0000 0.13717  0.41623  0.94673  Biso   1.000  H
  H105     1.0000 0.58377  0.72093  0.94673  Biso   1.000  H
  H106     1.0000 0.94573  0.19617  0.28007  Biso   1.000  H
  H107     1.0000 0.80383  0.74957  0.28007  Biso   1.000  H
  H108     1.0000 0.25043  0.05427  0.28007  Biso   1.000  H
  C235     1.0000 0.43390  0.49230  0.35223  Biso   1.000  C
  C236     1.0000 0.50770  0.94160  0.35223  Biso   1.000  C
  C237     1.0000 0.05840  0.56610  0.35223  Biso   1.000  C
  C238     1.0000 0.10057  0.82563  0.68556  Biso   1.000  C
  C239     1.0000 0.17437  0.27493  0.68556  Biso   1.000  C
  C240     1.0000 0.72507  0.89943  0.68556  Biso   1.000  C
  C241     1.0000 0.76723  0.15897  0.01890  Biso   1.000  C
  C242     1.0000 0.84103  0.60827  0.01890  Biso   1.000  C
  C243     1.0000 0.39173  0.23277  0.01890  Biso   1.000  C
  C244     1.0000 0.56610  0.50770  0.64777  Biso   1.000  C
  C245     1.0000 0.49230  0.05840  0.64777  Biso   1.000  C
  C246     1.0000 0.94160  0.43390  0.64777  Biso   1.000  C
  C247     1.0000 0.23277  0.84103  0.98110  Biso   1.000  C
  C248     1.0000 0.15897  0.39173  0.98110  Biso   1.000  C
  C249     1.0000 0.60827  0.76723  0.98110  Biso   1.000  C
  C250     1.0000 0.89943  0.17437  0.31444  Biso   1.000  C
  C251     1.0000 0.82563  0.72507  0.31444  Biso   1.000  C
  C252     1.0000 0.27493  0.10057  0.31444  Biso   1.000  C
  H109     1.0000 0.39960  0.43530  0.34670  Biso   1.000  H
  H110     1.0000 0.56470  0.96430  0.34670  Biso   1.000  H
  H111     1.0000 0.03570  0.60040  0.34670  Biso   1.000  H
  H112     1.0000 0.06627  0.76863  0.68003  Biso   1.000  H
  H113     1.0000 0.23137  0.29763  0.68003  Biso   1.000  H
  H114     1.0000 0.70237  0.93373  0.68003  Biso   1.000  H
  H115     1.0000 0.73293  0.10197  0.01337  Biso   1.000  H
  H116     1.0000 0.89803  0.63097  0.01337  Biso   1.000  H
  H117     1.0000 0.36903  0.26707  0.01337  Biso   1.000  H
  H118     1.0000 0.60040  0.56470  0.65330  Biso   1.000  H
  H119     1.0000 0.43530  0.03570  0.65330  Biso   1.000  H
  H120     1.0000 0.96430  0.39960  0.65330  Biso   1.000  H
  H121     1.0000 0.26707  0.89803  0.98663  Biso   1.000  H
  H122     1.0000 0.10197  0.36903  0.98663  Biso   1.000  H
  H123     1.0000 0.63097  0.73293  0.98663  Biso   1.000  H
  H124     1.0000 0.93373  0.23137  0.31997  Biso   1.000  H
  H125     1.0000 0.76863  0.70237  0.31997  Biso   1.000  H
  H126     1.0000 0.29763  0.06627  0.31997  Biso   1.000  H
  C253     1.0000 0.50970  0.48770  0.26302  Biso   1.000  C
  C254     1.0000 0.51230  0.02200  0.26302  Biso   1.000  C
  C255     1.0000 0.97800  0.49030  0.26302  Biso   1.000  C
  C256     1.0000 0.17637  0.82103  0.59635  Biso   1.000  C
  C257     1.0000 0.17897  0.35533  0.59635  Biso   1.000  C
  C258     1.0000 0.64467  0.82363  0.59635  Biso   1.000  C
  C259     1.0000 0.84303  0.15437  0.92969  Biso   1.000  C
  C260     1.0000 0.84563  0.68867  0.92969  Biso   1.000  C
  C261     1.0000 0.31133  0.15697  0.92969  Biso   1.000  C
  C262     1.0000 0.49030  0.51230  0.73698  Biso   1.000  C
  C263     1.0000 0.48770  0.97800  0.73698  Biso   1.000  C
  C264     1.0000 0.02200  0.50970  0.73698  Biso   1.000  C
  C265     1.0000 0.15697  0.84563  0.07031  Biso   1.000  C
  C266     1.0000 0.15437  0.31133  0.07031  Biso   1.000  C
  C267     1.0000 0.68867  0.84303  0.07031  Biso   1.000  C
  C268     1.0000 0.82363  0.17897  0.40365  Biso   1.000  C
  C269     1.0000 0.82103  0.64467  0.40365  Biso   1.000  C
  C270     1.0000 0.35533  0.17637  0.40365  Biso   1.000  C
  C271     1.0000 0.45950  0.56620  0.42814  Biso   1.000  C
  C272     1.0000 0.43380  0.89330  0.42814  Biso   1.000  C
  C273     1.0000 0.10670  0.54050  0.42814  Biso   1.000  C
  C274     1.0000 0.12617  0.89953  0.76147  Biso   1.000  C
  C275     1.0000 0.10047  0.22663  0.76147  Biso   1.000  C
  C276     1.0000 0.77337  0.87383  0.76147  Biso   1.000  C
  C277     1.0000 0.79283  0.23287  0.09481  Biso   1.000  C
  C278     1.0000 0.76713  0.55997  0.09481  Biso   1.000  C
  C279     1.0000 0.44003  0.20717  0.09481  Biso   1.000  C
  C280     1.0000 0.54050  0.43380  0.57186  Biso   1.000  C
  C281     1.0000 0.56620  0.10670  0.57186  Biso   1.000  C
  C282     1.0000 0.89330  0.45950  0.57186  Biso   1.000  C
  C283     1.0000 0.20717  0.76713  0.90519  Biso   1.000  C
  C284     1.0000 0.23287  0.44003  0.90519  Biso   1.000  C
  C285     1.0000 0.55997  0.79283  0.90519  Biso   1.000  C
  C286     1.0000 0.87383  0.10047  0.23853  Biso   1.000  C
  C287     1.0000 0.89953  0.77337  0.23853  Biso   1.000  C
  C288     1.0000 0.22663  0.12617  0.23853  Biso   1.000  C
  H127     1.0000 0.45970  0.51460  0.42520  Biso   1.000  H
  H128     1.0000 0.48540  0.94510  0.42520  Biso   1.000  H
  H129     1.0000 0.05490  0.54030  0.42520  Biso   1.000  H
  H130     1.0000 0.12637  0.84793  0.75853  Biso   1.000  H
  H131     1.0000 0.15207  0.27843  0.75853  Biso   1.000  H
  H132     1.0000 0.72157  0.87363  0.75853  Biso   1.000  H
  H133     1.0000 0.79303  0.18127  0.09187  Biso   1.000  H
  H134     1.0000 0.81873  0.61177  0.09187  Biso   1.000  H
  H135     1.0000 0.38823  0.20697  0.09187  Biso   1.000  H
  H136     1.0000 0.54030  0.48540  0.57480  Biso   1.000  H
  H137     1.0000 0.51460  0.05490  0.57480  Biso   1.000  H
  H138     1.0000 0.94510  0.45970  0.57480  Biso   1.000  H
  H139     1.0000 0.20697  0.81873  0.90813  Biso   1.000  H
  H140     1.0000 0.18127  0.38823  0.90813  Biso   1.000  H
  H141     1.0000 0.61177  0.79303  0.90813  Biso   1.000  H
  H142     1.0000 0.87363  0.15207  0.24147  Biso   1.000  H
  H143     1.0000 0.84793  0.72157  0.24147  Biso   1.000  H
  H144     1.0000 0.27843  0.12637  0.24147  Biso   1.000  H
  N1       1.0000 0.45090  0.58820  0.45158  Biso   1.000  N
  N2       1.0000 0.41180  0.86270  0.45158  Biso   1.000  N
  N3       1.0000 0.13730  0.54910  0.45158  Biso   1.000  N
  N4       1.0000 0.11757  0.92153  0.78491  Biso   1.000  N
  N5       1.0000 0.07847  0.19603  0.78491  Biso   1.000  N
  N6       1.0000 0.80397  0.88243  0.78491  Biso   1.000  N
  N7       1.0000 0.78423  0.25487  0.11825  Biso   1.000  N
  N8       1.0000 0.74513  0.52937  0.11825  Biso   1.000  N
  N9       1.0000 0.47063  0.21577  0.11825  Biso   1.000  N
  N10      1.0000 0.54910  0.41180  0.54842  Biso   1.000  N
  N11      1.0000 0.58820  0.13730  0.54842  Biso   1.000  N
  N12      1.0000 0.86270  0.45090  0.54842  Biso   1.000  N
  N13      1.0000 0.21577  0.74513  0.88175  Biso   1.000  N
  N14      1.0000 0.25487  0.47063  0.88175  Biso   1.000  N
  N15      1.0000 0.52937  0.78423  0.88175  Biso   1.000  N
  N16      1.0000 0.88243  0.07847  0.21509  Biso   1.000  N
  N17      1.0000 0.92153  0.80397  0.21509  Biso   1.000  N
  N18      1.0000 0.19603  0.11757  0.21509  Biso   1.000  N
  C289     1.0000 0.45060  0.66360  0.45594  Biso   1.000  C
  C290     1.0000 0.33640  0.78700  0.45594  Biso   1.000  C
  C291     1.0000 0.21300  0.54940  0.45594  Biso   1.000  C
  C292     1.0000 0.11727  0.99693  0.78927  Biso   1.000  C
  C293     1.0000 0.00307  0.12033  0.78927  Biso   1.000  C
  C294     1.0000 0.87967  0.88273  0.78927  Biso   1.000  C
  C295     1.0000 0.78393  0.33027  0.12261  Biso   1.000  C
  C296     1.0000 0.66973  0.45367  0.12261  Biso   1.000  C
  C297     1.0000 0.54633  0.21607  0.12261  Biso   1.000  C
  C298     1.0000 0.54940  0.33640  0.54406  Biso   1.000  C
  C299     1.0000 0.66360  0.21300  0.54406  Biso   1.000  C
  C300     1.0000 0.78700  0.45060  0.54406  Biso   1.000  C
  C301     1.0000 0.21607  0.66973  0.87739  Biso   1.000  C
  C302     1.0000 0.33027  0.54633  0.87739  Biso   1.000  C
  C303     1.0000 0.45367  0.78393  0.87739  Biso   1.000  C
  C304     1.0000 0.88273  0.00307  0.21073  Biso   1.000  C
  C305     1.0000 0.99693  0.87967  0.21073  Biso   1.000  C
  C306     1.0000 0.12033  0.11727  0.21073  Biso   1.000  C
  H145     1.0000 0.44470  0.67860  0.47200  Biso   1.000  H
  H146     1.0000 0.32140  0.76610  0.47200  Biso   1.000  H
  H147     1.0000 0.23390  0.55530  0.47200  Biso   1.000  H
  H148     1.0000 0.11137  0.01193  0.80533  Biso   1.000  H
  H149     1.0000 0.98807  0.09943  0.80533  Biso   1.000  H
  H150     1.0000 0.90057  0.88863  0.80533  Biso   1.000  H
  H151     1.0000 0.77803  0.34527  0.13867  Biso   1.000  H
  H152     1.0000 0.65473  0.43277  0.13867  Biso   1.000  H
  H153     1.0000 0.56723  0.22197  0.13867  Biso   1.000  H
  H154     1.0000 0.55530  0.32140  0.52800  Biso   1.000  H
  H155     1.0000 0.67860  0.23390  0.52800  Biso   1.000  H
  H156     1.0000 0.76610  0.44470  0.52800  Biso   1.000  H
  H157     1.0000 0.22197  0.65473  0.86133  Biso   1.000  H
  H158     1.0000 0.34527  0.56723  0.86133  Biso   1.000  H
  H159     1.0000 0.43277  0.77803  0.86133  Biso   1.000  H
  H160     1.0000 0.88863  0.98807  0.19467  Biso   1.000  H
  H161     1.0000 0.01193  0.90057  0.19467  Biso   1.000  H
  H162     1.0000 0.09943  0.11137  0.19467  Biso   1.000  H
  N19      1.0000 0.45890  0.71700  0.43685  Biso   1.000  N
  N20      1.0000 0.28300  0.74190  0.43685  Biso   1.000  N
  N21      1.0000 0.25810  0.54110  0.43685  Biso   1.000  N
  N22      1.0000 0.12557  0.05033  0.77018  Biso   1.000  N
  N23      1.0000 0.94967  0.07523  0.77018  Biso   1.000  N
  N24      1.0000 0.92477  0.87443  0.77018  Biso   1.000  N
  N25      1.0000 0.79223  0.38367  0.10352  Biso   1.000  N
  N26      1.0000 0.61633  0.40857  0.10352  Biso   1.000  N
  N27      1.0000 0.59143  0.20777  0.10352  Biso   1.000  N
  N28      1.0000 0.54110  0.28300  0.56315  Biso   1.000  N
  N29      1.0000 0.71700  0.25810  0.56315  Biso   1.000  N
  N30      1.0000 0.74190  0.45890  0.56315  Biso   1.000  N
  N31      1.0000 0.20777  0.61633  0.89648  Biso   1.000  N
  N32      1.0000 0.38367  0.59143  0.89648  Biso   1.000  N
  N33      1.0000 0.40857  0.79223  0.89648  Biso   1.000  N
  N34      1.0000 0.87443  0.94967  0.22982  Biso   1.000  N
  N35      1.0000 0.05033  0.92477  0.22982  Biso   1.000  N
  N36      1.0000 0.07523  0.12557  0.22982  Biso   1.000  N
  C307     1.0000 0.46750  0.69500  0.41340  Biso   1.000  C
  C308     1.0000 0.30500  0.77250  0.41340  Biso   1.000  C
  C309     1.0000 0.22750  0.53250  0.41340  Biso   1.000  C
  C310     1.0000 0.13417  0.02833  0.74673  Biso   1.000  C
  C311     1.0000 0.97167  0.10583  0.74673  Biso   1.000  C
  C312     1.0000 0.89417  0.86583  0.74673  Biso   1.000  C
  C313     1.0000 0.80083  0.36167  0.08007  Biso   1.000  C
  C314     1.0000 0.63833  0.43917  0.08007  Biso   1.000  C
  C315     1.0000 0.56083  0.19917  0.08007  Biso   1.000  C
  C316     1.0000 0.53250  0.30500  0.58660  Biso   1.000  C
  C317     1.0000 0.69500  0.22750  0.58660  Biso   1.000  C
  C318     1.0000 0.77250  0.46750  0.58660  Biso   1.000  C
  C319     1.0000 0.19917  0.63833  0.91993  Biso   1.000  C
  C320     1.0000 0.36167  0.56083  0.91993  Biso   1.000  C
  C321     1.0000 0.43917  0.80083  0.91993  Biso   1.000  C
  C322     1.0000 0.86583  0.97167  0.25327  Biso   1.000  C
  C323     1.0000 0.02833  0.89417  0.25327  Biso   1.000  C
  C324     1.0000 0.10583  0.13417  0.25327  Biso   1.000  C
  H163     1.0000 0.47310  0.73160  0.40040  Biso   1.000  H
  H164     1.0000 0.26840  0.74150  0.40040  Biso   1.000  H
  H165     1.0000 0.25850  0.52690  0.40040  Biso   1.000  H
  H166     1.0000 0.13977  0.06493  0.73373  Biso   1.000  H
  H167     1.0000 0.93507  0.07483  0.73373  Biso   1.000  H
  H168     1.0000 0.92517  0.86023  0.73373  Biso   1.000  H
  H169     1.0000 0.80643  0.39827  0.06707  Biso   1.000  H
  H170     1.0000 0.60173  0.40817  0.06707  Biso   1.000  H
  H171     1.0000 0.59183  0.19357  0.06707  Biso   1.000  H
  H172     1.0000 0.52690  0.26840  0.59960  Biso   1.000  H
  H173     1.0000 0.73160  0.25850  0.59960  Biso   1.000  H
  H174     1.0000 0.74150  0.47310  0.59960  Biso   1.000  H
  H175     1.0000 0.19357  0.60173  0.93293  Biso   1.000  H
  H176     1.0000 0.39827  0.59183  0.93293  Biso   1.000  H
  H177     1.0000 0.40817  0.80643  0.93293  Biso   1.000  H
  H178     1.0000 0.86023  0.93507  0.26627  Biso   1.000  H
  H179     1.0000 0.06493  0.92517  0.26627  Biso   1.000  H
  H180     1.0000 0.07483  0.13977  0.26627  Biso   1.000  H
  C325     1.0000 0.46780  0.61960  0.40905  Biso   1.000  C
  C326     1.0000 0.38040  0.84820  0.40905  Biso   1.000  C
  C327     1.0000 0.15180  0.53220  0.40905  Biso   1.000  C
  C328     1.0000 0.13447  0.95293  0.74238  Biso   1.000  C
  C329     1.0000 0.04707  0.18153  0.74238  Biso   1.000  C
  C330     1.0000 0.81847  0.86553  0.74238  Biso   1.000  C
  C331     1.0000 0.80113  0.28627  0.07572  Biso   1.000  C
  C332     1.0000 0.71373  0.51487  0.07572  Biso   1.000  C
  C333     1.0000 0.48513  0.19887  0.07572  Biso   1.000  C
  C334     1.0000 0.53220  0.38040  0.59095  Biso   1.000  C
  C335     1.0000 0.61960  0.15180  0.59095  Biso   1.000  C
  C336     1.0000 0.84820  0.46780  0.59095  Biso   1.000  C
  C337     1.0000 0.19887  0.71373  0.92428  Biso   1.000  C
  C338     1.0000 0.28627  0.48513  0.92428  Biso   1.000  C
  C339     1.0000 0.51487  0.80113  0.92428  Biso   1.000  C
  C340     1.0000 0.86553  0.04707  0.25762  Biso   1.000  C
  C341     1.0000 0.95293  0.81847  0.25762  Biso   1.000  C
  C342     1.0000 0.18153  0.13447  0.25762  Biso   1.000  C
  C343     1.0000 0.57340  0.56240  0.30056  Biso   1.000  C
  C344     1.0000 0.43760  0.01100  0.30056  Biso   1.000  C
  C345     1.0000 0.98900  0.42660  0.30056  Biso   1.000  C
  C346     1.0000 0.24007  0.89573  0.63389  Biso   1.000  C
  C347     1.0000 0.10427  0.34433  0.63389  Biso   1.000  C
  C348     1.0000 0.65567  0.75993  0.63389  Biso   1.000  C
  C349     1.0000 0.90673  0.22907  0.96723  Biso   1.000  C
  C350     1.0000 0.77093  0.67767  0.96723  Biso   1.000  C
  C351     1.0000 0.32233  0.09327  0.96723  Biso   1.000  C
  C352     1.0000 0.42660  0.43760  0.69944  Biso   1.000  C
  C353     1.0000 0.56240  0.98900  0.69944  Biso   1.000  C
  C354     1.0000 0.01100  0.57340  0.69944  Biso   1.000  C
  C355     1.0000 0.09327  0.77093  0.03277  Biso   1.000  C
  C356     1.0000 0.22907  0.32233  0.03277  Biso   1.000  C
  C357     1.0000 0.67767  0.90673  0.03277  Biso   1.000  C
  C358     1.0000 0.75993  0.10427  0.36611  Biso   1.000  C
  C359     1.0000 0.89573  0.65567  0.36611  Biso   1.000  C
  C360     1.0000 0.34433  0.24007  0.36611  Biso   1.000  C
  H181     1.0000 0.62310  0.60040  0.30930  Biso   1.000  H
  H182     1.0000 0.39960  0.02270  0.30930  Biso   1.000  H
  H183     1.0000 0.97730  0.37690  0.30930  Biso   1.000  H
  H184     1.0000 0.28977  0.93373  0.64263  Biso   1.000  H
  H185     1.0000 0.06627  0.35603  0.64263  Biso   1.000  H
  H186     1.0000 0.64397  0.71023  0.64263  Biso   1.000  H
  H187     1.0000 0.95643  0.26707  0.97597  Biso   1.000  H
  H188     1.0000 0.73293  0.68937  0.97597  Biso   1.000  H
  H189     1.0000 0.31063  0.04357  0.97597  Biso   1.000  H
  H190     1.0000 0.37690  0.39960  0.69070  Biso   1.000  H
  H191     1.0000 0.60040  0.97730  0.69070  Biso   1.000  H
  H192     1.0000 0.02270  0.62310  0.69070  Biso   1.000  H
  H193     1.0000 0.04357  0.73293  0.02403  Biso   1.000  H
  H194     1.0000 0.26707  0.31063  0.02403  Biso   1.000  H
  H195     1.0000 0.68937  0.95643  0.02403  Biso   1.000  H
  H196     1.0000 0.71023  0.06627  0.35737  Biso   1.000  H
  H197     1.0000 0.93373  0.64397  0.35737  Biso   1.000  H
  H198     1.0000 0.35603  0.28977  0.35737  Biso   1.000  H
  C361     1.0000 0.58350  0.54410  0.27688  Biso   1.000  C
  C362     1.0000 0.45590  0.03940  0.27688  Biso   1.000  C
  C363     1.0000 0.96060  0.41650  0.27688  Biso   1.000  C
  C364     1.0000 0.25017  0.87743  0.61021  Biso   1.000  C
  C365     1.0000 0.12257  0.37273  0.61021  Biso   1.000  C
  C366     1.0000 0.62727  0.74983  0.61021  Biso   1.000  C
  C367     1.0000 0.91683  0.21077  0.94355  Biso   1.000  C
  C368     1.0000 0.78923  0.70607  0.94355  Biso   1.000  C
  C369     1.0000 0.29393  0.08317  0.94355  Biso   1.000  C
  C370     1.0000 0.41650  0.45590  0.72312  Biso   1.000  C
  C371     1.0000 0.54410  0.96060  0.72312  Biso   1.000  C
  C372     1.0000 0.03940  0.58350  0.72312  Biso   1.000  C
  C373     1.0000 0.08317  0.78923  0.05645  Biso   1.000  C
  C374     1.0000 0.21077  0.29393  0.05645  Biso   1.000  C
  C375     1.0000 0.70607  0.91683  0.05645  Biso   1.000  C
  C376     1.0000 0.74983  0.12257  0.38979  Biso   1.000  C
  C377     1.0000 0.87743  0.62727  0.38979  Biso   1.000  C
  C378     1.0000 0.37273  0.25017  0.38979  Biso   1.000  C
  H199     1.0000 0.63880  0.56860  0.26990  Biso   1.000  H
  H200     1.0000 0.43140  0.07020  0.26990  Biso   1.000  H
  H201     1.0000 0.92980  0.36120  0.26990  Biso   1.000  H
  H202     1.0000 0.30547  0.90193  0.60323  Biso   1.000  H
  H203     1.0000 0.09807  0.40353  0.60323  Biso   1.000  H
  H204     1.0000 0.59647  0.69453  0.60323  Biso   1.000  H
  H205     1.0000 0.97213  0.23527  0.93657  Biso   1.000  H
  H206     1.0000 0.76473  0.73687  0.93657  Biso   1.000  H
  H207     1.0000 0.26313  0.02787  0.93657  Biso   1.000  H
  H208     1.0000 0.36120  0.43140  0.73010  Biso   1.000  H
  H209     1.0000 0.56860  0.92980  0.73010  Biso   1.000  H
  H210     1.0000 0.07020  0.63880  0.73010  Biso   1.000  H
  H211     1.0000 0.02787  0.76473  0.06343  Biso   1.000  H
  H212     1.0000 0.23527  0.26313  0.06343  Biso   1.000  H
  H213     1.0000 0.73687  0.97213  0.06343  Biso   1.000  H
  H214     1.0000 0.69453  0.09807  0.39677  Biso   1.000  H
  H215     1.0000 0.90193  0.59647  0.39677  Biso   1.000  H
  H216     1.0000 0.40353  0.30547  0.39677  Biso   1.000  H
  C379     1.0000 0.43490  0.45900  0.27298  Biso   1.000  C
  C380     1.0000 0.54100  0.97590  0.27298  Biso   1.000  C
  C381     1.0000 0.02410  0.56510  0.27298  Biso   1.000  C
  C382     1.0000 0.10157  0.79233  0.60631  Biso   1.000  C
  C383     1.0000 0.20767  0.30923  0.60631  Biso   1.000  C
  C384     1.0000 0.69077  0.89843  0.60631  Biso   1.000  C
  C385     1.0000 0.76823  0.12567  0.93965  Biso   1.000  C
  C386     1.0000 0.87433  0.64257  0.93965  Biso   1.000  C
  C387     1.0000 0.35743  0.23177  0.93965  Biso   1.000  C
  C388     1.0000 0.56510  0.54100  0.72702  Biso   1.000  C
  C389     1.0000 0.45900  0.02410  0.72702  Biso   1.000  C
  C390     1.0000 0.97590  0.43490  0.72702  Biso   1.000  C
  C391     1.0000 0.23177  0.87433  0.06035  Biso   1.000  C
  C392     1.0000 0.12567  0.35743  0.06035  Biso   1.000  C
  C393     1.0000 0.64257  0.76823  0.06035  Biso   1.000  C
  C394     1.0000 0.89843  0.20767  0.39369  Biso   1.000  C
  C395     1.0000 0.79233  0.69077  0.39369  Biso   1.000  C
  C396     1.0000 0.30923  0.10157  0.39369  Biso   1.000  C
  H217     1.0000 0.38510  0.42460  0.26370  Biso   1.000  H
  H218     1.0000 0.57540  0.96050  0.26370  Biso   1.000  H
  H219     1.0000 0.03950  0.61490  0.26370  Biso   1.000  H
  H220     1.0000 0.05177  0.75793  0.59703  Biso   1.000  H
  H221     1.0000 0.24207  0.29383  0.59703  Biso   1.000  H
  H222     1.0000 0.70617  0.94823  0.59703  Biso   1.000  H
  H223     1.0000 0.71843  0.09127  0.93037  Biso   1.000  H
  H224     1.0000 0.90873  0.62717  0.93037  Biso   1.000  H
  H225     1.0000 0.37283  0.28157  0.93037  Biso   1.000  H
  H226     1.0000 0.61490  0.57540  0.73630  Biso   1.000  H
  H227     1.0000 0.42460  0.03950  0.73630  Biso   1.000  H
  H228     1.0000 0.96050  0.38510  0.73630  Biso   1.000  H
  H229     1.0000 0.28157  0.90873  0.06963  Biso   1.000  H
  H230     1.0000 0.09127  0.37283  0.06963  Biso   1.000  H
  H231     1.0000 0.62717  0.71843  0.06963  Biso   1.000  H
  H232     1.0000 0.94823  0.24207  0.40297  Biso   1.000  H
  H233     1.0000 0.75793  0.70617  0.40297  Biso   1.000  H
  H234     1.0000 0.29383  0.05177  0.40297  Biso   1.000  H
  C397     1.0000 0.42630  0.47800  0.29733  Biso   1.000  C
  C398     1.0000 0.52200  0.94830  0.29733  Biso   1.000  C
  C399     1.0000 0.05170  0.57370  0.29733  Biso   1.000  C
  C400     1.0000 0.09297  0.81133  0.63066  Biso   1.000  C
  C401     1.0000 0.18867  0.28163  0.63066  Biso   1.000  C
  C402     1.0000 0.71837  0.90703  0.63066  Biso   1.000  C
  C403     1.0000 0.75963  0.14467  0.96400  Biso   1.000  C
  C404     1.0000 0.85533  0.61497  0.96400  Biso   1.000  C
  C405     1.0000 0.38503  0.24037  0.96400  Biso   1.000  C
  C406     1.0000 0.57370  0.52200  0.70267  Biso   1.000  C
  C407     1.0000 0.47800  0.05170  0.70267  Biso   1.000  C
  C408     1.0000 0.94830  0.42630  0.70267  Biso   1.000  C
  C409     1.0000 0.24037  0.85533  0.03600  Biso   1.000  C
  C410     1.0000 0.14467  0.38503  0.03600  Biso   1.000  C
  C411     1.0000 0.61497  0.75963  0.03600  Biso   1.000  C
  C412     1.0000 0.90703  0.18867  0.36934  Biso   1.000  C
  C413     1.0000 0.81133  0.71837  0.36934  Biso   1.000  C
  C414     1.0000 0.28163  0.09297  0.36934  Biso   1.000  C
  H235     1.0000 0.37130  0.45570  0.30430  Biso   1.000  H
  H236     1.0000 0.54430  0.91560  0.30430  Biso   1.000  H
  H237     1.0000 0.08440  0.62870  0.30430  Biso   1.000  H
  H238     1.0000 0.03797  0.78903  0.63763  Biso   1.000  H
  H239     1.0000 0.21097  0.24893  0.63763  Biso   1.000  H
  H240     1.0000 0.75107  0.96203  0.63763  Biso   1.000  H
  H241     1.0000 0.70463  0.12237  0.97097  Biso   1.000  H
  H242     1.0000 0.87763  0.58227  0.97097  Biso   1.000  H
  H243     1.0000 0.41773  0.29537  0.97097  Biso   1.000  H
  H244     1.0000 0.62870  0.54430  0.69570  Biso   1.000  H
  H245     1.0000 0.45570  0.08440  0.69570  Biso   1.000  H
  H246     1.0000 0.91560  0.37130  0.69570  Biso   1.000  H
  H247     1.0000 0.29537  0.87763  0.02903  Biso   1.000  H
  H248     1.0000 0.12237  0.41773  0.02903  Biso   1.000  H
  H249     1.0000 0.58227  0.70463  0.02903  Biso   1.000  H
  H250     1.0000 0.96203  0.21097  0.36237  Biso   1.000  H
  H251     1.0000 0.78903  0.75107  0.36237  Biso   1.000  H
  H252     1.0000 0.24893  0.03797  0.36237  Biso   1.000  H
  C415     1.0000 0.50100  0.53110  0.31139  Biso   1.000  C
  C416     1.0000 0.46890  0.96990  0.31139  Biso   1.000  C
  C417     1.0000 0.03010  0.49900  0.31139  Biso   1.000  C
  C418     1.0000 0.16767  0.86443  0.64472  Biso   1.000  C
  C419     1.0000 0.13557  0.30323  0.64472  Biso   1.000  C
  C420     1.0000 0.69677  0.83233  0.64472  Biso   1.000  C
  C421     1.0000 0.83433  0.19777  0.97806  Biso   1.000  C
  C422     1.0000 0.80223  0.63657  0.97806  Biso   1.000  C
  C423     1.0000 0.36343  0.16567  0.97806  Biso   1.000  C
  C424     1.0000 0.49900  0.46890  0.68861  Biso   1.000  C
  C425     1.0000 0.53110  0.03010  0.68861  Biso   1.000  C
  C426     1.0000 0.96990  0.50100  0.68861  Biso   1.000  C
  C427     1.0000 0.16567  0.80223  0.02194  Biso   1.000  C
  C428     1.0000 0.19777  0.36343  0.02194  Biso   1.000  C
  C429     1.0000 0.63657  0.83433  0.02194  Biso   1.000  C
  C430     1.0000 0.83233  0.13557  0.35528  Biso   1.000  C
  C431     1.0000 0.86443  0.69677  0.35528  Biso   1.000  C
  C432     1.0000 0.30323  0.16767  0.35528  Biso   1.000  C
  C433     1.0000 0.43810  0.42420  0.30037  Biso   1.000  C
  C434     1.0000 0.57580  0.01390  0.30037  Biso   1.000  C
  C435     1.0000 0.98610  0.56190  0.30037  Biso   1.000  C
  C436     1.0000 0.10477  0.75753  0.63370  Biso   1.000  C
  C437     1.0000 0.24247  0.34723  0.63370  Biso   1.000  C
  C438     1.0000 0.65277  0.89523  0.63370  Biso   1.000  C
  C439     1.0000 0.77143  0.09087  0.96704  Biso   1.000  C
  C440     1.0000 0.90913  0.68057  0.96704  Biso   1.000  C
  C441     1.0000 0.31943  0.22857  0.96704  Biso   1.000  C
  C442     1.0000 0.56190  0.57580  0.69963  Biso   1.000  C
  C443     1.0000 0.42420  0.98610  0.69963  Biso   1.000  C
  C444     1.0000 0.01390  0.43810  0.69963  Biso   1.000  C
  C445     1.0000 0.22857  0.90913  0.03296  Biso   1.000  C
  C446     1.0000 0.09087  0.31943  0.03296  Biso   1.000  C
  C447     1.0000 0.68057  0.77143  0.03296  Biso   1.000  C
  C448     1.0000 0.89523  0.24247  0.36630  Biso   1.000  C
  C449     1.0000 0.75753  0.65277  0.36630  Biso   1.000  C
  C450     1.0000 0.34723  0.10477  0.36630  Biso   1.000  C
  H253     1.0000 0.40310  0.37490  0.30970  Biso   1.000  H
  H254     1.0000 0.62510  0.02820  0.30970  Biso   1.000  H
  H255     1.0000 0.97180  0.59690  0.30970  Biso   1.000  H
  H256     1.0000 0.06977  0.70823  0.64303  Biso   1.000  H
  H257     1.0000 0.29177  0.36153  0.64303  Biso   1.000  H
  H258     1.0000 0.63847  0.93023  0.64303  Biso   1.000  H
  H259     1.0000 0.73643  0.04157  0.97637  Biso   1.000  H
  H260     1.0000 0.95843  0.69487  0.97637  Biso   1.000  H
  H261     1.0000 0.30513  0.26357  0.97637  Biso   1.000  H
  H262     1.0000 0.59690  0.62510  0.69030  Biso   1.000  H
  H263     1.0000 0.37490  0.97180  0.69030  Biso   1.000  H
  H264     1.0000 0.02820  0.40310  0.69030  Biso   1.000  H
  H265     1.0000 0.26357  0.95843  0.02363  Biso   1.000  H
  H266     1.0000 0.04157  0.30513  0.02363  Biso   1.000  H
  H267     1.0000 0.69487  0.73643  0.02363  Biso   1.000  H
  H268     1.0000 0.93023  0.29177  0.35697  Biso   1.000  H
  H269     1.0000 0.70823  0.63847  0.35697  Biso   1.000  H
  H270     1.0000 0.36153  0.06977  0.35697  Biso   1.000  H
  C451     1.0000 0.46920  0.50480  0.31031  Biso   1.000  C
  C452     1.0000 0.49520  0.96440  0.31031  Biso   1.000  C
  C453     1.0000 0.03560  0.53080  0.31031  Biso   1.000  C
  C454     1.0000 0.13587  0.83813  0.64364  Biso   1.000  C
  C455     1.0000 0.16187  0.29773  0.64364  Biso   1.000  C
  C456     1.0000 0.70227  0.86413  0.64364  Biso   1.000  C
  C457     1.0000 0.80253  0.17147  0.97698  Biso   1.000  C
  C458     1.0000 0.82853  0.63107  0.97698  Biso   1.000  C
  C459     1.0000 0.36893  0.19747  0.97698  Biso   1.000  C
  C460     1.0000 0.53080  0.49520  0.68969  Biso   1.000  C
  C461     1.0000 0.50480  0.03560  0.68969  Biso   1.000  C
  C462     1.0000 0.96440  0.46920  0.68969  Biso   1.000  C
  C463     1.0000 0.19747  0.82853  0.02302  Biso   1.000  C
  C464     1.0000 0.17147  0.36893  0.02302  Biso   1.000  C
  C465     1.0000 0.63107  0.80253  0.02302  Biso   1.000  C
  C466     1.0000 0.86413  0.16187  0.35636  Biso   1.000  C
  C467     1.0000 0.83813  0.70227  0.35636  Biso   1.000  C
  C468     1.0000 0.29773  0.13587  0.35636  Biso   1.000  C
  C469     1.0000 0.52050  0.57690  0.29661  Biso   1.000  C
  C470     1.0000 0.42310  0.94360  0.29661  Biso   1.000  C
  C471     1.0000 0.05640  0.47950  0.29661  Biso   1.000  C
  C472     1.0000 0.18717  0.91023  0.62994  Biso   1.000  C
  C473     1.0000 0.08977  0.27693  0.62994  Biso   1.000  C
  C474     1.0000 0.72307  0.81283  0.62994  Biso   1.000  C
  C475     1.0000 0.85383  0.24357  0.96328  Biso   1.000  C
  C476     1.0000 0.75643  0.61027  0.96328  Biso   1.000  C
  C477     1.0000 0.38973  0.14617  0.96328  Biso   1.000  C
  C478     1.0000 0.47950  0.42310  0.70339  Biso   1.000  C
  C479     1.0000 0.57690  0.05640  0.70339  Biso   1.000  C
  C480     1.0000 0.94360  0.52050  0.70339  Biso   1.000  C
  C481     1.0000 0.14617  0.75643  0.03672  Biso   1.000  C
  C482     1.0000 0.24357  0.38973  0.03672  Biso   1.000  C
  C483     1.0000 0.61027  0.85383  0.03672  Biso   1.000  C
  C484     1.0000 0.81283  0.08977  0.37006  Biso   1.000  C
  C485     1.0000 0.91023  0.72307  0.37006  Biso   1.000  C
  C486     1.0000 0.27693  0.18717  0.37006  Biso   1.000  C
  H271     1.0000 0.54170  0.63200  0.30340  Biso   1.000  H
  H272     1.0000 0.36800  0.90970  0.30340  Biso   1.000  H
  H273     1.0000 0.09030  0.45830  0.30340  Biso   1.000  H
  H274     1.0000 0.20837  0.96533  0.63673  Biso   1.000  H
  H275     1.0000 0.03467  0.24303  0.63673  Biso   1.000  H
  H276     1.0000 0.75697  0.79163  0.63673  Biso   1.000  H
  H277     1.0000 0.87503  0.29867  0.97007  Biso   1.000  H
  H278     1.0000 0.70133  0.57637  0.97007  Biso   1.000  H
  H279     1.0000 0.42363  0.12497  0.97007  Biso   1.000  H
  H280     1.0000 0.45830  0.36800  0.69660  Biso   1.000  H
  H281     1.0000 0.63200  0.09030  0.69660  Biso   1.000  H
  H282     1.0000 0.90970  0.54170  0.69660  Biso   1.000  H
  H283     1.0000 0.12497  0.70133  0.02993  Biso   1.000  H
  H284     1.0000 0.29867  0.42363  0.02993  Biso   1.000  H
  H285     1.0000 0.57637  0.87503  0.02993  Biso   1.000  H
  H286     1.0000 0.79163  0.03467  0.36327  Biso   1.000  H
  H287     1.0000 0.96533  0.75697  0.36327  Biso   1.000  H
  H288     1.0000 0.24303  0.20837  0.36327  Biso   1.000  H
  C487     1.0000 0.54080  0.56840  0.27296  Biso   1.000  C
  C488     1.0000 0.43160  0.97240  0.27296  Biso   1.000  C
  C489     1.0000 0.02760  0.45920  0.27296  Biso   1.000  C
  C490     1.0000 0.20747  0.90173  0.60629  Biso   1.000  C
  C491     1.0000 0.09827  0.30573  0.60629  Biso   1.000  C
  C492     1.0000 0.69427  0.79253  0.60629  Biso   1.000  C
  C493     1.0000 0.87413  0.23507  0.93963  Biso   1.000  C
  C494     1.0000 0.76493  0.63907  0.93963  Biso   1.000  C
  C495     1.0000 0.36093  0.12587  0.93963  Biso   1.000  C
  C496     1.0000 0.45920  0.43160  0.72704  Biso   1.000  C
  C497     1.0000 0.56840  0.02760  0.72704  Biso   1.000  C
  C498     1.0000 0.97240  0.54080  0.72704  Biso   1.000  C
  C499     1.0000 0.12587  0.76493  0.06037  Biso   1.000  C
  C500     1.0000 0.23507  0.36093  0.06037  Biso   1.000  C
  C501     1.0000 0.63907  0.87413  0.06037  Biso   1.000  C
  C502     1.0000 0.79253  0.09827  0.39371  Biso   1.000  C
  C503     1.0000 0.90173  0.69427  0.39371  Biso   1.000  C
  C504     1.0000 0.30573  0.20747  0.39371  Biso   1.000  C
  H289     1.0000 0.57580  0.61770  0.26360  Biso   1.000  H
  H290     1.0000 0.38230  0.95810  0.26360  Biso   1.000  H
  H291     1.0000 0.04190  0.42420  0.26360  Biso   1.000  H
  H292     1.0000 0.24247  0.95103  0.59693  Biso   1.000  H
  H293     1.0000 0.04897  0.29143  0.59693  Biso   1.000  H
  H294     1.0000 0.70857  0.75753  0.59693  Biso   1.000  H
  H295     1.0000 0.90913  0.28437  0.93027  Biso   1.000  H
  H296     1.0000 0.71563  0.62477  0.93027  Biso   1.000  H
  H297     1.0000 0.37523  0.09087  0.93027  Biso   1.000  H
  H298     1.0000 0.42420  0.38230  0.73640  Biso   1.000  H
  H299     1.0000 0.61770  0.04190  0.73640  Biso   1.000  H
  H300     1.0000 0.95810  0.57580  0.73640  Biso   1.000  H
  H301     1.0000 0.09087  0.71563  0.06973  Biso   1.000  H
  H302     1.0000 0.28437  0.37523  0.06973  Biso   1.000  H
  H303     1.0000 0.62477  0.90913  0.06973  Biso   1.000  H
  H304     1.0000 0.75753  0.04897  0.40307  Biso   1.000  H
  H305     1.0000 0.95103  0.70857  0.40307  Biso   1.000  H
  H306     1.0000 0.29143  0.24247  0.40307  Biso   1.000  H
  C505     1.0000 0.45840  0.41560  0.27672  Biso   1.000  C
  C506     1.0000 0.58440  0.04280  0.27672  Biso   1.000  C
  C507     1.0000 0.95720  0.54160  0.27672  Biso   1.000  C
  C508     1.0000 0.12507  0.74893  0.61005  Biso   1.000  C
  C509     1.0000 0.25107  0.37613  0.61005  Biso   1.000  C
  C510     1.0000 0.62387  0.87493  0.61005  Biso   1.000  C
  C511     1.0000 0.79173  0.08227  0.94339  Biso   1.000  C
  C512     1.0000 0.91773  0.70947  0.94339  Biso   1.000  C
  C513     1.0000 0.29053  0.20827  0.94339  Biso   1.000  C
  C514     1.0000 0.54160  0.58440  0.72328  Biso   1.000  C
  C515     1.0000 0.41560  0.95720  0.72328  Biso   1.000  C
  C516     1.0000 0.04280  0.45840  0.72328  Biso   1.000  C
  C517     1.0000 0.20827  0.91773  0.05661  Biso   1.000  C
  C518     1.0000 0.08227  0.29053  0.05661  Biso   1.000  C
  C519     1.0000 0.70947  0.79173  0.05661  Biso   1.000  C
  C520     1.0000 0.87493  0.25107  0.38995  Biso   1.000  C
  C521     1.0000 0.74893  0.62387  0.38995  Biso   1.000  C
  C522     1.0000 0.37613  0.12507  0.38995  Biso   1.000  C
  H307     1.0000 0.43720  0.36050  0.26990  Biso   1.000  H
  H308     1.0000 0.63950  0.07670  0.26990  Biso   1.000  H
  H309     1.0000 0.92330  0.56280  0.26990  Biso   1.000  H
  H310     1.0000 0.10387  0.69383  0.60323  Biso   1.000  H
  H311     1.0000 0.30617  0.41003  0.60323  Biso   1.000  H
  H312     1.0000 0.58997  0.89613  0.60323  Biso   1.000  H
  H313     1.0000 0.77053  0.02717  0.93657  Biso   1.000  H
  H314     1.0000 0.97283  0.74337  0.93657  Biso   1.000  H
  H315     1.0000 0.25663  0.22947  0.93657  Biso   1.000  H
  H316     1.0000 0.56280  0.63950  0.73010  Biso   1.000  H
  H317     1.0000 0.36050  0.92330  0.73010  Biso   1.000  H
  H318     1.0000 0.07670  0.43720  0.73010  Biso   1.000  H
  H319     1.0000 0.22947  0.97283  0.06343  Biso   1.000  H
  H320     1.0000 0.02717  0.25663  0.06343  Biso   1.000  H
  H321     1.0000 0.74337  0.77053  0.06343  Biso   1.000  H
  H322     1.0000 0.89613  0.30617  0.39677  Biso   1.000  H
  H323     1.0000 0.69383  0.58997  0.39677  Biso   1.000  H
  H324     1.0000 0.41003  0.10387  0.39677  Biso   1.000  H
  C523     1.0000 0.50830  0.56460  0.35230  Biso   1.000  C
  C524     1.0000 0.43540  0.94370  0.35230  Biso   1.000  C
  C525     1.0000 0.05630  0.49170  0.35230  Biso   1.000  C
  C526     1.0000 0.17497  0.89793  0.68563  Biso   1.000  C
  C527     1.0000 0.10207  0.27703  0.68563  Biso   1.000  C
  C528     1.0000 0.72297  0.82503  0.68563  Biso   1.000  C
  C529     1.0000 0.84163  0.23127  0.01897  Biso   1.000  C
  C530     1.0000 0.76873  0.61037  0.01897  Biso   1.000  C
  C531     1.0000 0.38963  0.15837  0.01897  Biso   1.000  C
  C532     1.0000 0.49170  0.43540  0.64770  Biso   1.000  C
  C533     1.0000 0.56460  0.05630  0.64770  Biso   1.000  C
  C534     1.0000 0.94370  0.50830  0.64770  Biso   1.000  C
  C535     1.0000 0.15837  0.76873  0.98103  Biso   1.000  C
  C536     1.0000 0.23127  0.38963  0.98103  Biso   1.000  C
  C537     1.0000 0.61037  0.84163  0.98103  Biso   1.000  C
  C538     1.0000 0.82503  0.10207  0.31437  Biso   1.000  C
  C539     1.0000 0.89793  0.72297  0.31437  Biso   1.000  C
  C540     1.0000 0.27703  0.17497  0.31437  Biso   1.000  C
  H325     1.0000 0.56540  0.59810  0.34680  Biso   1.000  H
  H326     1.0000 0.40190  0.96730  0.34680  Biso   1.000  H
  H327     1.0000 0.03270  0.43460  0.34680  Biso   1.000  H
  H328     1.0000 0.23207  0.93143  0.68013  Biso   1.000  H
  H329     1.0000 0.06857  0.30063  0.68013  Biso   1.000  H
  H330     1.0000 0.69937  0.76793  0.68013  Biso   1.000  H
  H331     1.0000 0.89873  0.26477  0.01347  Biso   1.000  H
  H332     1.0000 0.73523  0.63397  0.01347  Biso   1.000  H
  H333     1.0000 0.36603  0.10127  0.01347  Biso   1.000  H
  H334     1.0000 0.43460  0.40190  0.65320  Biso   1.000  H
  H335     1.0000 0.59810  0.03270  0.65320  Biso   1.000  H
  H336     1.0000 0.96730  0.56540  0.65320  Biso   1.000  H
  H337     1.0000 0.10127  0.73523  0.98653  Biso   1.000  H
  H338     1.0000 0.26477  0.36603  0.98653  Biso   1.000  H
  H339     1.0000 0.63397  0.89873  0.98653  Biso   1.000  H
  H340     1.0000 0.76793  0.06857  0.31987  Biso   1.000  H
  H341     1.0000 0.93143  0.69937  0.31987  Biso   1.000  H
  H342     1.0000 0.30063  0.23207  0.31987  Biso   1.000  H
  C541     1.0000 0.48760  0.57210  0.37599  Biso   1.000  C
  C542     1.0000 0.42790  0.91550  0.37599  Biso   1.000  C
  C543     1.0000 0.08450  0.51240  0.37599  Biso   1.000  C
  C544     1.0000 0.15427  0.90543  0.70932  Biso   1.000  C
  C545     1.0000 0.09457  0.24883  0.70932  Biso   1.000  C
  C546     1.0000 0.75117  0.84573  0.70932  Biso   1.000  C
  C547     1.0000 0.82093  0.23877  0.04266  Biso   1.000  C
  C548     1.0000 0.76123  0.58217  0.04266  Biso   1.000  C
  C549     1.0000 0.41783  0.17907  0.04266  Biso   1.000  C
  C550     1.0000 0.51240  0.42790  0.62401  Biso   1.000  C
  C551     1.0000 0.57210  0.08450  0.62401  Biso   1.000  C
  C552     1.0000 0.91550  0.48760  0.62401  Biso   1.000  C
  C553     1.0000 0.17907  0.76123  0.95734  Biso   1.000  C
  C554     1.0000 0.23877  0.41783  0.95734  Biso   1.000  C
  C555     1.0000 0.58217  0.82093  0.95734  Biso   1.000  C
  C556     1.0000 0.84573  0.09457  0.29068  Biso   1.000  C
  C557     1.0000 0.90543  0.75117  0.29068  Biso   1.000  C
  C558     1.0000 0.24883  0.15427  0.29068  Biso   1.000  C
  H343     1.0000 0.53060  0.61080  0.38670  Biso   1.000  H
  H344     1.0000 0.38920  0.91980  0.38670  Biso   1.000  H
  H345     1.0000 0.08020  0.46940  0.38670  Biso   1.000  H
  H346     1.0000 0.19727  0.94413  0.72003  Biso   1.000  H
  H347     1.0000 0.05587  0.25313  0.72003  Biso   1.000  H
  H348     1.0000 0.74687  0.80273  0.72003  Biso   1.000  H
  H349     1.0000 0.86393  0.27747  0.05337  Biso   1.000  H
  H350     1.0000 0.72253  0.58647  0.05337  Biso   1.000  H
  H351     1.0000 0.41353  0.13607  0.05337  Biso   1.000  H
  H352     1.0000 0.46940  0.38920  0.61330  Biso   1.000  H
  H353     1.0000 0.61080  0.08020  0.61330  Biso   1.000  H
  H354     1.0000 0.91980  0.53060  0.61330  Biso   1.000  H
  H355     1.0000 0.13607  0.72253  0.94663  Biso   1.000  H
  H356     1.0000 0.27747  0.41353  0.94663  Biso   1.000  H
  H357     1.0000 0.58647  0.86393  0.94663  Biso   1.000  H
  H358     1.0000 0.80273  0.05587  0.27997  Biso   1.000  H
  H359     1.0000 0.94413  0.74687  0.27997  Biso   1.000  H
  H360     1.0000 0.25313  0.19727  0.27997  Biso   1.000  H
  C559     1.0000 0.40410  0.52300  0.38403  Biso   1.000  C
  C560     1.0000 0.47700  0.88110  0.38403  Biso   1.000  C
  C561     1.0000 0.11890  0.59590  0.38403  Biso   1.000  C
  C562     1.0000 0.07077  0.85633  0.71736  Biso   1.000  C
  C563     1.0000 0.14367  0.21443  0.71736  Biso   1.000  C
  C564     1.0000 0.78557  0.92923  0.71736  Biso   1.000  C
  C565     1.0000 0.73743  0.18967  0.05070  Biso   1.000  C
  C566     1.0000 0.81033  0.54777  0.05070  Biso   1.000  C
  C567     1.0000 0.45223  0.26257  0.05070  Biso   1.000  C
  C568     1.0000 0.59590  0.47700  0.61597  Biso   1.000  C
  C569     1.0000 0.52300  0.11890  0.61597  Biso   1.000  C
  C570     1.0000 0.88110  0.40410  0.61597  Biso   1.000  C
  C571     1.0000 0.26257  0.81033  0.94930  Biso   1.000  C
  C572     1.0000 0.18967  0.45223  0.94930  Biso   1.000  C
  C573     1.0000 0.54777  0.73743  0.94930  Biso   1.000  C
  C574     1.0000 0.92923  0.14367  0.28264  Biso   1.000  C
  C575     1.0000 0.85633  0.78557  0.28264  Biso   1.000  C
  C576     1.0000 0.21443  0.07077  0.28264  Biso   1.000  C
  C577     1.0000 0.34120  0.46650  0.36837  Biso   1.000  C
  C578     1.0000 0.53350  0.87470  0.36837  Biso   1.000  C
  C579     1.0000 0.12530  0.65880  0.36837  Biso   1.000  C
  C580     1.0000 0.00787  0.79983  0.70170  Biso   1.000  C
  C581     1.0000 0.20017  0.20803  0.70170  Biso   1.000  C
  C582     1.0000 0.79197  0.99213  0.70170  Biso   1.000  C
  C583     1.0000 0.67453  0.13317  0.03504  Biso   1.000  C
  C584     1.0000 0.86683  0.54137  0.03504  Biso   1.000  C
  C585     1.0000 0.45863  0.32547  0.03504  Biso   1.000  C
  C586     1.0000 0.65880  0.53350  0.63163  Biso   1.000  C
  C587     1.0000 0.46650  0.12530  0.63163  Biso   1.000  C
  C588     1.0000 0.87470  0.34120  0.63163  Biso   1.000  C
  C589     1.0000 0.32547  0.86683  0.96496  Biso   1.000  C
  C590     1.0000 0.13317  0.45863  0.96496  Biso   1.000  C
  C591     1.0000 0.54137  0.67453  0.96496  Biso   1.000  C
  C592     1.0000 0.99213  0.20017  0.29830  Biso   1.000  C
  C593     1.0000 0.79983  0.79197  0.29830  Biso   1.000  C
  C594     1.0000 0.20803  0.00787  0.29830  Biso   1.000  C
  H361     1.0000 0.28410  0.43290  0.37390  Biso   1.000  H
  H362     1.0000 0.56710  0.85120  0.37390  Biso   1.000  H
  H363     1.0000 0.14880  0.71590  0.37390  Biso   1.000  H
  H364     1.0000 0.95077  0.76623  0.70723  Biso   1.000  H
  H365     1.0000 0.23377  0.18453  0.70723  Biso   1.000  H
  H366     1.0000 0.81547  0.04923  0.70723  Biso   1.000  H
  H367     1.0000 0.61743  0.09957  0.04057  Biso   1.000  H
  H368     1.0000 0.90043  0.51787  0.04057  Biso   1.000  H
  H369     1.0000 0.48213  0.38257  0.04057  Biso   1.000  H
  H370     1.0000 0.71590  0.56710  0.62610  Biso   1.000  H
  H371     1.0000 0.43290  0.14880  0.62610  Biso   1.000  H
  H372     1.0000 0.85120  0.28410  0.62610  Biso   1.000  H
  H373     1.0000 0.38257  0.90043  0.95943  Biso   1.000  H
  H374     1.0000 0.09957  0.48213  0.95943  Biso   1.000  H
  H375     1.0000 0.51787  0.61743  0.95943  Biso   1.000  H
  H376     1.0000 0.04923  0.23377  0.29277  Biso   1.000  H
  H377     1.0000 0.76623  0.81547  0.29277  Biso   1.000  H
  H378     1.0000 0.18453  0.95077  0.29277  Biso   1.000  H
  C595     1.0000 0.36190  0.45900  0.34468  Biso   1.000  C
  C596     1.0000 0.54100  0.90290  0.34468  Biso   1.000  C
  C597     1.0000 0.09710  0.63810  0.34468  Biso   1.000  C
  C598     1.0000 0.02857  0.79233  0.67801  Biso   1.000  C
  C599     1.0000 0.20767  0.23623  0.67801  Biso   1.000  C
  C600     1.0000 0.76377  0.97143  0.67801  Biso   1.000  C
  C601     1.0000 0.69523  0.12567  0.01135  Biso   1.000  C
  C602     1.0000 0.87433  0.56957  0.01135  Biso   1.000  C
  C603     1.0000 0.43043  0.30477  0.01135  Biso   1.000  C
  C604     1.0000 0.63810  0.54100  0.65532  Biso   1.000  C
  C605     1.0000 0.45900  0.09710  0.65532  Biso   1.000  C
  C606     1.0000 0.90290  0.36190  0.65532  Biso   1.000  C
  C607     1.0000 0.30477  0.87433  0.98865  Biso   1.000  C
  C608     1.0000 0.12567  0.43043  0.98865  Biso   1.000  C
  C609     1.0000 0.56957  0.69523  0.98865  Biso   1.000  C
  C610     1.0000 0.97143  0.20767  0.32199  Biso   1.000  C
  C611     1.0000 0.79233  0.76377  0.32199  Biso   1.000  C
  C612     1.0000 0.23623  0.02857  0.32199  Biso   1.000  C
  H379     1.0000 0.31890  0.42030  0.33400  Biso   1.000  H
  H380     1.0000 0.57970  0.89860  0.33400  Biso   1.000  H
  H381     1.0000 0.10140  0.68110  0.33400  Biso   1.000  H
  H382     1.0000 0.98557  0.75363  0.66733  Biso   1.000  H
  H383     1.0000 0.24637  0.23193  0.66733  Biso   1.000  H
  H384     1.0000 0.76807  0.01443  0.66733  Biso   1.000  H
  H385     1.0000 0.65223  0.08697  0.00067  Biso   1.000  H
  H386     1.0000 0.91303  0.56527  0.00067  Biso   1.000  H
  H387     1.0000 0.43473  0.34777  0.00067  Biso   1.000  H
  H388     1.0000 0.68110  0.57970  0.66600  Biso   1.000  H
  H389     1.0000 0.42030  0.10140  0.66600  Biso   1.000  H
  H390     1.0000 0.89860  0.31890  0.66600  Biso   1.000  H
  H391     1.0000 0.34777  0.91303  0.99933  Biso   1.000  H
  H392     1.0000 0.08697  0.43473  0.99933  Biso   1.000  H
  H393     1.0000 0.56527  0.65223  0.99933  Biso   1.000  H
  H394     1.0000 0.01443  0.24637  0.33267  Biso   1.000  H
  H395     1.0000 0.75363  0.76807  0.33267  Biso   1.000  H
  H396     1.0000 0.23193  0.98557  0.33267  Biso   1.000  H
  C613     1.0000 0.44540  0.50800  0.33664  Biso   1.000  C
  C614     1.0000 0.49200  0.93740  0.33664  Biso   1.000  C
  C615     1.0000 0.06260  0.55460  0.33664  Biso   1.000  C
  C616     1.0000 0.11207  0.84133  0.66997  Biso   1.000  C
  C617     1.0000 0.15867  0.27073  0.66997  Biso   1.000  C
  C618     1.0000 0.72927  0.88793  0.66997  Biso   1.000  C
  C619     1.0000 0.77873  0.17467  0.00331  Biso   1.000  C
  C620     1.0000 0.82533  0.60407  0.00331  Biso   1.000  C
  C621     1.0000 0.39593  0.22127  0.00331  Biso   1.000  C
  C622     1.0000 0.55460  0.49200  0.66336  Biso   1.000  C
  C623     1.0000 0.50800  0.06260  0.66336  Biso   1.000  C
  C624     1.0000 0.93740  0.44540  0.66336  Biso   1.000  C
  C625     1.0000 0.22127  0.82533  0.99669  Biso   1.000  C
  C626     1.0000 0.17467  0.39593  0.99669  Biso   1.000  C
  C627     1.0000 0.60407  0.77873  0.99669  Biso   1.000  C
  C628     1.0000 0.88793  0.15867  0.33003  Biso   1.000  C
  C629     1.0000 0.84133  0.72927  0.33003  Biso   1.000  C
  C630     1.0000 0.27073  0.11207  0.33003  Biso   1.000  C
  C631     1.0000 0.43370  0.54040  0.42810  Biso   1.000  C
  C632     1.0000 0.45960  0.89330  0.42810  Biso   1.000  C
  C633     1.0000 0.10670  0.56630  0.42810  Biso   1.000  C
  C634     1.0000 0.10037  0.87373  0.76143  Biso   1.000  C
  C635     1.0000 0.12627  0.22663  0.76143  Biso   1.000  C
  C636     1.0000 0.77337  0.89963  0.76143  Biso   1.000  C
  C637     1.0000 0.76703  0.20707  0.09477  Biso   1.000  C
  C638     1.0000 0.79293  0.55997  0.09477  Biso   1.000  C
  C639     1.0000 0.44003  0.23297  0.09477  Biso   1.000  C
  C640     1.0000 0.56630  0.45960  0.57190  Biso   1.000  C
  C641     1.0000 0.54040  0.10670  0.57190  Biso   1.000  C
  C642     1.0000 0.89330  0.43370  0.57190  Biso   1.000  C
  C643     1.0000 0.23297  0.79293  0.90523  Biso   1.000  C
  C644     1.0000 0.20707  0.44003  0.90523  Biso   1.000  C
  C645     1.0000 0.55997  0.76703  0.90523  Biso   1.000  C
  C646     1.0000 0.89963  0.12627  0.23857  Biso   1.000  C
  C647     1.0000 0.87373  0.77337  0.23857  Biso   1.000  C
  C648     1.0000 0.22663  0.10037  0.23857  Biso   1.000  C
  H397     1.0000 0.48510  0.54000  0.42510  Biso   1.000  H
  H398     1.0000 0.46000  0.94510  0.42510  Biso   1.000  H
  H399     1.0000 0.05490  0.51490  0.42510  Biso   1.000  H
  H400     1.0000 0.15177  0.87333  0.75843  Biso   1.000  H
  H401     1.0000 0.12667  0.27843  0.75843  Biso   1.000  H
  H402     1.0000 0.72157  0.84823  0.75843  Biso   1.000  H
  H403     1.0000 0.81843  0.20667  0.09177  Biso   1.000  H
  H404     1.0000 0.79333  0.61177  0.09177  Biso   1.000  H
  H405     1.0000 0.38823  0.18157  0.09177  Biso   1.000  H
  H406     1.0000 0.51490  0.46000  0.57490  Biso   1.000  H
  H407     1.0000 0.54000  0.05490  0.57490  Biso   1.000  H
  H408     1.0000 0.94510  0.48510  0.57490  Biso   1.000  H
  H409     1.0000 0.18157  0.79333  0.90823  Biso   1.000  H
  H410     1.0000 0.20667  0.38823  0.90823  Biso   1.000  H
  H411     1.0000 0.61177  0.81843  0.90823  Biso   1.000  H
  H412     1.0000 0.84823  0.12667  0.24157  Biso   1.000  H
  H413     1.0000 0.87333  0.72157  0.24157  Biso   1.000  H
  H414     1.0000 0.27843  0.15177  0.24157  Biso   1.000  H
  N37      1.0000 0.41170  0.54890  0.45155  Biso   1.000  N
  N38      1.0000 0.45110  0.86280  0.45155  Biso   1.000  N
  N39      1.0000 0.13720  0.58830  0.45155  Biso   1.000  N
  N40      1.0000 0.07837  0.88223  0.78488  Biso   1.000  N
  N41      1.0000 0.11777  0.19613  0.78488  Biso   1.000  N
  N42      1.0000 0.80387  0.92163  0.78488  Biso   1.000  N
  N43      1.0000 0.74503  0.21557  0.11822  Biso   1.000  N
  N44      1.0000 0.78443  0.52947  0.11822  Biso   1.000  N
  N45      1.0000 0.47053  0.25497  0.11822  Biso   1.000  N
  N46      1.0000 0.58830  0.45110  0.54845  Biso   1.000  N
  N47      1.0000 0.54890  0.13720  0.54845  Biso   1.000  N
  N48      1.0000 0.86280  0.41170  0.54845  Biso   1.000  N
  N49      1.0000 0.25497  0.78443  0.88178  Biso   1.000  N
  N50      1.0000 0.21557  0.47053  0.88178  Biso   1.000  N
  N51      1.0000 0.52947  0.74503  0.88178  Biso   1.000  N
  N52      1.0000 0.92163  0.11777  0.21512  Biso   1.000  N
  N53      1.0000 0.88223  0.80387  0.21512  Biso   1.000  N
  N54      1.0000 0.19613  0.07837  0.21512  Biso   1.000  N
  C649     1.0000 0.33640  0.54950  0.45592  Biso   1.000  C
  C650     1.0000 0.45050  0.78690  0.45592  Biso   1.000  C
  C651     1.0000 0.21310  0.66360  0.45592  Biso   1.000  C
  C652     1.0000 0.00307  0.88283  0.78925  Biso   1.000  C
  C653     1.0000 0.11717  0.12023  0.78925  Biso   1.000  C
  C654     1.0000 0.87977  0.99693  0.78925  Biso   1.000  C
  C655     1.0000 0.66973  0.21617  0.12259  Biso   1.000  C
  C656     1.0000 0.78383  0.45357  0.12259  Biso   1.000  C
  C657     1.0000 0.54643  0.33027  0.12259  Biso   1.000  C
  C658     1.0000 0.66360  0.45050  0.54408  Biso   1.000  C
  C659     1.0000 0.54950  0.21310  0.54408  Biso   1.000  C
  C660     1.0000 0.78690  0.33640  0.54408  Biso   1.000  C
  C661     1.0000 0.33027  0.78383  0.87741  Biso   1.000  C
  C662     1.0000 0.21617  0.54643  0.87741  Biso   1.000  C
  C663     1.0000 0.45357  0.66973  0.87741  Biso   1.000  C
  C664     1.0000 0.99693  0.11717  0.21075  Biso   1.000  C
  C665     1.0000 0.88283  0.87977  0.21075  Biso   1.000  C
  C666     1.0000 0.12023  0.00307  0.21075  Biso   1.000  C
  H415     1.0000 0.32140  0.55530  0.47190  Biso   1.000  H
  H416     1.0000 0.44470  0.76610  0.47190  Biso   1.000  H
  H417     1.0000 0.23390  0.67860  0.47190  Biso   1.000  H
  H418     1.0000 0.98807  0.88863  0.80523  Biso   1.000  H
  H419     1.0000 0.11137  0.09943  0.80523  Biso   1.000  H
  H420     1.0000 0.90057  0.01193  0.80523  Biso   1.000  H
  H421     1.0000 0.65473  0.22197  0.13857  Biso   1.000  H
  H422     1.0000 0.77803  0.43277  0.13857  Biso   1.000  H
  H423     1.0000 0.56723  0.34527  0.13857  Biso   1.000  H
  H424     1.0000 0.67860  0.44470  0.52810  Biso   1.000  H
  H425     1.0000 0.55530  0.23390  0.52810  Biso   1.000  H
  H426     1.0000 0.76610  0.32140  0.52810  Biso   1.000  H
  H427     1.0000 0.34527  0.77803  0.86143  Biso   1.000  H
  H428     1.0000 0.22197  0.56723  0.86143  Biso   1.000  H
  H429     1.0000 0.43277  0.65473  0.86143  Biso   1.000  H
  H430     1.0000 0.01193  0.11137  0.19477  Biso   1.000  H
  H431     1.0000 0.88863  0.90057  0.19477  Biso   1.000  H
  H432     1.0000 0.09943  0.98807  0.19477  Biso   1.000  H
  N55      1.0000 0.28310  0.54160  0.43683  Biso   1.000  N
  N56      1.0000 0.45840  0.74150  0.43683  Biso   1.000  N
  N57      1.0000 0.25850  0.71690  0.43683  Biso   1.000  N
  N58      1.0000 0.94977  0.87493  0.77016  Biso   1.000  N
  N59      1.0000 0.12507  0.07483  0.77016  Biso   1.000  N
  N60      1.0000 0.92517  0.05023  0.77016  Biso   1.000  N
  N61      1.0000 0.61643  0.20827  0.10350  Biso   1.000  N
  N62      1.0000 0.79173  0.40817  0.10350  Biso   1.000  N
  N63      1.0000 0.59183  0.38357  0.10350  Biso   1.000  N
  N64      1.0000 0.71690  0.45840  0.56317  Biso   1.000  N
  N65      1.0000 0.54160  0.25850  0.56317  Biso   1.000  N
  N66      1.0000 0.74150  0.28310  0.56317  Biso   1.000  N
  N67      1.0000 0.38357  0.79173  0.89650  Biso   1.000  N
  N68      1.0000 0.20827  0.59183  0.89650  Biso   1.000  N
  N69      1.0000 0.40817  0.61643  0.89650  Biso   1.000  N
  N70      1.0000 0.05023  0.12507  0.22984  Biso   1.000  N
  N71      1.0000 0.87493  0.92517  0.22984  Biso   1.000  N
  N72      1.0000 0.07483  0.94977  0.22984  Biso   1.000  N
  H433     1.0000 0.23550  0.54190  0.43960  Biso   1.000  H
  H434     1.0000 0.45810  0.69360  0.43960  Biso   1.000  H
  H435     1.0000 0.30640  0.76450  0.43960  Biso   1.000  H
  H436     1.0000 0.90217  0.87523  0.77293  Biso   1.000  H
  H437     1.0000 0.12477  0.02693  0.77293  Biso   1.000  H
  H438     1.0000 0.97307  0.09783  0.77293  Biso   1.000  H
  H439     1.0000 0.56883  0.20857  0.10627  Biso   1.000  H
  H440     1.0000 0.79143  0.36027  0.10627  Biso   1.000  H
  H441     1.0000 0.63973  0.43117  0.10627  Biso   1.000  H
  H442     1.0000 0.76450  0.45810  0.56040  Biso   1.000  H
  H443     1.0000 0.54190  0.30640  0.56040  Biso   1.000  H
  H444     1.0000 0.69360  0.23550  0.56040  Biso   1.000  H
  H445     1.0000 0.43117  0.79143  0.89373  Biso   1.000  H
  H446     1.0000 0.20857  0.63973  0.89373  Biso   1.000  H
  H447     1.0000 0.36027  0.56883  0.89373  Biso   1.000  H
  H448     1.0000 0.09783  0.12477  0.22707  Biso   1.000  H
  H449     1.0000 0.87523  0.97307  0.22707  Biso   1.000  H
  H450     1.0000 0.02693  0.90217  0.22707  Biso   1.000  H
  C667     1.0000 0.30510  0.53310  0.41337  Biso   1.000  C
  C668     1.0000 0.46690  0.77200  0.41337  Biso   1.000  C
  C669     1.0000 0.22800  0.69490  0.41337  Biso   1.000  C
  C670     1.0000 0.97177  0.86643  0.74670  Biso   1.000  C
  C671     1.0000 0.13357  0.10533  0.74670  Biso   1.000  C
  C672     1.0000 0.89467  0.02823  0.74670  Biso   1.000  C
  C673     1.0000 0.63843  0.19977  0.08004  Biso   1.000  C
  C674     1.0000 0.80023  0.43867  0.08004  Biso   1.000  C
  C675     1.0000 0.56133  0.36157  0.08004  Biso   1.000  C
  C676     1.0000 0.69490  0.46690  0.58663  Biso   1.000  C
  C677     1.0000 0.53310  0.22800  0.58663  Biso   1.000  C
  C678     1.0000 0.77200  0.30510  0.58663  Biso   1.000  C
  C679     1.0000 0.36157  0.80023  0.91996  Biso   1.000  C
  C680     1.0000 0.19977  0.56133  0.91996  Biso   1.000  C
  C681     1.0000 0.43867  0.63843  0.91996  Biso   1.000  C
  C682     1.0000 0.02823  0.13357  0.25330  Biso   1.000  C
  C683     1.0000 0.86643  0.89467  0.25330  Biso   1.000  C
  C684     1.0000 0.10533  0.97177  0.25330  Biso   1.000  C
  H451     1.0000 0.26870  0.52770  0.40030  Biso   1.000  H
  H452     1.0000 0.47230  0.74100  0.40030  Biso   1.000  H
  H453     1.0000 0.25900  0.73130  0.40030  Biso   1.000  H
  H454     1.0000 0.93537  0.86103  0.73363  Biso   1.000  H
  H455     1.0000 0.13897  0.07433  0.73363  Biso   1.000  H
  H456     1.0000 0.92567  0.06463  0.73363  Biso   1.000  H
  H457     1.0000 0.60203  0.19437  0.06697  Biso   1.000  H
  H458     1.0000 0.80563  0.40767  0.06697  Biso   1.000  H
  H459     1.0000 0.59233  0.39797  0.06697  Biso   1.000  H
  H460     1.0000 0.73130  0.47230  0.59970  Biso   1.000  H
  H461     1.0000 0.52770  0.25900  0.59970  Biso   1.000  H
  H462     1.0000 0.74100  0.26870  0.59970  Biso   1.000  H
  H463     1.0000 0.39797  0.80563  0.93303  Biso   1.000  H
  H464     1.0000 0.19437  0.59233  0.93303  Biso   1.000  H
  H465     1.0000 0.40767  0.60203  0.93303  Biso   1.000  H
  H466     1.0000 0.06463  0.13897  0.26637  Biso   1.000  H
  H467     1.0000 0.86103  0.92567  0.26637  Biso   1.000  H
  H468     1.0000 0.07433  0.93537  0.26637  Biso   1.000  H
  C685     1.0000 0.38040  0.53250  0.40901  Biso   1.000  C
  C686     1.0000 0.46750  0.84790  0.40901  Biso   1.000  C
  C687     1.0000 0.15210  0.61960  0.40901  Biso   1.000  C
  C688     1.0000 0.04707  0.86583  0.74234  Biso   1.000  C
  C689     1.0000 0.13417  0.18123  0.74234  Biso   1.000  C
  C690     1.0000 0.81877  0.95293  0.74234  Biso   1.000  C
  C691     1.0000 0.71373  0.19917  0.07568  Biso   1.000  C
  C692     1.0000 0.80083  0.51457  0.07568  Biso   1.000  C
  C693     1.0000 0.48543  0.28627  0.07568  Biso   1.000  C
  C694     1.0000 0.61960  0.46750  0.59099  Biso   1.000  C
  C695     1.0000 0.53250  0.15210  0.59099  Biso   1.000  C
  C696     1.0000 0.84790  0.38040  0.59099  Biso   1.000  C
  C697     1.0000 0.28627  0.80083  0.92432  Biso   1.000  C
  C698     1.0000 0.19917  0.48543  0.92432  Biso   1.000  C
  C699     1.0000 0.51457  0.71373  0.92432  Biso   1.000  C
  C700     1.0000 0.95293  0.13417  0.25766  Biso   1.000  C
  C701     1.0000 0.86583  0.81877  0.25766  Biso   1.000  C
  C702     1.0000 0.18123  0.04707  0.25766  Biso   1.000  C
  H469     1.0000 0.45870  0.76480  0.43960  Biso   1.000  H
  H470     1.0000 0.23520  0.69390  0.43960  Biso   1.000  H
  H471     1.0000 0.30610  0.54130  0.43960  Biso   1.000  H
  H472     1.0000 0.12537  0.09813  0.77293  Biso   1.000  H
  H473     1.0000 0.90187  0.02723  0.77293  Biso   1.000  H
  H474     1.0000 0.97277  0.87463  0.77293  Biso   1.000  H
  H475     1.0000 0.79203  0.43147  0.10627  Biso   1.000  H
  H476     1.0000 0.56853  0.36057  0.10627  Biso   1.000  H
  H477     1.0000 0.63943  0.20797  0.10627  Biso   1.000  H
  H478     1.0000 0.54130  0.23520  0.56040  Biso   1.000  H
  H479     1.0000 0.76480  0.30610  0.56040  Biso   1.000  H
  H480     1.0000 0.69390  0.45870  0.56040  Biso   1.000  H
  H481     1.0000 0.20797  0.56853  0.89373  Biso   1.000  H
  H482     1.0000 0.43147  0.63943  0.89373  Biso   1.000  H
  H483     1.0000 0.36057  0.79203  0.89373  Biso   1.000  H
  H484     1.0000 0.87463  0.90187  0.22707  Biso   1.000  H
  H485     1.0000 0.09813  0.97277  0.22707  Biso   1.000  H
  H486     1.0000 0.02723  0.12537  0.22707  Biso   1.000  H
