data_image0
_cell_length_a       17.9877
_cell_length_b       17.9877
_cell_length_c       72.1623
_cell_angle_alpha    90
_cell_angle_beta     90
_cell_angle_gamma    120

_symmetry_space_group_name_H-M    "P 1"
_symmetry_int_tables_number       1

loop_
  _symmetry_equiv_pos_as_xyz
  'x, y, z'

loop_
  _atom_site_label
  _atom_site_occupancy
  _atom_site_fract_x
  _atom_site_fract_y
  _atom_site_fract_z
  _atom_site_thermal_displace_type
  _atom_site_B_iso_or_equiv
  _atom_site_type_symbol
  Cu1      1.0000 0.21207  0.38769  0.56914  Biso   1.000  Cu
  Cu2      1.0000 0.61231  0.82438  0.56914  Biso   1.000  Cu
  Cu3      1.0000 0.17562  0.78793  0.56914  Biso   1.000  Cu
  Cu4      1.0000 0.38769  0.21207  0.93086  Biso   1.000  Cu
  Cu5      1.0000 0.82438  0.61231  0.93086  Biso   1.000  Cu
  Cu6      1.0000 0.78793  0.17562  0.93086  Biso   1.000  Cu
  Cu7      1.0000 0.87874  0.72102  0.90247  Biso   1.000  Cu
  Cu8      1.0000 0.27898  0.15771  0.90247  Biso   1.000  Cu
  Cu9      1.0000 0.84229  0.12126  0.90247  Biso   1.000  Cu
  Cu10     1.0000 0.05436  0.54540  0.26419  Biso   1.000  Cu
  Cu11     1.0000 0.49105  0.94564  0.26419  Biso   1.000  Cu
  Cu12     1.0000 0.45460  0.50895  0.26419  Biso   1.000  Cu
  Cu13     1.0000 0.54540  0.05436  0.23581  Biso   1.000  Cu
  Cu14     1.0000 0.94564  0.49105  0.23581  Biso   1.000  Cu
  Cu15     1.0000 0.50895  0.45460  0.23581  Biso   1.000  Cu
  Cu16     1.0000 0.72102  0.87874  0.59753  Biso   1.000  Cu
  Cu17     1.0000 0.15771  0.27898  0.59753  Biso   1.000  Cu
  Cu18     1.0000 0.12126  0.84229  0.59753  Biso   1.000  Cu
  Cu19     1.0000 0.78793  0.61231  0.43086  Biso   1.000  Cu
  Cu20     1.0000 0.38769  0.17562  0.43086  Biso   1.000  Cu
  Cu21     1.0000 0.82438  0.21207  0.43086  Biso   1.000  Cu
  Cu22     1.0000 0.61231  0.78793  0.06914  Biso   1.000  Cu
  Cu23     1.0000 0.17562  0.38769  0.06914  Biso   1.000  Cu
  Cu24     1.0000 0.21207  0.82438  0.06914  Biso   1.000  Cu
  Cu25     1.0000 0.45460  0.94564  0.76419  Biso   1.000  Cu
  Cu26     1.0000 0.05436  0.50895  0.76419  Biso   1.000  Cu
  Cu27     1.0000 0.49105  0.54540  0.76419  Biso   1.000  Cu
  Cu28     1.0000 0.27898  0.12126  0.40247  Biso   1.000  Cu
  Cu29     1.0000 0.84229  0.72102  0.40247  Biso   1.000  Cu
  Cu30     1.0000 0.87874  0.15771  0.40247  Biso   1.000  Cu
  Cu31     1.0000 0.12126  0.27898  0.09753  Biso   1.000  Cu
  Cu32     1.0000 0.72102  0.84229  0.09753  Biso   1.000  Cu
  Cu33     1.0000 0.15771  0.87874  0.09753  Biso   1.000  Cu
  Cu34     1.0000 0.94564  0.45460  0.73581  Biso   1.000  Cu
  Cu35     1.0000 0.50895  0.05436  0.73581  Biso   1.000  Cu
  Cu36     1.0000 0.54540  0.49105  0.73581  Biso   1.000  Cu
  N1       1.0000 0.59875  0.46038  0.71184  Biso   1.000  N
  N2       1.0000 0.53962  0.13837  0.71184  Biso   1.000  N
  N3       1.0000 0.86163  0.40125  0.71184  Biso   1.000  N
  N4       1.0000 0.46038  0.59875  0.78816  Biso   1.000  N
  N5       1.0000 0.13837  0.53962  0.78816  Biso   1.000  N
  N6       1.0000 0.40125  0.86163  0.78816  Biso   1.000  N
  N7       1.0000 0.26542  0.79371  0.04517  Biso   1.000  N
  N8       1.0000 0.20629  0.47170  0.04517  Biso   1.000  N
  N9       1.0000 0.52830  0.73458  0.04517  Biso   1.000  N
  N10      1.0000 0.12705  0.93208  0.12149  Biso   1.000  N
  N11      1.0000 0.80504  0.87295  0.12149  Biso   1.000  N
  N12      1.0000 0.06792  0.19496  0.12149  Biso   1.000  N
  N13      1.0000 0.93208  0.12705  0.37851  Biso   1.000  N
  N14      1.0000 0.87295  0.80504  0.37851  Biso   1.000  N
  N15      1.0000 0.19496  0.06792  0.37851  Biso   1.000  N
  N16      1.0000 0.79371  0.26542  0.45483  Biso   1.000  N
  N17      1.0000 0.47170  0.20629  0.45483  Biso   1.000  N
  N18      1.0000 0.73458  0.52830  0.45483  Biso   1.000  N
  N19      1.0000 0.40125  0.53962  0.28816  Biso   1.000  N
  N20      1.0000 0.46038  0.86163  0.28816  Biso   1.000  N
  N21      1.0000 0.13837  0.59875  0.28816  Biso   1.000  N
  N22      1.0000 0.53962  0.40125  0.21184  Biso   1.000  N
  N23      1.0000 0.86163  0.46038  0.21184  Biso   1.000  N
  N24      1.0000 0.59875  0.13837  0.21184  Biso   1.000  N
  N25      1.0000 0.06792  0.87295  0.62149  Biso   1.000  N
  N26      1.0000 0.12705  0.19496  0.62149  Biso   1.000  N
  N27      1.0000 0.80504  0.93208  0.62149  Biso   1.000  N
  N28      1.0000 0.20629  0.73458  0.54517  Biso   1.000  N
  N29      1.0000 0.52830  0.79371  0.54517  Biso   1.000  N
  N30      1.0000 0.26542  0.47170  0.54517  Biso   1.000  N
  N31      1.0000 0.73458  0.20629  0.95483  Biso   1.000  N
  N32      1.0000 0.79371  0.52830  0.95483  Biso   1.000  N
  N33      1.0000 0.47170  0.26542  0.95483  Biso   1.000  N
  N34      1.0000 0.87295  0.06792  0.87851  Biso   1.000  N
  N35      1.0000 0.19496  0.12705  0.87851  Biso   1.000  N
  N36      1.0000 0.93208  0.80504  0.87851  Biso   1.000  N
  C1       1.0000 0.67118  0.45606  0.71178  Biso   1.000  C
  C2       1.0000 0.54394  0.21512  0.71178  Biso   1.000  C
  C3       1.0000 0.78488  0.32882  0.71178  Biso   1.000  C
  C4       1.0000 0.45606  0.67118  0.78822  Biso   1.000  C
  C5       1.0000 0.21512  0.54394  0.78822  Biso   1.000  C
  C6       1.0000 0.32882  0.78488  0.78822  Biso   1.000  C
  C7       1.0000 0.33785  0.78939  0.04511  Biso   1.000  C
  C8       1.0000 0.21061  0.54845  0.04511  Biso   1.000  C
  C9       1.0000 0.45155  0.66215  0.04511  Biso   1.000  C
  C10      1.0000 0.12273  0.00451  0.12155  Biso   1.000  C
  C11      1.0000 0.88179  0.87727  0.12155  Biso   1.000  C
  C12      1.0000 0.99549  0.11821  0.12155  Biso   1.000  C
  C13      1.0000 0.00451  0.12273  0.37845  Biso   1.000  C
  C14      1.0000 0.87727  0.88179  0.37845  Biso   1.000  C
  C15      1.0000 0.11821  0.99549  0.37845  Biso   1.000  C
  C16      1.0000 0.78939  0.33785  0.45489  Biso   1.000  C
  C17      1.0000 0.54845  0.21061  0.45489  Biso   1.000  C
  C18      1.0000 0.66215  0.45155  0.45489  Biso   1.000  C
  C19      1.0000 0.32882  0.54394  0.28822  Biso   1.000  C
  C20      1.0000 0.45606  0.78488  0.28822  Biso   1.000  C
  C21      1.0000 0.21512  0.67118  0.28822  Biso   1.000  C
  C22      1.0000 0.54394  0.32882  0.21178  Biso   1.000  C
  C23      1.0000 0.78488  0.45606  0.21178  Biso   1.000  C
  C24      1.0000 0.67118  0.21512  0.21178  Biso   1.000  C
  C25      1.0000 0.99549  0.87727  0.62155  Biso   1.000  C
  C26      1.0000 0.12273  0.11821  0.62155  Biso   1.000  C
  C27      1.0000 0.88179  0.00451  0.62155  Biso   1.000  C
  C28      1.0000 0.21061  0.66215  0.54511  Biso   1.000  C
  C29      1.0000 0.45155  0.78939  0.54511  Biso   1.000  C
  C30      1.0000 0.33785  0.54845  0.54511  Biso   1.000  C
  C31      1.0000 0.66215  0.21061  0.95489  Biso   1.000  C
  C32      1.0000 0.78939  0.45155  0.95489  Biso   1.000  C
  C33      1.0000 0.54845  0.33785  0.95489  Biso   1.000  C
  C34      1.0000 0.87727  0.99549  0.87845  Biso   1.000  C
  C35      1.0000 0.11821  0.12273  0.87845  Biso   1.000  C
  C36      1.0000 0.00451  0.88179  0.87845  Biso   1.000  C
  H1       1.0000 0.69342  0.45281  0.72350  Biso   1.000  H
  H2       1.0000 0.54719  0.24061  0.72350  Biso   1.000  H
  H3       1.0000 0.75939  0.30658  0.72350  Biso   1.000  H
  H4       1.0000 0.45281  0.69342  0.77650  Biso   1.000  H
  H5       1.0000 0.24061  0.54719  0.77650  Biso   1.000  H
  H6       1.0000 0.30658  0.75939  0.77650  Biso   1.000  H
  H7       1.0000 0.36009  0.78614  0.05683  Biso   1.000  H
  H8       1.0000 0.21386  0.57394  0.05683  Biso   1.000  H
  H9       1.0000 0.42606  0.63991  0.05683  Biso   1.000  H
  H10      1.0000 0.11948  0.02675  0.10983  Biso   1.000  H
  H11      1.0000 0.90728  0.88052  0.10983  Biso   1.000  H
  H12      1.0000 0.97325  0.09272  0.10983  Biso   1.000  H
  H13      1.0000 0.02675  0.11948  0.39017  Biso   1.000  H
  H14      1.0000 0.88052  0.90728  0.39017  Biso   1.000  H
  H15      1.0000 0.09272  0.97325  0.39017  Biso   1.000  H
  H16      1.0000 0.78614  0.36009  0.44317  Biso   1.000  H
  H17      1.0000 0.57394  0.21386  0.44317  Biso   1.000  H
  H18      1.0000 0.63991  0.42606  0.44317  Biso   1.000  H
  H19      1.0000 0.30658  0.54719  0.27650  Biso   1.000  H
  H20      1.0000 0.45281  0.75939  0.27650  Biso   1.000  H
  H21      1.0000 0.24061  0.69342  0.27650  Biso   1.000  H
  H22      1.0000 0.54719  0.30658  0.22350  Biso   1.000  H
  H23      1.0000 0.75939  0.45281  0.22350  Biso   1.000  H
  H24      1.0000 0.69342  0.24061  0.22350  Biso   1.000  H
  H25      1.0000 0.97325  0.88052  0.60983  Biso   1.000  H
  H26      1.0000 0.11948  0.09272  0.60983  Biso   1.000  H
  H27      1.0000 0.90728  0.02675  0.60983  Biso   1.000  H
  H28      1.0000 0.21386  0.63991  0.55683  Biso   1.000  H
  H29      1.0000 0.42606  0.78614  0.55683  Biso   1.000  H
  H30      1.0000 0.36009  0.57394  0.55683  Biso   1.000  H
  H31      1.0000 0.63991  0.21386  0.94317  Biso   1.000  H
  H32      1.0000 0.78614  0.42606  0.94317  Biso   1.000  H
  H33      1.0000 0.57394  0.36009  0.94317  Biso   1.000  H
  H34      1.0000 0.88052  0.97325  0.89017  Biso   1.000  H
  H35      1.0000 0.09272  0.11948  0.89017  Biso   1.000  H
  H36      1.0000 0.02675  0.90728  0.89017  Biso   1.000  H
  N37      1.0000 0.71473  0.45588  0.69693  Biso   1.000  N
  N38      1.0000 0.54412  0.25885  0.69693  Biso   1.000  N
  N39      1.0000 0.74115  0.28527  0.69693  Biso   1.000  N
  N40      1.0000 0.45588  0.71473  0.80307  Biso   1.000  N
  N41      1.0000 0.25885  0.54412  0.80307  Biso   1.000  N
  N42      1.0000 0.28527  0.74115  0.80307  Biso   1.000  N
  N43      1.0000 0.38140  0.78921  0.03026  Biso   1.000  N
  N44      1.0000 0.21079  0.59218  0.03026  Biso   1.000  N
  N45      1.0000 0.40782  0.61860  0.03026  Biso   1.000  N
  N46      1.0000 0.12255  0.04806  0.13640  Biso   1.000  N
  N47      1.0000 0.92552  0.87745  0.13640  Biso   1.000  N
  N48      1.0000 0.95194  0.07448  0.13640  Biso   1.000  N
  N49      1.0000 0.04806  0.12255  0.36360  Biso   1.000  N
  N50      1.0000 0.87745  0.92552  0.36360  Biso   1.000  N
  N51      1.0000 0.07448  0.95194  0.36360  Biso   1.000  N
  N52      1.0000 0.78921  0.38140  0.46974  Biso   1.000  N
  N53      1.0000 0.59218  0.21079  0.46974  Biso   1.000  N
  N54      1.0000 0.61860  0.40782  0.46974  Biso   1.000  N
  N55      1.0000 0.28527  0.54412  0.30307  Biso   1.000  N
  N56      1.0000 0.45588  0.74115  0.30307  Biso   1.000  N
  N57      1.0000 0.25885  0.71473  0.30307  Biso   1.000  N
  N58      1.0000 0.54412  0.28527  0.19693  Biso   1.000  N
  N59      1.0000 0.74115  0.45588  0.19693  Biso   1.000  N
  N60      1.0000 0.71473  0.25885  0.19693  Biso   1.000  N
  N61      1.0000 0.95194  0.87745  0.63640  Biso   1.000  N
  N62      1.0000 0.12255  0.07448  0.63640  Biso   1.000  N
  N63      1.0000 0.92552  0.04806  0.63640  Biso   1.000  N
  N64      1.0000 0.21079  0.61860  0.53026  Biso   1.000  N
  N65      1.0000 0.40782  0.78921  0.53026  Biso   1.000  N
  N66      1.0000 0.38140  0.59218  0.53026  Biso   1.000  N
  N67      1.0000 0.61860  0.21079  0.96974  Biso   1.000  N
  N68      1.0000 0.78921  0.40782  0.96974  Biso   1.000  N
  N69      1.0000 0.59218  0.38140  0.96974  Biso   1.000  N
  N70      1.0000 0.87745  0.95194  0.86360  Biso   1.000  N
  N71      1.0000 0.07448  0.12255  0.86360  Biso   1.000  N
  N72      1.0000 0.04806  0.92552  0.86360  Biso   1.000  N
  C37      1.0000 0.68380  0.46216  0.68055  Biso   1.000  C
  C38      1.0000 0.53784  0.22164  0.68055  Biso   1.000  C
  C39      1.0000 0.77836  0.31620  0.68055  Biso   1.000  C
  C40      1.0000 0.46216  0.68380  0.81945  Biso   1.000  C
  C41      1.0000 0.22164  0.53784  0.81945  Biso   1.000  C
  C42      1.0000 0.31620  0.77836  0.81945  Biso   1.000  C
  C43      1.0000 0.35047  0.79549  0.01388  Biso   1.000  C
  C44      1.0000 0.20451  0.55497  0.01388  Biso   1.000  C
  C45      1.0000 0.44503  0.64953  0.01388  Biso   1.000  C
  C46      1.0000 0.12883  0.01713  0.15278  Biso   1.000  C
  C47      1.0000 0.88831  0.87117  0.15278  Biso   1.000  C
  C48      1.0000 0.98287  0.11169  0.15278  Biso   1.000  C
  C49      1.0000 0.01713  0.12883  0.34722  Biso   1.000  C
  C50      1.0000 0.87117  0.88831  0.34722  Biso   1.000  C
  C51      1.0000 0.11169  0.98287  0.34722  Biso   1.000  C
  C52      1.0000 0.79549  0.35047  0.48612  Biso   1.000  C
  C53      1.0000 0.55497  0.20451  0.48612  Biso   1.000  C
  C54      1.0000 0.64953  0.44503  0.48612  Biso   1.000  C
  C55      1.0000 0.31620  0.53784  0.31945  Biso   1.000  C
  C56      1.0000 0.46216  0.77836  0.31945  Biso   1.000  C
  C57      1.0000 0.22164  0.68380  0.31945  Biso   1.000  C
  C58      1.0000 0.53784  0.31620  0.18055  Biso   1.000  C
  C59      1.0000 0.77836  0.46216  0.18055  Biso   1.000  C
  C60      1.0000 0.68380  0.22164  0.18055  Biso   1.000  C
  C61      1.0000 0.98287  0.87117  0.65278  Biso   1.000  C
  C62      1.0000 0.12883  0.11169  0.65278  Biso   1.000  C
  C63      1.0000 0.88831  0.01713  0.65278  Biso   1.000  C
  C64      1.0000 0.20451  0.64953  0.51388  Biso   1.000  C
  C65      1.0000 0.44503  0.79549  0.51388  Biso   1.000  C
  C66      1.0000 0.35047  0.55497  0.51388  Biso   1.000  C
  C67      1.0000 0.64953  0.20451  0.98612  Biso   1.000  C
  C68      1.0000 0.79549  0.44503  0.98612  Biso   1.000  C
  C69      1.0000 0.55497  0.35047  0.98612  Biso   1.000  C
  C70      1.0000 0.87117  0.98287  0.84722  Biso   1.000  C
  C71      1.0000 0.11169  0.12883  0.84722  Biso   1.000  C
  C72      1.0000 0.01713  0.88831  0.84722  Biso   1.000  C
  H37      1.0000 0.71314  0.46215  0.66961  Biso   1.000  H
  H38      1.0000 0.53785  0.25099  0.66961  Biso   1.000  H
  H39      1.0000 0.74901  0.28686  0.66961  Biso   1.000  H
  H40      1.0000 0.46215  0.71314  0.83039  Biso   1.000  H
  H41      1.0000 0.25099  0.53785  0.83039  Biso   1.000  H
  H42      1.0000 0.28686  0.74901  0.83039  Biso   1.000  H
  H43      1.0000 0.37981  0.79548  0.00294  Biso   1.000  H
  H44      1.0000 0.20452  0.58432  0.00294  Biso   1.000  H
  H45      1.0000 0.41568  0.62019  0.00294  Biso   1.000  H
  H46      1.0000 0.12882  0.04647  0.16372  Biso   1.000  H
  H47      1.0000 0.91766  0.87118  0.16372  Biso   1.000  H
  H48      1.0000 0.95353  0.08234  0.16372  Biso   1.000  H
  H49      1.0000 0.04647  0.12882  0.33628  Biso   1.000  H
  H50      1.0000 0.87118  0.91766  0.33628  Biso   1.000  H
  H51      1.0000 0.08234  0.95353  0.33628  Biso   1.000  H
  H52      1.0000 0.79548  0.37981  0.49706  Biso   1.000  H
  H53      1.0000 0.58432  0.20452  0.49706  Biso   1.000  H
  H54      1.0000 0.62019  0.41568  0.49706  Biso   1.000  H
  H55      1.0000 0.28686  0.53785  0.33039  Biso   1.000  H
  H56      1.0000 0.46215  0.74901  0.33039  Biso   1.000  H
  H57      1.0000 0.25099  0.71314  0.33039  Biso   1.000  H
  H58      1.0000 0.53785  0.28686  0.16961  Biso   1.000  H
  H59      1.0000 0.74901  0.46215  0.16961  Biso   1.000  H
  H60      1.0000 0.71314  0.25099  0.16961  Biso   1.000  H
  H61      1.0000 0.95353  0.87118  0.66372  Biso   1.000  H
  H62      1.0000 0.12882  0.08234  0.66372  Biso   1.000  H
  H63      1.0000 0.91766  0.04647  0.66372  Biso   1.000  H
  H64      1.0000 0.20452  0.62019  0.50294  Biso   1.000  H
  H65      1.0000 0.41568  0.79548  0.50294  Biso   1.000  H
  H66      1.0000 0.37981  0.58432  0.50294  Biso   1.000  H
  H67      1.0000 0.62019  0.20452  0.99706  Biso   1.000  H
  H68      1.0000 0.79548  0.41568  0.99706  Biso   1.000  H
  H69      1.0000 0.58432  0.37981  0.99706  Biso   1.000  H
  H70      1.0000 0.87118  0.95353  0.83628  Biso   1.000  H
  H71      1.0000 0.08234  0.12882  0.83628  Biso   1.000  H
  H72      1.0000 0.04647  0.91766  0.83628  Biso   1.000  H
  C73      1.0000 0.60997  0.46875  0.67890  Biso   1.000  C
  C74      1.0000 0.53125  0.14122  0.67890  Biso   1.000  C
  C75      1.0000 0.85878  0.39003  0.67890  Biso   1.000  C
  C76      1.0000 0.46875  0.60997  0.82110  Biso   1.000  C
  C77      1.0000 0.14122  0.53125  0.82110  Biso   1.000  C
  C78      1.0000 0.39003  0.85878  0.82110  Biso   1.000  C
  C79      1.0000 0.27664  0.80208  0.01223  Biso   1.000  C
  C80      1.0000 0.19792  0.47455  0.01223  Biso   1.000  C
  C81      1.0000 0.52545  0.72336  0.01223  Biso   1.000  C
  C82      1.0000 0.13542  0.94330  0.15443  Biso   1.000  C
  C83      1.0000 0.80789  0.86458  0.15443  Biso   1.000  C
  C84      1.0000 0.05670  0.19211  0.15443  Biso   1.000  C
  C85      1.0000 0.94330  0.13542  0.34557  Biso   1.000  C
  C86      1.0000 0.86458  0.80789  0.34557  Biso   1.000  C
  C87      1.0000 0.19211  0.05670  0.34557  Biso   1.000  C
  C88      1.0000 0.80208  0.27664  0.48777  Biso   1.000  C
  C89      1.0000 0.47455  0.19792  0.48777  Biso   1.000  C
  C90      1.0000 0.72336  0.52545  0.48777  Biso   1.000  C
  C91      1.0000 0.39003  0.53125  0.32110  Biso   1.000  C
  C92      1.0000 0.46875  0.85878  0.32110  Biso   1.000  C
  C93      1.0000 0.14122  0.60997  0.32110  Biso   1.000  C
  C94      1.0000 0.53125  0.39003  0.17890  Biso   1.000  C
  C95      1.0000 0.85878  0.46875  0.17890  Biso   1.000  C
  C96      1.0000 0.60997  0.14122  0.17890  Biso   1.000  C
  C97      1.0000 0.05670  0.86458  0.65443  Biso   1.000  C
  C98      1.0000 0.13542  0.19211  0.65443  Biso   1.000  C
  C99      1.0000 0.80789  0.94330  0.65443  Biso   1.000  C
  C100     1.0000 0.19792  0.72336  0.51223  Biso   1.000  C
  C101     1.0000 0.52545  0.80208  0.51223  Biso   1.000  C
  C102     1.0000 0.27664  0.47455  0.51223  Biso   1.000  C
  C103     1.0000 0.72336  0.19792  0.98777  Biso   1.000  C
  C104     1.0000 0.80208  0.52545  0.98777  Biso   1.000  C
  C105     1.0000 0.47455  0.27664  0.98777  Biso   1.000  C
  C106     1.0000 0.86458  0.05670  0.84557  Biso   1.000  C
  C107     1.0000 0.19211  0.13542  0.84557  Biso   1.000  C
  C108     1.0000 0.94330  0.80789  0.84557  Biso   1.000  C
  C109     1.0000 0.56945  0.46740  0.69541  Biso   1.000  C
  C110     1.0000 0.53260  0.10205  0.69541  Biso   1.000  C
  C111     1.0000 0.89795  0.43055  0.69541  Biso   1.000  C
  C112     1.0000 0.46740  0.56945  0.80459  Biso   1.000  C
  C113     1.0000 0.10205  0.53260  0.80459  Biso   1.000  C
  C114     1.0000 0.43055  0.89795  0.80459  Biso   1.000  C
  C115     1.0000 0.23612  0.80073  0.02874  Biso   1.000  C
  C116     1.0000 0.19927  0.43538  0.02874  Biso   1.000  C
  C117     1.0000 0.56462  0.76388  0.02874  Biso   1.000  C
  C118     1.0000 0.13407  0.90278  0.13792  Biso   1.000  C
  C119     1.0000 0.76872  0.86593  0.13792  Biso   1.000  C
  C120     1.0000 0.09722  0.23128  0.13792  Biso   1.000  C
  C121     1.0000 0.90278  0.13407  0.36208  Biso   1.000  C
  C122     1.0000 0.86593  0.76872  0.36208  Biso   1.000  C
  C123     1.0000 0.23128  0.09722  0.36208  Biso   1.000  C
  C124     1.0000 0.80073  0.23612  0.47126  Biso   1.000  C
  C125     1.0000 0.43538  0.19927  0.47126  Biso   1.000  C
  C126     1.0000 0.76388  0.56462  0.47126  Biso   1.000  C
  C127     1.0000 0.43055  0.53260  0.30459  Biso   1.000  C
  C128     1.0000 0.46740  0.89795  0.30459  Biso   1.000  C
  C129     1.0000 0.10205  0.56945  0.30459  Biso   1.000  C
  C130     1.0000 0.53260  0.43055  0.19541  Biso   1.000  C
  C131     1.0000 0.89795  0.46740  0.19541  Biso   1.000  C
  C132     1.0000 0.56945  0.10205  0.19541  Biso   1.000  C
  C133     1.0000 0.09722  0.86593  0.63792  Biso   1.000  C
  C134     1.0000 0.13407  0.23128  0.63792  Biso   1.000  C
  C135     1.0000 0.76872  0.90278  0.63792  Biso   1.000  C
  C136     1.0000 0.19927  0.76388  0.52874  Biso   1.000  C
  C137     1.0000 0.56462  0.80073  0.52874  Biso   1.000  C
  C138     1.0000 0.23612  0.43538  0.52874  Biso   1.000  C
  C139     1.0000 0.76388  0.19927  0.97126  Biso   1.000  C
  C140     1.0000 0.80073  0.56462  0.97126  Biso   1.000  C
  C141     1.0000 0.43538  0.23612  0.97126  Biso   1.000  C
  C142     1.0000 0.86593  0.09722  0.86208  Biso   1.000  C
  C143     1.0000 0.23128  0.13407  0.86208  Biso   1.000  C
  C144     1.0000 0.90278  0.76872  0.86208  Biso   1.000  C
  H73      1.0000 0.51893  0.47166  0.69492  Biso   1.000  H
  H74      1.0000 0.52834  0.04727  0.69492  Biso   1.000  H
  H75      1.0000 0.95273  0.48107  0.69492  Biso   1.000  H
  H76      1.0000 0.47166  0.51893  0.80508  Biso   1.000  H
  H77      1.0000 0.04727  0.52834  0.80508  Biso   1.000  H
  H78      1.0000 0.48107  0.95273  0.80508  Biso   1.000  H
  H79      1.0000 0.18560  0.80499  0.02825  Biso   1.000  H
  H80      1.0000 0.19501  0.38060  0.02825  Biso   1.000  H
  H81      1.0000 0.61940  0.81440  0.02825  Biso   1.000  H
  H82      1.0000 0.13833  0.85226  0.13841  Biso   1.000  H
  H83      1.0000 0.71394  0.86167  0.13841  Biso   1.000  H
  H84      1.0000 0.14774  0.28606  0.13841  Biso   1.000  H
  H85      1.0000 0.85226  0.13833  0.36159  Biso   1.000  H
  H86      1.0000 0.86167  0.71394  0.36159  Biso   1.000  H
  H87      1.0000 0.28606  0.14774  0.36159  Biso   1.000  H
  H88      1.0000 0.80499  0.18560  0.47175  Biso   1.000  H
  H89      1.0000 0.38060  0.19501  0.47175  Biso   1.000  H
  H90      1.0000 0.81440  0.61940  0.47175  Biso   1.000  H
  H91      1.0000 0.48107  0.52834  0.30508  Biso   1.000  H
  H92      1.0000 0.47166  0.95273  0.30508  Biso   1.000  H
  H93      1.0000 0.04727  0.51893  0.30508  Biso   1.000  H
  H94      1.0000 0.52834  0.48107  0.19492  Biso   1.000  H
  H95      1.0000 0.95273  0.47166  0.19492  Biso   1.000  H
  H96      1.0000 0.51893  0.04727  0.19492  Biso   1.000  H
  H97      1.0000 0.14774  0.86167  0.63841  Biso   1.000  H
  H98      1.0000 0.13833  0.28606  0.63841  Biso   1.000  H
  H99      1.0000 0.71394  0.85226  0.63841  Biso   1.000  H
  H100     1.0000 0.19501  0.81440  0.52825  Biso   1.000  H
  H101     1.0000 0.61940  0.80499  0.52825  Biso   1.000  H
  H102     1.0000 0.18560  0.38060  0.52825  Biso   1.000  H
  H103     1.0000 0.81440  0.19501  0.97175  Biso   1.000  H
  H104     1.0000 0.80499  0.61940  0.97175  Biso   1.000  H
  H105     1.0000 0.38060  0.18560  0.97175  Biso   1.000  H
  H106     1.0000 0.86167  0.14774  0.86159  Biso   1.000  H
  H107     1.0000 0.28606  0.13833  0.86159  Biso   1.000  H
  H108     1.0000 0.85226  0.71394  0.86159  Biso   1.000  H
  C145     1.0000 0.57836  0.48057  0.66162  Biso   1.000  C
  C146     1.0000 0.51943  0.09779  0.66162  Biso   1.000  C
  C147     1.0000 0.90221  0.42164  0.66162  Biso   1.000  C
  C148     1.0000 0.48057  0.57836  0.83838  Biso   1.000  C
  C149     1.0000 0.09779  0.51943  0.83838  Biso   1.000  C
  C150     1.0000 0.42164  0.90221  0.83838  Biso   1.000  C
  C151     1.0000 0.24503  0.81390  0.99495  Biso   1.000  C
  C152     1.0000 0.18610  0.43112  0.99495  Biso   1.000  C
  C153     1.0000 0.56888  0.75497  0.99495  Biso   1.000  C
  C154     1.0000 0.14724  0.91169  0.17171  Biso   1.000  C
  C155     1.0000 0.76446  0.85276  0.17171  Biso   1.000  C
  C156     1.0000 0.08831  0.23554  0.17171  Biso   1.000  C
  C157     1.0000 0.91169  0.14724  0.32829  Biso   1.000  C
  C158     1.0000 0.85276  0.76446  0.32829  Biso   1.000  C
  C159     1.0000 0.23554  0.08831  0.32829  Biso   1.000  C
  C160     1.0000 0.81390  0.24503  0.50505  Biso   1.000  C
  C161     1.0000 0.43112  0.18610  0.50505  Biso   1.000  C
  C162     1.0000 0.75497  0.56888  0.50505  Biso   1.000  C
  C163     1.0000 0.42164  0.51943  0.33838  Biso   1.000  C
  C164     1.0000 0.48057  0.90221  0.33838  Biso   1.000  C
  C165     1.0000 0.09779  0.57836  0.33838  Biso   1.000  C
  C166     1.0000 0.51943  0.42164  0.16162  Biso   1.000  C
  C167     1.0000 0.90221  0.48057  0.16162  Biso   1.000  C
  C168     1.0000 0.57836  0.09779  0.16162  Biso   1.000  C
  C169     1.0000 0.08831  0.85276  0.67171  Biso   1.000  C
  C170     1.0000 0.14724  0.23554  0.67171  Biso   1.000  C
  C171     1.0000 0.76446  0.91169  0.67171  Biso   1.000  C
  C172     1.0000 0.18610  0.75497  0.49495  Biso   1.000  C
  C173     1.0000 0.56888  0.81390  0.49495  Biso   1.000  C
  C174     1.0000 0.24503  0.43112  0.49495  Biso   1.000  C
  C175     1.0000 0.75497  0.18610  0.00505  Biso   1.000  C
  C176     1.0000 0.81390  0.56888  0.00505  Biso   1.000  C
  C177     1.0000 0.43112  0.24503  0.00505  Biso   1.000  C
  C178     1.0000 0.85276  0.08831  0.82829  Biso   1.000  C
  C179     1.0000 0.23554  0.14724  0.82829  Biso   1.000  C
  C180     1.0000 0.91169  0.76446  0.82829  Biso   1.000  C
  C181     1.0000 0.55008  0.49522  0.64797  Biso   1.000  C
  C182     1.0000 0.50478  0.05486  0.64797  Biso   1.000  C
  C183     1.0000 0.94514  0.44992  0.64797  Biso   1.000  C
  C184     1.0000 0.49522  0.55008  0.85203  Biso   1.000  C
  C185     1.0000 0.05486  0.50478  0.85203  Biso   1.000  C
  C186     1.0000 0.44992  0.94514  0.85203  Biso   1.000  C
  C187     1.0000 0.21675  0.82855  0.98130  Biso   1.000  C
  C188     1.0000 0.17145  0.38819  0.98130  Biso   1.000  C
  C189     1.0000 0.61181  0.78325  0.98130  Biso   1.000  C
  C190     1.0000 0.16189  0.88341  0.18536  Biso   1.000  C
  C191     1.0000 0.72153  0.83811  0.18536  Biso   1.000  C
  C192     1.0000 0.11659  0.27847  0.18536  Biso   1.000  C
  C193     1.0000 0.88341  0.16189  0.31464  Biso   1.000  C
  C194     1.0000 0.83811  0.72153  0.31464  Biso   1.000  C
  C195     1.0000 0.27847  0.11659  0.31464  Biso   1.000  C
  C196     1.0000 0.82855  0.21675  0.51870  Biso   1.000  C
  C197     1.0000 0.38819  0.17145  0.51870  Biso   1.000  C
  C198     1.0000 0.78325  0.61181  0.51870  Biso   1.000  C
  C199     1.0000 0.44992  0.50478  0.35203  Biso   1.000  C
  C200     1.0000 0.49522  0.94514  0.35203  Biso   1.000  C
  C201     1.0000 0.05486  0.55008  0.35203  Biso   1.000  C
  C202     1.0000 0.50478  0.44992  0.14797  Biso   1.000  C
  C203     1.0000 0.94514  0.49522  0.14797  Biso   1.000  C
  C204     1.0000 0.55008  0.05486  0.14797  Biso   1.000  C
  C205     1.0000 0.11659  0.83811  0.68536  Biso   1.000  C
  C206     1.0000 0.16189  0.27847  0.68536  Biso   1.000  C
  C207     1.0000 0.72153  0.88341  0.68536  Biso   1.000  C
  C208     1.0000 0.17145  0.78325  0.48130  Biso   1.000  C
  C209     1.0000 0.61181  0.82855  0.48130  Biso   1.000  C
  C210     1.0000 0.21675  0.38819  0.48130  Biso   1.000  C
  C211     1.0000 0.78325  0.17145  0.01870  Biso   1.000  C
  C212     1.0000 0.82855  0.61181  0.01870  Biso   1.000  C
  C213     1.0000 0.38819  0.21675  0.01870  Biso   1.000  C
  C214     1.0000 0.83811  0.11659  0.81464  Biso   1.000  C
  C215     1.0000 0.27847  0.16189  0.81464  Biso   1.000  C
  C216     1.0000 0.88341  0.72153  0.81464  Biso   1.000  C
  C217     1.0000 0.51891  0.51799  0.63179  Biso   1.000  C
  C218     1.0000 0.48201  0.00092  0.63179  Biso   1.000  C
  C219     1.0000 0.99908  0.48109  0.63179  Biso   1.000  C
  C220     1.0000 0.51799  0.51891  0.86821  Biso   1.000  C
  C221     1.0000 0.00092  0.48201  0.86821  Biso   1.000  C
  C222     1.0000 0.48109  0.99908  0.86821  Biso   1.000  C
  C223     1.0000 0.18558  0.85132  0.96512  Biso   1.000  C
  C224     1.0000 0.14868  0.33425  0.96512  Biso   1.000  C
  C225     1.0000 0.66575  0.81442  0.96512  Biso   1.000  C
  C226     1.0000 0.18466  0.85224  0.20154  Biso   1.000  C
  C227     1.0000 0.66759  0.81534  0.20154  Biso   1.000  C
  C228     1.0000 0.14776  0.33241  0.20154  Biso   1.000  C
  C229     1.0000 0.85224  0.18466  0.29846  Biso   1.000  C
  C230     1.0000 0.81534  0.66759  0.29846  Biso   1.000  C
  C231     1.0000 0.33241  0.14776  0.29846  Biso   1.000  C
  C232     1.0000 0.85132  0.18558  0.53488  Biso   1.000  C
  C233     1.0000 0.33425  0.14868  0.53488  Biso   1.000  C
  C234     1.0000 0.81442  0.66575  0.53488  Biso   1.000  C
  C235     1.0000 0.48109  0.48201  0.36821  Biso   1.000  C
  C236     1.0000 0.51799  0.99908  0.36821  Biso   1.000  C
  C237     1.0000 0.00092  0.51891  0.36821  Biso   1.000  C
  C238     1.0000 0.48201  0.48109  0.13179  Biso   1.000  C
  C239     1.0000 0.99908  0.51799  0.13179  Biso   1.000  C
  C240     1.0000 0.51891  0.00092  0.13179  Biso   1.000  C
  C241     1.0000 0.14776  0.81534  0.70154  Biso   1.000  C
  C242     1.0000 0.18466  0.33241  0.70154  Biso   1.000  C
  C243     1.0000 0.66759  0.85224  0.70154  Biso   1.000  C
  C244     1.0000 0.14868  0.81442  0.46512  Biso   1.000  C
  C245     1.0000 0.66575  0.85132  0.46512  Biso   1.000  C
  C246     1.0000 0.18558  0.33425  0.46512  Biso   1.000  C
  C247     1.0000 0.81442  0.14868  0.03488  Biso   1.000  C
  C248     1.0000 0.85132  0.66575  0.03488  Biso   1.000  C
  C249     1.0000 0.33425  0.18558  0.03488  Biso   1.000  C
  C250     1.0000 0.81534  0.14776  0.79846  Biso   1.000  C
  C251     1.0000 0.33241  0.18466  0.79846  Biso   1.000  C
  C252     1.0000 0.85224  0.66759  0.79846  Biso   1.000  C
  C253     1.0000 0.56758  0.60052  0.62432  Biso   1.000  C
  C254     1.0000 0.39948  0.96706  0.62432  Biso   1.000  C
  C255     1.0000 0.03294  0.43242  0.62432  Biso   1.000  C
  C256     1.0000 0.60052  0.56758  0.87568  Biso   1.000  C
  C257     1.0000 0.96706  0.39948  0.87568  Biso   1.000  C
  C258     1.0000 0.43242  0.03294  0.87568  Biso   1.000  C
  C259     1.0000 0.23425  0.93385  0.95765  Biso   1.000  C
  C260     1.0000 0.06615  0.30039  0.95765  Biso   1.000  C
  C261     1.0000 0.69961  0.76575  0.95765  Biso   1.000  C
  C262     1.0000 0.26719  0.90091  0.20901  Biso   1.000  C
  C263     1.0000 0.63373  0.73281  0.20901  Biso   1.000  C
  C264     1.0000 0.09909  0.36627  0.20901  Biso   1.000  C
  C265     1.0000 0.90091  0.26719  0.29099  Biso   1.000  C
  C266     1.0000 0.73281  0.63373  0.29099  Biso   1.000  C
  C267     1.0000 0.36627  0.09909  0.29099  Biso   1.000  C
  C268     1.0000 0.93385  0.23425  0.54235  Biso   1.000  C
  C269     1.0000 0.30039  0.06615  0.54235  Biso   1.000  C
  C270     1.0000 0.76575  0.69961  0.54235  Biso   1.000  C
  C271     1.0000 0.43242  0.39948  0.37568  Biso   1.000  C
  C272     1.0000 0.60052  0.03294  0.37568  Biso   1.000  C
  C273     1.0000 0.96706  0.56758  0.37568  Biso   1.000  C
  C274     1.0000 0.39948  0.43242  0.12432  Biso   1.000  C
  C275     1.0000 0.03294  0.60052  0.12432  Biso   1.000  C
  C276     1.0000 0.56758  0.96706  0.12432  Biso   1.000  C
  C277     1.0000 0.09909  0.73281  0.70901  Biso   1.000  C
  C278     1.0000 0.26719  0.36627  0.70901  Biso   1.000  C
  C279     1.0000 0.63373  0.90091  0.70901  Biso   1.000  C
  C280     1.0000 0.06615  0.76575  0.45765  Biso   1.000  C
  C281     1.0000 0.69961  0.93385  0.45765  Biso   1.000  C
  C282     1.0000 0.23425  0.30039  0.45765  Biso   1.000  C
  C283     1.0000 0.76575  0.06615  0.04235  Biso   1.000  C
  C284     1.0000 0.93385  0.69961  0.04235  Biso   1.000  C
  C285     1.0000 0.30039  0.23425  0.04235  Biso   1.000  C
  C286     1.0000 0.73281  0.09909  0.79099  Biso   1.000  C
  C287     1.0000 0.36627  0.26719  0.79099  Biso   1.000  C
  C288     1.0000 0.90091  0.63373  0.79099  Biso   1.000  C
  H109     1.0000 0.62077  0.64053  0.62982  Biso   1.000  H
  H110     1.0000 0.35947  0.98024  0.62982  Biso   1.000  H
  H111     1.0000 0.01976  0.37923  0.62982  Biso   1.000  H
  H112     1.0000 0.64053  0.62077  0.87018  Biso   1.000  H
  H113     1.0000 0.98024  0.35947  0.87018  Biso   1.000  H
  H114     1.0000 0.37923  0.01976  0.87018  Biso   1.000  H
  H115     1.0000 0.28744  0.97386  0.96315  Biso   1.000  H
  H116     1.0000 0.02614  0.31357  0.96315  Biso   1.000  H
  H117     1.0000 0.68643  0.71256  0.96315  Biso   1.000  H
  H118     1.0000 0.30720  0.95410  0.20351  Biso   1.000  H
  H119     1.0000 0.64691  0.69280  0.20351  Biso   1.000  H
  H120     1.0000 0.04590  0.35309  0.20351  Biso   1.000  H
  H121     1.0000 0.95410  0.30720  0.29649  Biso   1.000  H
  H122     1.0000 0.69280  0.64691  0.29649  Biso   1.000  H
  H123     1.0000 0.35309  0.04590  0.29649  Biso   1.000  H
  H124     1.0000 0.97386  0.28744  0.53685  Biso   1.000  H
  H125     1.0000 0.31357  0.02614  0.53685  Biso   1.000  H
  H126     1.0000 0.71256  0.68643  0.53685  Biso   1.000  H
  H127     1.0000 0.37923  0.35947  0.37018  Biso   1.000  H
  H128     1.0000 0.64053  0.01976  0.37018  Biso   1.000  H
  H129     1.0000 0.98024  0.62077  0.37018  Biso   1.000  H
  H130     1.0000 0.35947  0.37923  0.12982  Biso   1.000  H
  H131     1.0000 0.01976  0.64053  0.12982  Biso   1.000  H
  H132     1.0000 0.62077  0.98024  0.12982  Biso   1.000  H
  H133     1.0000 0.04590  0.69280  0.70351  Biso   1.000  H
  H134     1.0000 0.30720  0.35309  0.70351  Biso   1.000  H
  H135     1.0000 0.64691  0.95410  0.70351  Biso   1.000  H
  H136     1.0000 0.02614  0.71256  0.46315  Biso   1.000  H
  H137     1.0000 0.68643  0.97386  0.46315  Biso   1.000  H
  H138     1.0000 0.28744  0.31357  0.46315  Biso   1.000  H
  H139     1.0000 0.71256  0.02614  0.03685  Biso   1.000  H
  H140     1.0000 0.97386  0.68643  0.03685  Biso   1.000  H
  H141     1.0000 0.31357  0.28744  0.03685  Biso   1.000  H
  H142     1.0000 0.69280  0.04590  0.79649  Biso   1.000  H
  H143     1.0000 0.35309  0.30720  0.79649  Biso   1.000  H
  H144     1.0000 0.95410  0.64691  0.79649  Biso   1.000  H
  C289     1.0000 0.53781  0.62381  0.60880  Biso   1.000  C
  C290     1.0000 0.37619  0.91400  0.60880  Biso   1.000  C
  C291     1.0000 0.08600  0.46219  0.60880  Biso   1.000  C
  C292     1.0000 0.62381  0.53781  0.89120  Biso   1.000  C
  C293     1.0000 0.91400  0.37619  0.89120  Biso   1.000  C
  C294     1.0000 0.46219  0.08600  0.89120  Biso   1.000  C
  C295     1.0000 0.20448  0.95714  0.94213  Biso   1.000  C
  C296     1.0000 0.04286  0.24733  0.94213  Biso   1.000  C
  C297     1.0000 0.75267  0.79552  0.94213  Biso   1.000  C
  C298     1.0000 0.29048  0.87114  0.22453  Biso   1.000  C
  C299     1.0000 0.58067  0.70952  0.22453  Biso   1.000  C
  C300     1.0000 0.12886  0.41933  0.22453  Biso   1.000  C
  C301     1.0000 0.87114  0.29048  0.27547  Biso   1.000  C
  C302     1.0000 0.70952  0.58067  0.27547  Biso   1.000  C
  C303     1.0000 0.41933  0.12886  0.27547  Biso   1.000  C
  C304     1.0000 0.95714  0.20448  0.55787  Biso   1.000  C
  C305     1.0000 0.24733  0.04286  0.55787  Biso   1.000  C
  C306     1.0000 0.79552  0.75267  0.55787  Biso   1.000  C
  C307     1.0000 0.46219  0.37619  0.39120  Biso   1.000  C
  C308     1.0000 0.62381  0.08600  0.39120  Biso   1.000  C
  C309     1.0000 0.91400  0.53781  0.39120  Biso   1.000  C
  C310     1.0000 0.37619  0.46219  0.10880  Biso   1.000  C
  C311     1.0000 0.08600  0.62381  0.10880  Biso   1.000  C
  C312     1.0000 0.53781  0.91400  0.10880  Biso   1.000  C
  C313     1.0000 0.12886  0.70952  0.72453  Biso   1.000  C
  C314     1.0000 0.29048  0.41933  0.72453  Biso   1.000  C
  C315     1.0000 0.58067  0.87114  0.72453  Biso   1.000  C
  C316     1.0000 0.04286  0.79552  0.44213  Biso   1.000  C
  C317     1.0000 0.75267  0.95714  0.44213  Biso   1.000  C
  C318     1.0000 0.20448  0.24733  0.44213  Biso   1.000  C
  C319     1.0000 0.79552  0.04286  0.05787  Biso   1.000  C
  C320     1.0000 0.95714  0.75267  0.05787  Biso   1.000  C
  C321     1.0000 0.24733  0.20448  0.05787  Biso   1.000  C
  C322     1.0000 0.70952  0.12886  0.77547  Biso   1.000  C
  C323     1.0000 0.41933  0.29048  0.77547  Biso   1.000  C
  C324     1.0000 0.87114  0.58067  0.77547  Biso   1.000  C
  C325     1.0000 0.46006  0.56486  0.60072  Biso   1.000  C
  C326     1.0000 0.43514  0.89520  0.60072  Biso   1.000  C
  C327     1.0000 0.10480  0.53994  0.60072  Biso   1.000  C
  C328     1.0000 0.56486  0.46006  0.89928  Biso   1.000  C
  C329     1.0000 0.89520  0.43514  0.89928  Biso   1.000  C
  C330     1.0000 0.53994  0.10480  0.89928  Biso   1.000  C
  C331     1.0000 0.12673  0.89819  0.93405  Biso   1.000  C
  C332     1.0000 0.10181  0.22853  0.93405  Biso   1.000  C
  C333     1.0000 0.77147  0.87327  0.93405  Biso   1.000  C
  C334     1.0000 0.23153  0.79339  0.23261  Biso   1.000  C
  C335     1.0000 0.56187  0.76847  0.23261  Biso   1.000  C
  C336     1.0000 0.20661  0.43813  0.23261  Biso   1.000  C
  C337     1.0000 0.79339  0.23153  0.26739  Biso   1.000  C
  C338     1.0000 0.76847  0.56187  0.26739  Biso   1.000  C
  C339     1.0000 0.43813  0.20661  0.26739  Biso   1.000  C
  C340     1.0000 0.89819  0.12673  0.56595  Biso   1.000  C
  C341     1.0000 0.22853  0.10181  0.56595  Biso   1.000  C
  C342     1.0000 0.87327  0.77147  0.56595  Biso   1.000  C
  C343     1.0000 0.53994  0.43514  0.39928  Biso   1.000  C
  C344     1.0000 0.56486  0.10480  0.39928  Biso   1.000  C
  C345     1.0000 0.89520  0.46006  0.39928  Biso   1.000  C
  C346     1.0000 0.43514  0.53994  0.10072  Biso   1.000  C
  C347     1.0000 0.10480  0.56486  0.10072  Biso   1.000  C
  C348     1.0000 0.46006  0.89520  0.10072  Biso   1.000  C
  C349     1.0000 0.20661  0.76847  0.73261  Biso   1.000  C
  C350     1.0000 0.23153  0.43813  0.73261  Biso   1.000  C
  C351     1.0000 0.56187  0.79339  0.73261  Biso   1.000  C
  C352     1.0000 0.10181  0.87327  0.43405  Biso   1.000  C
  C353     1.0000 0.77147  0.89819  0.43405  Biso   1.000  C
  C354     1.0000 0.12673  0.22853  0.43405  Biso   1.000  C
  C355     1.0000 0.87327  0.10181  0.06595  Biso   1.000  C
  C356     1.0000 0.89819  0.77147  0.06595  Biso   1.000  C
  C357     1.0000 0.22853  0.12673  0.06595  Biso   1.000  C
  C358     1.0000 0.76847  0.20661  0.76739  Biso   1.000  C
  C359     1.0000 0.43813  0.23153  0.76739  Biso   1.000  C
  C360     1.0000 0.79339  0.56187  0.76739  Biso   1.000  C
  H145     1.0000 0.44027  0.58048  0.59001  Biso   1.000  H
  H146     1.0000 0.41952  0.85979  0.59001  Biso   1.000  H
  H147     1.0000 0.14021  0.55973  0.59001  Biso   1.000  H
  H148     1.0000 0.58048  0.44027  0.90999  Biso   1.000  H
  H149     1.0000 0.85979  0.41952  0.90999  Biso   1.000  H
  H150     1.0000 0.55973  0.14021  0.90999  Biso   1.000  H
  H151     1.0000 0.10694  0.91381  0.92334  Biso   1.000  H
  H152     1.0000 0.08619  0.19312  0.92334  Biso   1.000  H
  H153     1.0000 0.80688  0.89306  0.92334  Biso   1.000  H
  H154     1.0000 0.24715  0.77360  0.24332  Biso   1.000  H
  H155     1.0000 0.52646  0.75285  0.24332  Biso   1.000  H
  H156     1.0000 0.22640  0.47354  0.24332  Biso   1.000  H
  H157     1.0000 0.77360  0.24715  0.25668  Biso   1.000  H
  H158     1.0000 0.75285  0.52646  0.25668  Biso   1.000  H
  H159     1.0000 0.47354  0.22640  0.25668  Biso   1.000  H
  H160     1.0000 0.91381  0.10694  0.57666  Biso   1.000  H
  H161     1.0000 0.19312  0.08619  0.57666  Biso   1.000  H
  H162     1.0000 0.89306  0.80688  0.57666  Biso   1.000  H
  H163     1.0000 0.55973  0.41952  0.40999  Biso   1.000  H
  H164     1.0000 0.58048  0.14021  0.40999  Biso   1.000  H
  H165     1.0000 0.85979  0.44027  0.40999  Biso   1.000  H
  H166     1.0000 0.41952  0.55973  0.09001  Biso   1.000  H
  H167     1.0000 0.14021  0.58048  0.09001  Biso   1.000  H
  H168     1.0000 0.44027  0.85979  0.09001  Biso   1.000  H
  H169     1.0000 0.22640  0.75285  0.74332  Biso   1.000  H
  H170     1.0000 0.24715  0.47354  0.74332  Biso   1.000  H
  H171     1.0000 0.52646  0.77360  0.74332  Biso   1.000  H
  H172     1.0000 0.08619  0.89306  0.42334  Biso   1.000  H
  H173     1.0000 0.80688  0.91381  0.42334  Biso   1.000  H
  H174     1.0000 0.10694  0.19312  0.42334  Biso   1.000  H
  H175     1.0000 0.89306  0.08619  0.07666  Biso   1.000  H
  H176     1.0000 0.91381  0.80688  0.07666  Biso   1.000  H
  H177     1.0000 0.19312  0.10694  0.07666  Biso   1.000  H
  H178     1.0000 0.75285  0.22640  0.75668  Biso   1.000  H
  H179     1.0000 0.47354  0.24715  0.75668  Biso   1.000  H
  H180     1.0000 0.77360  0.52646  0.75668  Biso   1.000  H
  C361     1.0000 0.41139  0.48349  0.60822  Biso   1.000  C
  C362     1.0000 0.51651  0.92790  0.60822  Biso   1.000  C
  C363     1.0000 0.07210  0.58861  0.60822  Biso   1.000  C
  C364     1.0000 0.48349  0.41139  0.89178  Biso   1.000  C
  C365     1.0000 0.92790  0.51651  0.89178  Biso   1.000  C
  C366     1.0000 0.58861  0.07210  0.89178  Biso   1.000  C
  C367     1.0000 0.07806  0.81682  0.94155  Biso   1.000  C
  C368     1.0000 0.18318  0.26123  0.94155  Biso   1.000  C
  C369     1.0000 0.73877  0.92194  0.94155  Biso   1.000  C
  C370     1.0000 0.15016  0.74472  0.22511  Biso   1.000  C
  C371     1.0000 0.59457  0.84984  0.22511  Biso   1.000  C
  C372     1.0000 0.25528  0.40543  0.22511  Biso   1.000  C
  C373     1.0000 0.74472  0.15016  0.27489  Biso   1.000  C
  C374     1.0000 0.84984  0.59457  0.27489  Biso   1.000  C
  C375     1.0000 0.40543  0.25528  0.27489  Biso   1.000  C
  C376     1.0000 0.81682  0.07806  0.55845  Biso   1.000  C
  C377     1.0000 0.26123  0.18318  0.55845  Biso   1.000  C
  C378     1.0000 0.92194  0.73877  0.55845  Biso   1.000  C
  C379     1.0000 0.58861  0.51651  0.39178  Biso   1.000  C
  C380     1.0000 0.48349  0.07210  0.39178  Biso   1.000  C
  C381     1.0000 0.92790  0.41139  0.39178  Biso   1.000  C
  C382     1.0000 0.51651  0.58861  0.10822  Biso   1.000  C
  C383     1.0000 0.07210  0.48349  0.10822  Biso   1.000  C
  C384     1.0000 0.41139  0.92790  0.10822  Biso   1.000  C
  C385     1.0000 0.25528  0.84984  0.72511  Biso   1.000  C
  C386     1.0000 0.15016  0.40543  0.72511  Biso   1.000  C
  C387     1.0000 0.59457  0.74472  0.72511  Biso   1.000  C
  C388     1.0000 0.18318  0.92194  0.44155  Biso   1.000  C
  C389     1.0000 0.73877  0.81682  0.44155  Biso   1.000  C
  C390     1.0000 0.07806  0.26123  0.44155  Biso   1.000  C
  C391     1.0000 0.92194  0.18318  0.05845  Biso   1.000  C
  C392     1.0000 0.81682  0.73877  0.05845  Biso   1.000  C
  C393     1.0000 0.26123  0.07806  0.05845  Biso   1.000  C
  C394     1.0000 0.84984  0.25528  0.77489  Biso   1.000  C
  C395     1.0000 0.40543  0.15016  0.77489  Biso   1.000  C
  C396     1.0000 0.74472  0.59457  0.77489  Biso   1.000  C
  C397     1.0000 0.44014  0.45966  0.62384  Biso   1.000  C
  C398     1.0000 0.54034  0.98048  0.62384  Biso   1.000  C
  C399     1.0000 0.01952  0.55986  0.62384  Biso   1.000  C
  C400     1.0000 0.45966  0.44014  0.87616  Biso   1.000  C
  C401     1.0000 0.98048  0.54034  0.87616  Biso   1.000  C
  C402     1.0000 0.55986  0.01952  0.87616  Biso   1.000  C
  C403     1.0000 0.10681  0.79299  0.95717  Biso   1.000  C
  C404     1.0000 0.20701  0.31381  0.95717  Biso   1.000  C
  C405     1.0000 0.68619  0.89319  0.95717  Biso   1.000  C
  C406     1.0000 0.12633  0.77347  0.20949  Biso   1.000  C
  C407     1.0000 0.64715  0.87367  0.20949  Biso   1.000  C
  C408     1.0000 0.22653  0.35285  0.20949  Biso   1.000  C
  C409     1.0000 0.77347  0.12633  0.29051  Biso   1.000  C
  C410     1.0000 0.87367  0.64715  0.29051  Biso   1.000  C
  C411     1.0000 0.35285  0.22653  0.29051  Biso   1.000  C
  C412     1.0000 0.79299  0.10681  0.54283  Biso   1.000  C
  C413     1.0000 0.31381  0.20701  0.54283  Biso   1.000  C
  C414     1.0000 0.89319  0.68619  0.54283  Biso   1.000  C
  C415     1.0000 0.55986  0.54034  0.37616  Biso   1.000  C
  C416     1.0000 0.45966  0.01952  0.37616  Biso   1.000  C
  C417     1.0000 0.98048  0.44014  0.37616  Biso   1.000  C
  C418     1.0000 0.54034  0.55986  0.12384  Biso   1.000  C
  C419     1.0000 0.01952  0.45966  0.12384  Biso   1.000  C
  C420     1.0000 0.44014  0.98048  0.12384  Biso   1.000  C
  C421     1.0000 0.22653  0.87367  0.70949  Biso   1.000  C
  C422     1.0000 0.12633  0.35285  0.70949  Biso   1.000  C
  C423     1.0000 0.64715  0.77347  0.70949  Biso   1.000  C
  C424     1.0000 0.20701  0.89319  0.45717  Biso   1.000  C
  C425     1.0000 0.68619  0.79299  0.45717  Biso   1.000  C
  C426     1.0000 0.10681  0.31381  0.45717  Biso   1.000  C
  C427     1.0000 0.89319  0.20701  0.04283  Biso   1.000  C
  C428     1.0000 0.79299  0.68619  0.04283  Biso   1.000  C
  C429     1.0000 0.31381  0.10681  0.04283  Biso   1.000  C
  C430     1.0000 0.87367  0.22653  0.79051  Biso   1.000  C
  C431     1.0000 0.35285  0.12633  0.79051  Biso   1.000  C
  C432     1.0000 0.77347  0.64715  0.79051  Biso   1.000  C
  H181     1.0000 0.40635  0.40407  0.62904  Biso   1.000  H
  H182     1.0000 0.59593  0.00228  0.62904  Biso   1.000  H
  H183     1.0000 0.99772  0.59365  0.62904  Biso   1.000  H
  H184     1.0000 0.40407  0.40635  0.87096  Biso   1.000  H
  H185     1.0000 0.00228  0.59593  0.87096  Biso   1.000  H
  H186     1.0000 0.59365  0.99772  0.87096  Biso   1.000  H
  H187     1.0000 0.07302  0.73740  0.96237  Biso   1.000  H
  H188     1.0000 0.26260  0.33561  0.96237  Biso   1.000  H
  H189     1.0000 0.66439  0.92698  0.96237  Biso   1.000  H
  H190     1.0000 0.07074  0.73968  0.20429  Biso   1.000  H
  H191     1.0000 0.66895  0.92926  0.20429  Biso   1.000  H
  H192     1.0000 0.26032  0.33105  0.20429  Biso   1.000  H
  H193     1.0000 0.73968  0.07074  0.29571  Biso   1.000  H
  H194     1.0000 0.92926  0.66895  0.29571  Biso   1.000  H
  H195     1.0000 0.33105  0.26032  0.29571  Biso   1.000  H
  H196     1.0000 0.73740  0.07302  0.53763  Biso   1.000  H
  H197     1.0000 0.33561  0.26260  0.53763  Biso   1.000  H
  H198     1.0000 0.92698  0.66439  0.53763  Biso   1.000  H
  H199     1.0000 0.59365  0.59593  0.37096  Biso   1.000  H
  H200     1.0000 0.40407  0.99772  0.37096  Biso   1.000  H
  H201     1.0000 0.00228  0.40635  0.37096  Biso   1.000  H
  H202     1.0000 0.59593  0.59365  0.12904  Biso   1.000  H
  H203     1.0000 0.99772  0.40407  0.12904  Biso   1.000  H
  H204     1.0000 0.40635  0.00228  0.12904  Biso   1.000  H
  H205     1.0000 0.26032  0.92926  0.70429  Biso   1.000  H
  H206     1.0000 0.07074  0.33105  0.70429  Biso   1.000  H
  H207     1.0000 0.66895  0.73968  0.70429  Biso   1.000  H
  H208     1.0000 0.26260  0.92698  0.46237  Biso   1.000  H
  H209     1.0000 0.66439  0.73740  0.46237  Biso   1.000  H
  H210     1.0000 0.07302  0.33561  0.46237  Biso   1.000  H
  H211     1.0000 0.92698  0.26260  0.03763  Biso   1.000  H
  H212     1.0000 0.73740  0.66439  0.03763  Biso   1.000  H
  H213     1.0000 0.33561  0.07302  0.03763  Biso   1.000  H
  H214     1.0000 0.92926  0.26032  0.79571  Biso   1.000  H
  H215     1.0000 0.33105  0.07074  0.79571  Biso   1.000  H
  H216     1.0000 0.73968  0.66895  0.79571  Biso   1.000  H
  C433     1.0000 0.32713  0.42405  0.59923  Biso   1.000  C
  C434     1.0000 0.57595  0.90308  0.59923  Biso   1.000  C
  C435     1.0000 0.09692  0.67287  0.59923  Biso   1.000  C
  C436     1.0000 0.42405  0.32713  0.90077  Biso   1.000  C
  C437     1.0000 0.90308  0.57595  0.90077  Biso   1.000  C
  C438     1.0000 0.67287  0.09692  0.90077  Biso   1.000  C
  C439     1.0000 0.99380  0.75738  0.93256  Biso   1.000  C
  C440     1.0000 0.24262  0.23641  0.93256  Biso   1.000  C
  C441     1.0000 0.76359  0.00620  0.93256  Biso   1.000  C
  C442     1.0000 0.09072  0.66046  0.23410  Biso   1.000  C
  C443     1.0000 0.56975  0.90928  0.23410  Biso   1.000  C
  C444     1.0000 0.33954  0.43025  0.23410  Biso   1.000  C
  C445     1.0000 0.66046  0.09072  0.26590  Biso   1.000  C
  C446     1.0000 0.90928  0.56975  0.26590  Biso   1.000  C
  C447     1.0000 0.43025  0.33954  0.26590  Biso   1.000  C
  C448     1.0000 0.75738  0.99380  0.56744  Biso   1.000  C
  C449     1.0000 0.23641  0.24262  0.56744  Biso   1.000  C
  C450     1.0000 0.00620  0.76359  0.56744  Biso   1.000  C
  C451     1.0000 0.67287  0.57595  0.40077  Biso   1.000  C
  C452     1.0000 0.42405  0.09692  0.40077  Biso   1.000  C
  C453     1.0000 0.90308  0.32713  0.40077  Biso   1.000  C
  C454     1.0000 0.57595  0.67287  0.09923  Biso   1.000  C
  C455     1.0000 0.09692  0.42405  0.09923  Biso   1.000  C
  C456     1.0000 0.32713  0.90308  0.09923  Biso   1.000  C
  C457     1.0000 0.33954  0.90928  0.73410  Biso   1.000  C
  C458     1.0000 0.09072  0.43025  0.73410  Biso   1.000  C
  C459     1.0000 0.56975  0.66046  0.73410  Biso   1.000  C
  C460     1.0000 0.24262  0.00620  0.43256  Biso   1.000  C
  C461     1.0000 0.76359  0.75738  0.43256  Biso   1.000  C
  C462     1.0000 0.99380  0.23641  0.43256  Biso   1.000  C
  C463     1.0000 0.00620  0.24262  0.06744  Biso   1.000  C
  C464     1.0000 0.75738  0.76359  0.06744  Biso   1.000  C
  C465     1.0000 0.23641  0.99380  0.06744  Biso   1.000  C
  C466     1.0000 0.90928  0.33954  0.76590  Biso   1.000  C
  C467     1.0000 0.43025  0.09072  0.76590  Biso   1.000  C
  C468     1.0000 0.66046  0.56975  0.76590  Biso   1.000  C
  O1       1.0000 0.31652  0.44609  0.58326  Biso   1.000  O
  O2       1.0000 0.55391  0.87043  0.58326  Biso   1.000  O
  O3       1.0000 0.12957  0.68348  0.58326  Biso   1.000  O
  O4       1.0000 0.44609  0.31652  0.91674  Biso   1.000  O
  O5       1.0000 0.87043  0.55391  0.91674  Biso   1.000  O
  O6       1.0000 0.68348  0.12957  0.91674  Biso   1.000  O
  O7       1.0000 0.98319  0.77942  0.91659  Biso   1.000  O
  O8       1.0000 0.22058  0.20376  0.91659  Biso   1.000  O
  O9       1.0000 0.79624  0.01681  0.91659  Biso   1.000  O
  O10      1.0000 0.11276  0.64985  0.25007  Biso   1.000  O
  O11      1.0000 0.53710  0.88724  0.25007  Biso   1.000  O
  O12      1.0000 0.35015  0.46290  0.25007  Biso   1.000  O
  O13      1.0000 0.64985  0.11276  0.24993  Biso   1.000  O
  O14      1.0000 0.88724  0.53710  0.24993  Biso   1.000  O
  O15      1.0000 0.46290  0.35015  0.24993  Biso   1.000  O
  O16      1.0000 0.77942  0.98319  0.58341  Biso   1.000  O
  O17      1.0000 0.20376  0.22058  0.58341  Biso   1.000  O
  O18      1.0000 0.01681  0.79624  0.58341  Biso   1.000  O
  O19      1.0000 0.68348  0.55391  0.41674  Biso   1.000  O
  O20      1.0000 0.44609  0.12957  0.41674  Biso   1.000  O
  O21      1.0000 0.87043  0.31652  0.41674  Biso   1.000  O
  O22      1.0000 0.55391  0.68348  0.08326  Biso   1.000  O
  O23      1.0000 0.12957  0.44609  0.08326  Biso   1.000  O
  O24      1.0000 0.31652  0.87043  0.08326  Biso   1.000  O
  O25      1.0000 0.35015  0.88724  0.75007  Biso   1.000  O
  O26      1.0000 0.11276  0.46290  0.75007  Biso   1.000  O
  O27      1.0000 0.53710  0.64985  0.75007  Biso   1.000  O
  O28      1.0000 0.22058  0.01681  0.41659  Biso   1.000  O
  O29      1.0000 0.79624  0.77942  0.41659  Biso   1.000  O
  O30      1.0000 0.98319  0.20376  0.41659  Biso   1.000  O
  O31      1.0000 0.01681  0.22058  0.08341  Biso   1.000  O
  O32      1.0000 0.77942  0.79624  0.08341  Biso   1.000  O
  O33      1.0000 0.20376  0.98319  0.08341  Biso   1.000  O
  O34      1.0000 0.88724  0.35015  0.74993  Biso   1.000  O
  O35      1.0000 0.46290  0.11276  0.74993  Biso   1.000  O
  O36      1.0000 0.64985  0.53710  0.74993  Biso   1.000  O
  O37      1.0000 0.27407  0.35852  0.60793  Biso   1.000  O
  O38      1.0000 0.64148  0.91555  0.60793  Biso   1.000  O
  O39      1.0000 0.08445  0.72593  0.60793  Biso   1.000  O
  O40      1.0000 0.35852  0.27407  0.89207  Biso   1.000  O
  O41      1.0000 0.91555  0.64148  0.89207  Biso   1.000  O
  O42      1.0000 0.72593  0.08445  0.89207  Biso   1.000  O
  O43      1.0000 0.94074  0.69185  0.94126  Biso   1.000  O
  O44      1.0000 0.30815  0.24888  0.94126  Biso   1.000  O
  O45      1.0000 0.75112  0.05926  0.94126  Biso   1.000  O
  O46      1.0000 0.02519  0.60740  0.22540  Biso   1.000  O
  O47      1.0000 0.58222  0.97481  0.22540  Biso   1.000  O
  O48      1.0000 0.39260  0.41778  0.22540  Biso   1.000  O
  O49      1.0000 0.60740  0.02519  0.27460  Biso   1.000  O
  O50      1.0000 0.97481  0.58222  0.27460  Biso   1.000  O
  O51      1.0000 0.41778  0.39260  0.27460  Biso   1.000  O
  O52      1.0000 0.69185  0.94074  0.55874  Biso   1.000  O
  O53      1.0000 0.24888  0.30815  0.55874  Biso   1.000  O
  O54      1.0000 0.05926  0.75112  0.55874  Biso   1.000  O
  O55      1.0000 0.72593  0.64148  0.39207  Biso   1.000  O
  O56      1.0000 0.35852  0.08445  0.39207  Biso   1.000  O
  O57      1.0000 0.91555  0.27407  0.39207  Biso   1.000  O
  O58      1.0000 0.64148  0.72593  0.10793  Biso   1.000  O
  O59      1.0000 0.08445  0.35852  0.10793  Biso   1.000  O
  O60      1.0000 0.27407  0.91555  0.10793  Biso   1.000  O
  O61      1.0000 0.39260  0.97481  0.72540  Biso   1.000  O
  O62      1.0000 0.02519  0.41778  0.72540  Biso   1.000  O
  O63      1.0000 0.58222  0.60740  0.72540  Biso   1.000  O
  O64      1.0000 0.30815  0.05926  0.44126  Biso   1.000  O
  O65      1.0000 0.75112  0.69185  0.44126  Biso   1.000  O
  O66      1.0000 0.94074  0.24888  0.44126  Biso   1.000  O
  O67      1.0000 0.05926  0.30815  0.05874  Biso   1.000  O
  O68      1.0000 0.69185  0.75112  0.05874  Biso   1.000  O
  O69      1.0000 0.24888  0.94074  0.05874  Biso   1.000  O
  O70      1.0000 0.97481  0.39260  0.77460  Biso   1.000  O
  O71      1.0000 0.41778  0.02519  0.77460  Biso   1.000  O
  O72      1.0000 0.60740  0.58222  0.77460  Biso   1.000  O
  C469     1.0000 0.58750  0.71103  0.60041  Biso   1.000  C
  C470     1.0000 0.28897  0.87647  0.60041  Biso   1.000  C
  C471     1.0000 0.12353  0.41250  0.60041  Biso   1.000  C
  C472     1.0000 0.71103  0.58750  0.89959  Biso   1.000  C
  C473     1.0000 0.87647  0.28897  0.89959  Biso   1.000  C
  C474     1.0000 0.41250  0.12353  0.89959  Biso   1.000  C
  C475     1.0000 0.25417  0.04436  0.93374  Biso   1.000  C
  C476     1.0000 0.95564  0.20980  0.93374  Biso   1.000  C
  C477     1.0000 0.79020  0.74583  0.93374  Biso   1.000  C
  C478     1.0000 0.37770  0.92083  0.23292  Biso   1.000  C
  C479     1.0000 0.54314  0.62230  0.23292  Biso   1.000  C
  C480     1.0000 0.07917  0.45686  0.23292  Biso   1.000  C
  C481     1.0000 0.92083  0.37770  0.26708  Biso   1.000  C
  C482     1.0000 0.62230  0.54314  0.26708  Biso   1.000  C
  C483     1.0000 0.45686  0.07917  0.26708  Biso   1.000  C
  C484     1.0000 0.04436  0.25417  0.56626  Biso   1.000  C
  C485     1.0000 0.20980  0.95564  0.56626  Biso   1.000  C
  C486     1.0000 0.74583  0.79020  0.56626  Biso   1.000  C
  C487     1.0000 0.41250  0.28897  0.39959  Biso   1.000  C
  C488     1.0000 0.71103  0.12353  0.39959  Biso   1.000  C
  C489     1.0000 0.87647  0.58750  0.39959  Biso   1.000  C
  C490     1.0000 0.28897  0.41250  0.10041  Biso   1.000  C
  C491     1.0000 0.12353  0.71103  0.10041  Biso   1.000  C
  C492     1.0000 0.58750  0.87647  0.10041  Biso   1.000  C
  C493     1.0000 0.07917  0.62230  0.73292  Biso   1.000  C
  C494     1.0000 0.37770  0.45686  0.73292  Biso   1.000  C
  C495     1.0000 0.54314  0.92083  0.73292  Biso   1.000  C
  C496     1.0000 0.95564  0.74583  0.43374  Biso   1.000  C
  C497     1.0000 0.79020  0.04436  0.43374  Biso   1.000  C
  C498     1.0000 0.25417  0.20980  0.43374  Biso   1.000  C
  C499     1.0000 0.74583  0.95564  0.06626  Biso   1.000  C
  C500     1.0000 0.04436  0.79020  0.06626  Biso   1.000  C
  C501     1.0000 0.20980  0.25417  0.06626  Biso   1.000  C
  C502     1.0000 0.62230  0.07917  0.76708  Biso   1.000  C
  C503     1.0000 0.45686  0.37770  0.76708  Biso   1.000  C
  C504     1.0000 0.92083  0.54314  0.76708  Biso   1.000  C
  O73      1.0000 0.56101  0.72175  0.58506  Biso   1.000  O
  O74      1.0000 0.27825  0.83926  0.58506  Biso   1.000  O
  O75      1.0000 0.16074  0.43899  0.58506  Biso   1.000  O
  O76      1.0000 0.72175  0.56101  0.91494  Biso   1.000  O
  O77      1.0000 0.83926  0.27825  0.91494  Biso   1.000  O
  O78      1.0000 0.43899  0.16074  0.91494  Biso   1.000  O
  O79      1.0000 0.22768  0.05508  0.91839  Biso   1.000  O
  O80      1.0000 0.94492  0.17259  0.91839  Biso   1.000  O
  O81      1.0000 0.82741  0.77232  0.91839  Biso   1.000  O
  O82      1.0000 0.38842  0.89434  0.24827  Biso   1.000  O
  O83      1.0000 0.50593  0.61158  0.24827  Biso   1.000  O
  O84      1.0000 0.10566  0.49407  0.24827  Biso   1.000  O
  O85      1.0000 0.89434  0.38842  0.25173  Biso   1.000  O
  O86      1.0000 0.61158  0.50593  0.25173  Biso   1.000  O
  O87      1.0000 0.49407  0.10566  0.25173  Biso   1.000  O
  O88      1.0000 0.05508  0.22768  0.58161  Biso   1.000  O
  O89      1.0000 0.17259  0.94492  0.58161  Biso   1.000  O
  O90      1.0000 0.77232  0.82741  0.58161  Biso   1.000  O
  O91      1.0000 0.43899  0.27825  0.41494  Biso   1.000  O
  O92      1.0000 0.72175  0.16074  0.41494  Biso   1.000  O
  O93      1.0000 0.83926  0.56101  0.41494  Biso   1.000  O
  O94      1.0000 0.27825  0.43899  0.08506  Biso   1.000  O
  O95      1.0000 0.16074  0.72175  0.08506  Biso   1.000  O
  O96      1.0000 0.56101  0.83926  0.08506  Biso   1.000  O
  O97      1.0000 0.10566  0.61158  0.74827  Biso   1.000  O
  O98      1.0000 0.38842  0.49407  0.74827  Biso   1.000  O
  O99      1.0000 0.50593  0.89434  0.74827  Biso   1.000  O
  O100     1.0000 0.94492  0.77232  0.41839  Biso   1.000  O
  O101     1.0000 0.82741  0.05508  0.41839  Biso   1.000  O
  O102     1.0000 0.22768  0.17259  0.41839  Biso   1.000  O
  O103     1.0000 0.77232  0.94492  0.08161  Biso   1.000  O
  O104     1.0000 0.05508  0.82741  0.08161  Biso   1.000  O
  O105     1.0000 0.17259  0.22768  0.08161  Biso   1.000  O
  O106     1.0000 0.61158  0.10566  0.75173  Biso   1.000  O
  O107     1.0000 0.49407  0.38842  0.75173  Biso   1.000  O
  O108     1.0000 0.89434  0.50593  0.75173  Biso   1.000  O
  O109     1.0000 0.65206  0.76675  0.60908  Biso   1.000  O
  O110     1.0000 0.23325  0.88531  0.60908  Biso   1.000  O
  O111     1.0000 0.11469  0.34794  0.60908  Biso   1.000  O
  O112     1.0000 0.76675  0.65206  0.89092  Biso   1.000  O
  O113     1.0000 0.88531  0.23325  0.89092  Biso   1.000  O
  O114     1.0000 0.34794  0.11469  0.89092  Biso   1.000  O
  O115     1.0000 0.31873  0.10008  0.94241  Biso   1.000  O
  O116     1.0000 0.89992  0.21864  0.94241  Biso   1.000  O
  O117     1.0000 0.78136  0.68127  0.94241  Biso   1.000  O
  O118     1.0000 0.43342  0.98539  0.22425  Biso   1.000  O
  O119     1.0000 0.55198  0.56658  0.22425  Biso   1.000  O
  O120     1.0000 0.01461  0.44802  0.22425  Biso   1.000  O
  O121     1.0000 0.98539  0.43342  0.27575  Biso   1.000  O
  O122     1.0000 0.56658  0.55198  0.27575  Biso   1.000  O
  O123     1.0000 0.44802  0.01461  0.27575  Biso   1.000  O
  O124     1.0000 0.10008  0.31873  0.55759  Biso   1.000  O
  O125     1.0000 0.21864  0.89992  0.55759  Biso   1.000  O
  O126     1.0000 0.68127  0.78136  0.55759  Biso   1.000  O
  O127     1.0000 0.34794  0.23325  0.39092  Biso   1.000  O
  O128     1.0000 0.76675  0.11469  0.39092  Biso   1.000  O
  O129     1.0000 0.88531  0.65206  0.39092  Biso   1.000  O
  O130     1.0000 0.23325  0.34794  0.10908  Biso   1.000  O
  O131     1.0000 0.11469  0.76675  0.10908  Biso   1.000  O
  O132     1.0000 0.65206  0.88531  0.10908  Biso   1.000  O
  O133     1.0000 0.01461  0.56658  0.72425  Biso   1.000  O
  O134     1.0000 0.43342  0.44802  0.72425  Biso   1.000  O
  O135     1.0000 0.55198  0.98539  0.72425  Biso   1.000  O
  O136     1.0000 0.89992  0.68127  0.44241  Biso   1.000  O
  O137     1.0000 0.78136  0.10008  0.44241  Biso   1.000  O
  O138     1.0000 0.31873  0.21864  0.44241  Biso   1.000  O
  O139     1.0000 0.68127  0.89992  0.05759  Biso   1.000  O
  O140     1.0000 0.10008  0.78136  0.05759  Biso   1.000  O
  O141     1.0000 0.21864  0.31873  0.05759  Biso   1.000  O
  O142     1.0000 0.56658  0.01461  0.77575  Biso   1.000  O
  O143     1.0000 0.44802  0.43342  0.77575  Biso   1.000  O
  O144     1.0000 0.98539  0.55198  0.77575  Biso   1.000  O
