data_image0
_cell_length_a       18.1817
_cell_length_b       18.1817
_cell_length_c       49.5775
_cell_angle_alpha    90
_cell_angle_beta     90
_cell_angle_gamma    120

_symmetry_space_group_name_H-M    "P 1"
_symmetry_int_tables_number       1

loop_
  _symmetry_equiv_pos_as_xyz
  'x, y, z'

loop_
  _atom_site_label
  _atom_site_occupancy
  _atom_site_fract_x
  _atom_site_fract_y
  _atom_site_fract_z
  _atom_site_thermal_displace_type
  _atom_site_B_iso_or_equiv
  _atom_site_type_symbol
  Cu1      1.0000 0.38550  0.19274  0.64567  Biso   1.000  Cu
  Cu2      1.0000 0.80726  0.19276  0.64567  Biso   1.000  Cu
  Cu3      1.0000 0.80724  0.61450  0.64567  Biso   1.000  Cu
  Cu4      1.0000 0.05217  0.52607  0.97900  Biso   1.000  Cu
  Cu5      1.0000 0.47393  0.52609  0.97900  Biso   1.000  Cu
  Cu6      1.0000 0.47391  0.94783  0.97900  Biso   1.000  Cu
  Cu7      1.0000 0.71883  0.85941  0.31234  Biso   1.000  Cu
  Cu8      1.0000 0.14059  0.85943  0.31234  Biso   1.000  Cu
  Cu9      1.0000 0.14057  0.28117  0.31234  Biso   1.000  Cu
  Cu10     1.0000 0.61450  0.80726  0.35433  Biso   1.000  Cu
  Cu11     1.0000 0.19274  0.80724  0.35433  Biso   1.000  Cu
  Cu12     1.0000 0.19276  0.38550  0.35433  Biso   1.000  Cu
  Cu13     1.0000 0.28117  0.14059  0.68766  Biso   1.000  Cu
  Cu14     1.0000 0.85941  0.14057  0.68766  Biso   1.000  Cu
  Cu15     1.0000 0.85943  0.71883  0.68766  Biso   1.000  Cu
  Cu16     1.0000 0.94783  0.47393  0.02100  Biso   1.000  Cu
  Cu17     1.0000 0.52607  0.47391  0.02100  Biso   1.000  Cu
  Cu18     1.0000 0.52609  0.05217  0.02100  Biso   1.000  Cu
  O1       1.0000 0.44204  0.29648  0.66716  Biso   1.000  O
  O2       1.0000 0.70352  0.14556  0.66716  Biso   1.000  O
  O3       1.0000 0.85444  0.55796  0.66716  Biso   1.000  O
  O4       1.0000 0.10871  0.62981  0.00049  Biso   1.000  O
  O5       1.0000 0.37019  0.47889  0.00049  Biso   1.000  O
  O6       1.0000 0.52111  0.89129  0.00049  Biso   1.000  O
  O7       1.0000 0.77537  0.96315  0.33383  Biso   1.000  O
  O8       1.0000 0.03685  0.81223  0.33383  Biso   1.000  O
  O9       1.0000 0.18777  0.22463  0.33383  Biso   1.000  O
  O10      1.0000 0.55796  0.70352  0.33284  Biso   1.000  O
  O11      1.0000 0.29648  0.85444  0.33284  Biso   1.000  O
  O12      1.0000 0.14556  0.44204  0.33284  Biso   1.000  O
  O13      1.0000 0.22463  0.03685  0.66617  Biso   1.000  O
  O14      1.0000 0.96315  0.18777  0.66617  Biso   1.000  O
  O15      1.0000 0.81223  0.77537  0.66617  Biso   1.000  O
  O16      1.0000 0.89129  0.37019  0.99951  Biso   1.000  O
  O17      1.0000 0.62981  0.52111  0.99951  Biso   1.000  O
  O18      1.0000 0.47889  0.10871  0.99951  Biso   1.000  O
  O19      1.0000 0.31074  0.07975  0.63024  Biso   1.000  O
  O20      1.0000 0.92025  0.23099  0.63024  Biso   1.000  O
  O21      1.0000 0.76901  0.68926  0.63024  Biso   1.000  O
  O22      1.0000 0.97741  0.41308  0.96357  Biso   1.000  O
  O23      1.0000 0.58692  0.56432  0.96357  Biso   1.000  O
  O24      1.0000 0.43568  0.02259  0.96357  Biso   1.000  O
  O25      1.0000 0.64407  0.74642  0.29691  Biso   1.000  O
  O26      1.0000 0.25358  0.89766  0.29691  Biso   1.000  O
  O27      1.0000 0.10234  0.35593  0.29691  Biso   1.000  O
  O28      1.0000 0.68926  0.92025  0.36976  Biso   1.000  O
  O29      1.0000 0.07975  0.76901  0.36976  Biso   1.000  O
  O30      1.0000 0.23099  0.31074  0.36976  Biso   1.000  O
  O31      1.0000 0.35593  0.25358  0.70309  Biso   1.000  O
  O32      1.0000 0.74642  0.10234  0.70309  Biso   1.000  O
  O33      1.0000 0.89766  0.64407  0.70309  Biso   1.000  O
  O34      1.0000 0.02259  0.58692  0.03643  Biso   1.000  O
  O35      1.0000 0.41308  0.43568  0.03643  Biso   1.000  O
  O36      1.0000 0.56432  0.97741  0.03643  Biso   1.000  O
  O37      1.0000 0.44224  0.14559  0.66709  Biso   1.000  O
  O38      1.0000 0.85441  0.29665  0.66709  Biso   1.000  O
  O39      1.0000 0.70335  0.55776  0.66709  Biso   1.000  O
  O40      1.0000 0.10891  0.47892  0.00042  Biso   1.000  O
  O41      1.0000 0.52108  0.62998  0.00042  Biso   1.000  O
  O42      1.0000 0.37002  0.89109  0.00042  Biso   1.000  O
  O43      1.0000 0.77557  0.81226  0.33376  Biso   1.000  O
  O44      1.0000 0.18774  0.96332  0.33376  Biso   1.000  O
  O45      1.0000 0.03668  0.22443  0.33376  Biso   1.000  O
  O46      1.0000 0.55776  0.85441  0.33291  Biso   1.000  O
  O47      1.0000 0.14559  0.70335  0.33291  Biso   1.000  O
  O48      1.0000 0.29665  0.44224  0.33291  Biso   1.000  O
  O49      1.0000 0.22443  0.18774  0.66624  Biso   1.000  O
  O50      1.0000 0.81226  0.03668  0.66624  Biso   1.000  O
  O51      1.0000 0.96332  0.77557  0.66624  Biso   1.000  O
  O52      1.0000 0.89109  0.52108  0.99958  Biso   1.000  O
  O53      1.0000 0.47892  0.37002  0.99958  Biso   1.000  O
  O54      1.0000 0.62998  0.10891  0.99958  Biso   1.000  O
  O55      1.0000 0.31076  0.23104  0.63024  Biso   1.000  O
  O56      1.0000 0.76896  0.07972  0.63024  Biso   1.000  O
  O57      1.0000 0.92028  0.68924  0.63024  Biso   1.000  O
  O58      1.0000 0.97743  0.56437  0.96357  Biso   1.000  O
  O59      1.0000 0.43563  0.41305  0.96357  Biso   1.000  O
  O60      1.0000 0.58695  0.02257  0.96357  Biso   1.000  O
  O61      1.0000 0.64409  0.89771  0.29691  Biso   1.000  O
  O62      1.0000 0.10229  0.74639  0.29691  Biso   1.000  O
  O63      1.0000 0.25361  0.35591  0.29691  Biso   1.000  O
  O64      1.0000 0.68924  0.76896  0.36976  Biso   1.000  O
  O65      1.0000 0.23104  0.92028  0.36976  Biso   1.000  O
  O66      1.0000 0.07972  0.31076  0.36976  Biso   1.000  O
  O67      1.0000 0.35591  0.10229  0.70309  Biso   1.000  O
  O68      1.0000 0.89771  0.25361  0.70309  Biso   1.000  O
  O69      1.0000 0.74639  0.64409  0.70309  Biso   1.000  O
  O70      1.0000 0.02257  0.43563  0.03643  Biso   1.000  O
  O71      1.0000 0.56437  0.58695  0.03643  Biso   1.000  O
  O72      1.0000 0.41305  0.97743  0.03643  Biso   1.000  O
  N1       1.0000 0.47100  0.25190  0.61208  Biso   1.000  N
  N2       1.0000 0.74810  0.21910  0.61208  Biso   1.000  N
  N3       1.0000 0.78090  0.52900  0.61208  Biso   1.000  N
  N4       1.0000 0.13767  0.58523  0.94541  Biso   1.000  N
  N5       1.0000 0.41477  0.55243  0.94541  Biso   1.000  N
  N6       1.0000 0.44757  0.86233  0.94541  Biso   1.000  N
  N7       1.0000 0.80433  0.91857  0.27875  Biso   1.000  N
  N8       1.0000 0.08143  0.88577  0.27875  Biso   1.000  N
  N9       1.0000 0.11423  0.19567  0.27875  Biso   1.000  N
  N10      1.0000 0.52900  0.74810  0.38792  Biso   1.000  N
  N11      1.0000 0.25190  0.78090  0.38792  Biso   1.000  N
  N12      1.0000 0.21910  0.47100  0.38792  Biso   1.000  N
  N13      1.0000 0.19567  0.08143  0.72125  Biso   1.000  N
  N14      1.0000 0.91857  0.11423  0.72125  Biso   1.000  N
  N15      1.0000 0.88577  0.80433  0.72125  Biso   1.000  N
  N16      1.0000 0.86233  0.41477  0.05459  Biso   1.000  N
  N17      1.0000 0.58523  0.44757  0.05459  Biso   1.000  N
  N18      1.0000 0.55243  0.13767  0.05459  Biso   1.000  N
  C1       1.0000 0.42040  0.30722  0.69039  Biso   1.000  C
  C2       1.0000 0.69278  0.11318  0.69039  Biso   1.000  C
  C3       1.0000 0.88682  0.57960  0.69039  Biso   1.000  C
  C4       1.0000 0.08707  0.64055  0.02372  Biso   1.000  C
  C5       1.0000 0.35945  0.44651  0.02372  Biso   1.000  C
  C6       1.0000 0.55349  0.91293  0.02372  Biso   1.000  C
  C7       1.0000 0.75373  0.97389  0.35706  Biso   1.000  C
  C8       1.0000 0.02611  0.77985  0.35706  Biso   1.000  C
  C9       1.0000 0.22015  0.24627  0.35706  Biso   1.000  C
  C10      1.0000 0.57960  0.69278  0.30961  Biso   1.000  C
  C11      1.0000 0.30722  0.88682  0.30961  Biso   1.000  C
  C12      1.0000 0.11318  0.42040  0.30961  Biso   1.000  C
  C13      1.0000 0.24627  0.02611  0.64294  Biso   1.000  C
  C14      1.0000 0.97389  0.22015  0.64294  Biso   1.000  C
  C15      1.0000 0.77985  0.75373  0.64294  Biso   1.000  C
  C16      1.0000 0.91293  0.35945  0.97628  Biso   1.000  C
  C17      1.0000 0.64055  0.55349  0.97628  Biso   1.000  C
  C18      1.0000 0.44651  0.08707  0.97628  Biso   1.000  C
  C19      1.0000 0.47746  0.38985  0.70356  Biso   1.000  C
  C20      1.0000 0.61015  0.08761  0.70356  Biso   1.000  C
  C21      1.0000 0.91239  0.52254  0.70356  Biso   1.000  C
  C22      1.0000 0.14413  0.72318  0.03689  Biso   1.000  C
  C23      1.0000 0.27682  0.42094  0.03689  Biso   1.000  C
  C24      1.0000 0.57906  0.85587  0.03689  Biso   1.000  C
  C25      1.0000 0.81079  0.05652  0.37023  Biso   1.000  C
  C26      1.0000 0.94348  0.75428  0.37023  Biso   1.000  C
  C27      1.0000 0.24572  0.18921  0.37023  Biso   1.000  C
  C28      1.0000 0.52254  0.61015  0.29644  Biso   1.000  C
  C29      1.0000 0.38985  0.91239  0.29644  Biso   1.000  C
  C30      1.0000 0.08761  0.47746  0.29644  Biso   1.000  C
  C31      1.0000 0.18921  0.94348  0.62977  Biso   1.000  C
  C32      1.0000 0.05652  0.24572  0.62977  Biso   1.000  C
  C33      1.0000 0.75428  0.81079  0.62977  Biso   1.000  C
  C34      1.0000 0.85587  0.27682  0.96311  Biso   1.000  C
  C35      1.0000 0.72318  0.57906  0.96311  Biso   1.000  C
  C36      1.0000 0.42094  0.14413  0.96311  Biso   1.000  C
  C37      1.0000 0.55273  0.44712  0.69099  Biso   1.000  C
  C38      1.0000 0.55288  0.10561  0.69099  Biso   1.000  C
  C39      1.0000 0.89439  0.44727  0.69099  Biso   1.000  C
  C40      1.0000 0.21940  0.78045  0.02432  Biso   1.000  C
  C41      1.0000 0.21955  0.43894  0.02432  Biso   1.000  C
  C42      1.0000 0.56106  0.78060  0.02432  Biso   1.000  C
  C43      1.0000 0.88606  0.11379  0.35766  Biso   1.000  C
  C44      1.0000 0.88621  0.77228  0.35766  Biso   1.000  C
  C45      1.0000 0.22772  0.11394  0.35766  Biso   1.000  C
  C46      1.0000 0.44727  0.55288  0.30901  Biso   1.000  C
  C47      1.0000 0.44712  0.89439  0.30901  Biso   1.000  C
  C48      1.0000 0.10561  0.55273  0.30901  Biso   1.000  C
  C49      1.0000 0.11394  0.88621  0.64234  Biso   1.000  C
  C50      1.0000 0.11379  0.22772  0.64234  Biso   1.000  C
  C51      1.0000 0.77228  0.88606  0.64234  Biso   1.000  C
  C52      1.0000 0.78060  0.21955  0.97568  Biso   1.000  C
  C53      1.0000 0.78045  0.56106  0.97568  Biso   1.000  C
  C54      1.0000 0.43894  0.21940  0.97568  Biso   1.000  C
  C55      1.0000 0.45810  0.40888  0.72898  Biso   1.000  C
  C56      1.0000 0.59112  0.04922  0.72898  Biso   1.000  C
  C57      1.0000 0.95078  0.54190  0.72898  Biso   1.000  C
  C58      1.0000 0.12477  0.74221  0.06231  Biso   1.000  C
  C59      1.0000 0.25779  0.38255  0.06231  Biso   1.000  C
  C60      1.0000 0.61745  0.87523  0.06231  Biso   1.000  C
  C61      1.0000 0.79143  0.07555  0.39565  Biso   1.000  C
  C62      1.0000 0.92445  0.71589  0.39565  Biso   1.000  C
  C63      1.0000 0.28411  0.20857  0.39565  Biso   1.000  C
  C64      1.0000 0.54190  0.59112  0.27102  Biso   1.000  C
  C65      1.0000 0.40888  0.95078  0.27102  Biso   1.000  C
  C66      1.0000 0.04922  0.45810  0.27102  Biso   1.000  C
  C67      1.0000 0.20857  0.92445  0.60435  Biso   1.000  C
  C68      1.0000 0.07555  0.28411  0.60435  Biso   1.000  C
  C69      1.0000 0.71589  0.79143  0.60435  Biso   1.000  C
  C70      1.0000 0.87523  0.25779  0.93769  Biso   1.000  C
  C71      1.0000 0.74221  0.61745  0.93769  Biso   1.000  C
  C72      1.0000 0.38255  0.12477  0.93769  Biso   1.000  C
  H1       1.0000 0.56540  0.43460  0.67360  Biso   1.000  H
  H2       1.0000 0.56540  0.13080  0.67360  Biso   1.000  H
  H3       1.0000 0.86920  0.43460  0.67360  Biso   1.000  H
  H4       1.0000 0.23207  0.76793  0.00693  Biso   1.000  H
  H5       1.0000 0.23207  0.46413  0.00693  Biso   1.000  H
  H6       1.0000 0.53587  0.76793  0.00693  Biso   1.000  H
  H7       1.0000 0.89873  0.10127  0.34027  Biso   1.000  H
  H8       1.0000 0.89873  0.79747  0.34027  Biso   1.000  H
  H9       1.0000 0.20253  0.10127  0.34027  Biso   1.000  H
  H10      1.0000 0.43460  0.56540  0.32640  Biso   1.000  H
  H11      1.0000 0.43460  0.86920  0.32640  Biso   1.000  H
  H12      1.0000 0.13080  0.56540  0.32640  Biso   1.000  H
  H13      1.0000 0.10127  0.89873  0.65973  Biso   1.000  H
  H14      1.0000 0.10127  0.20253  0.65973  Biso   1.000  H
  H15      1.0000 0.79747  0.89873  0.65973  Biso   1.000  H
  H16      1.0000 0.76793  0.23207  0.99307  Biso   1.000  H
  H17      1.0000 0.76793  0.53587  0.99307  Biso   1.000  H
  H18      1.0000 0.46413  0.23207  0.99307  Biso   1.000  H
  C73      1.0000 0.61004  0.52279  0.70363  Biso   1.000  C
  C74      1.0000 0.47721  0.08725  0.70363  Biso   1.000  C
  C75      1.0000 0.91275  0.38996  0.70363  Biso   1.000  C
  C76      1.0000 0.27671  0.85612  0.03696  Biso   1.000  C
  C77      1.0000 0.14388  0.42058  0.03696  Biso   1.000  C
  C78      1.0000 0.57942  0.72329  0.03696  Biso   1.000  C
  C79      1.0000 0.94337  0.18946  0.37030  Biso   1.000  C
  C80      1.0000 0.81054  0.75392  0.37030  Biso   1.000  C
  C81      1.0000 0.24608  0.05663  0.37030  Biso   1.000  C
  C82      1.0000 0.38996  0.47721  0.29637  Biso   1.000  C
  C83      1.0000 0.52279  0.91275  0.29637  Biso   1.000  C
  C84      1.0000 0.08725  0.61004  0.29637  Biso   1.000  C
  C85      1.0000 0.05663  0.81054  0.62970  Biso   1.000  C
  C86      1.0000 0.18946  0.24608  0.62970  Biso   1.000  C
  C87      1.0000 0.75392  0.94337  0.62970  Biso   1.000  C
  C88      1.0000 0.72329  0.14388  0.96304  Biso   1.000  C
  C89      1.0000 0.85612  0.57942  0.96304  Biso   1.000  C
  C90      1.0000 0.42058  0.27671  0.96304  Biso   1.000  C
  C91      1.0000 0.51480  0.48490  0.74176  Biso   1.000  C
  C92      1.0000 0.51510  0.02990  0.74176  Biso   1.000  C
  C93      1.0000 0.97010  0.48520  0.74176  Biso   1.000  C
  C94      1.0000 0.18147  0.81823  0.07509  Biso   1.000  C
  C95      1.0000 0.18177  0.36323  0.07509  Biso   1.000  C
  C96      1.0000 0.63677  0.81853  0.07509  Biso   1.000  C
  C97      1.0000 0.84813  0.15157  0.40843  Biso   1.000  C
  C98      1.0000 0.84843  0.69657  0.40843  Biso   1.000  C
  C99      1.0000 0.30343  0.15187  0.40843  Biso   1.000  C
  C100     1.0000 0.48520  0.51510  0.25824  Biso   1.000  C
  C101     1.0000 0.48490  0.97010  0.25824  Biso   1.000  C
  C102     1.0000 0.02990  0.51480  0.25824  Biso   1.000  C
  C103     1.0000 0.15187  0.84843  0.59157  Biso   1.000  C
  C104     1.0000 0.15157  0.30343  0.59157  Biso   1.000  C
  C105     1.0000 0.69657  0.84813  0.59157  Biso   1.000  C
  C106     1.0000 0.81853  0.18177  0.92491  Biso   1.000  C
  C107     1.0000 0.81823  0.63677  0.92491  Biso   1.000  C
  C108     1.0000 0.36323  0.18147  0.92491  Biso   1.000  C
  H19      1.0000 0.40630  0.37000  0.73760  Biso   1.000  H
  H20      1.0000 0.63000  0.03630  0.73760  Biso   1.000  H
  H21      1.0000 0.96370  0.59370  0.73760  Biso   1.000  H
  H22      1.0000 0.07297  0.70333  0.07093  Biso   1.000  H
  H23      1.0000 0.29667  0.36963  0.07093  Biso   1.000  H
  H24      1.0000 0.63037  0.92703  0.07093  Biso   1.000  H
  H25      1.0000 0.73963  0.03667  0.40427  Biso   1.000  H
  H26      1.0000 0.96333  0.70297  0.40427  Biso   1.000  H
  H27      1.0000 0.29703  0.26037  0.40427  Biso   1.000  H
  H28      1.0000 0.59370  0.63000  0.26240  Biso   1.000  H
  H29      1.0000 0.37000  0.96370  0.26240  Biso   1.000  H
  H30      1.0000 0.03630  0.40630  0.26240  Biso   1.000  H
  H31      1.0000 0.26037  0.96333  0.59573  Biso   1.000  H
  H32      1.0000 0.03667  0.29703  0.59573  Biso   1.000  H
  H33      1.0000 0.70297  0.73963  0.59573  Biso   1.000  H
  H34      1.0000 0.92703  0.29667  0.92907  Biso   1.000  H
  H35      1.0000 0.70333  0.63037  0.92907  Biso   1.000  H
  H36      1.0000 0.36963  0.07297  0.92907  Biso   1.000  H
  C109     1.0000 0.69282  0.57943  0.69034  Biso   1.000  C
  C110     1.0000 0.42057  0.11339  0.69034  Biso   1.000  C
  C111     1.0000 0.88661  0.30718  0.69034  Biso   1.000  C
  C112     1.0000 0.35949  0.91276  0.02367  Biso   1.000  C
  C113     1.0000 0.08724  0.44672  0.02367  Biso   1.000  C
  C114     1.0000 0.55328  0.64051  0.02367  Biso   1.000  C
  C115     1.0000 0.02615  0.24610  0.35701  Biso   1.000  C
  C116     1.0000 0.75390  0.78006  0.35701  Biso   1.000  C
  C117     1.0000 0.21994  0.97385  0.35701  Biso   1.000  C
  C118     1.0000 0.30718  0.42057  0.30966  Biso   1.000  C
  C119     1.0000 0.57943  0.88661  0.30966  Biso   1.000  C
  C120     1.0000 0.11339  0.69282  0.30966  Biso   1.000  C
  C121     1.0000 0.97385  0.75390  0.64299  Biso   1.000  C
  C122     1.0000 0.24610  0.21994  0.64299  Biso   1.000  C
  C123     1.0000 0.78006  0.02615  0.64299  Biso   1.000  C
  C124     1.0000 0.64051  0.08724  0.97633  Biso   1.000  C
  C125     1.0000 0.91276  0.55328  0.97633  Biso   1.000  C
  C126     1.0000 0.44672  0.35949  0.97633  Biso   1.000  C
  C127     1.0000 0.59113  0.54170  0.72901  Biso   1.000  C
  C128     1.0000 0.45830  0.04943  0.72901  Biso   1.000  C
  C129     1.0000 0.95057  0.40887  0.72901  Biso   1.000  C
  C130     1.0000 0.25780  0.87503  0.06234  Biso   1.000  C
  C131     1.0000 0.12497  0.38276  0.06234  Biso   1.000  C
  C132     1.0000 0.61724  0.74220  0.06234  Biso   1.000  C
  C133     1.0000 0.92446  0.20837  0.39568  Biso   1.000  C
  C134     1.0000 0.79163  0.71610  0.39568  Biso   1.000  C
  C135     1.0000 0.28390  0.07554  0.39568  Biso   1.000  C
  C136     1.0000 0.40887  0.45830  0.27099  Biso   1.000  C
  C137     1.0000 0.54170  0.95057  0.27099  Biso   1.000  C
  C138     1.0000 0.04943  0.59113  0.27099  Biso   1.000  C
  C139     1.0000 0.07554  0.79163  0.60432  Biso   1.000  C
  C140     1.0000 0.20837  0.28390  0.60432  Biso   1.000  C
  C141     1.0000 0.71610  0.92446  0.60432  Biso   1.000  C
  C142     1.0000 0.74220  0.12497  0.93766  Biso   1.000  C
  C143     1.0000 0.87503  0.61724  0.93766  Biso   1.000  C
  C144     1.0000 0.38276  0.25780  0.93766  Biso   1.000  C
  C145     1.0000 0.49660  0.50320  0.76829  Biso   1.000  C
  C146     1.0000 0.49680  0.99340  0.76829  Biso   1.000  C
  C147     1.0000 0.00660  0.50340  0.76829  Biso   1.000  C
  C148     1.0000 0.16327  0.83653  0.10162  Biso   1.000  C
  C149     1.0000 0.16347  0.32673  0.10162  Biso   1.000  C
  C150     1.0000 0.67327  0.83673  0.10162  Biso   1.000  C
  C151     1.0000 0.82993  0.16987  0.43496  Biso   1.000  C
  C152     1.0000 0.83013  0.66007  0.43496  Biso   1.000  C
  C153     1.0000 0.33993  0.17007  0.43496  Biso   1.000  C
  C154     1.0000 0.50340  0.49680  0.23171  Biso   1.000  C
  C155     1.0000 0.50320  0.00660  0.23171  Biso   1.000  C
  C156     1.0000 0.99340  0.49660  0.23171  Biso   1.000  C
  C157     1.0000 0.17007  0.83013  0.56504  Biso   1.000  C
  C158     1.0000 0.16987  0.33993  0.56504  Biso   1.000  C
  C159     1.0000 0.66007  0.82993  0.56504  Biso   1.000  C
  C160     1.0000 0.83673  0.16347  0.89838  Biso   1.000  C
  C161     1.0000 0.83653  0.67327  0.89838  Biso   1.000  C
  C162     1.0000 0.32673  0.16327  0.89838  Biso   1.000  C
  H37      1.0000 0.63010  0.59330  0.73770  Biso   1.000  H
  H38      1.0000 0.40670  0.03680  0.73770  Biso   1.000  H
  H39      1.0000 0.96320  0.36990  0.73770  Biso   1.000  H
  H40      1.0000 0.29677  0.92663  0.07103  Biso   1.000  H
  H41      1.0000 0.07337  0.37013  0.07103  Biso   1.000  H
  H42      1.0000 0.62987  0.70323  0.07103  Biso   1.000  H
  H43      1.0000 0.96343  0.25997  0.40437  Biso   1.000  H
  H44      1.0000 0.74003  0.70347  0.40437  Biso   1.000  H
  H45      1.0000 0.29653  0.03657  0.40437  Biso   1.000  H
  H46      1.0000 0.36990  0.40670  0.26230  Biso   1.000  H
  H47      1.0000 0.59330  0.96320  0.26230  Biso   1.000  H
  H48      1.0000 0.03680  0.63010  0.26230  Biso   1.000  H
  H49      1.0000 0.03657  0.74003  0.59563  Biso   1.000  H
  H50      1.0000 0.25997  0.29653  0.59563  Biso   1.000  H
  H51      1.0000 0.70347  0.96343  0.59563  Biso   1.000  H
  H52      1.0000 0.70323  0.07337  0.92897  Biso   1.000  H
  H53      1.0000 0.92663  0.62987  0.92897  Biso   1.000  H
  H54      1.0000 0.37013  0.29677  0.92897  Biso   1.000  H
  C163     1.0000 0.47480  0.50810  0.79035  Biso   1.000  C
  C164     1.0000 0.49190  0.96670  0.79035  Biso   1.000  C
  C165     1.0000 0.03330  0.52520  0.79035  Biso   1.000  C
  C166     1.0000 0.14147  0.84143  0.12368  Biso   1.000  C
  C167     1.0000 0.15857  0.30003  0.12368  Biso   1.000  C
  C168     1.0000 0.69997  0.85853  0.12368  Biso   1.000  C
  C169     1.0000 0.80813  0.17477  0.45702  Biso   1.000  C
  C170     1.0000 0.82523  0.63337  0.45702  Biso   1.000  C
  C171     1.0000 0.36663  0.19187  0.45702  Biso   1.000  C
  C172     1.0000 0.52520  0.49190  0.20965  Biso   1.000  C
  C173     1.0000 0.50810  0.03330  0.20965  Biso   1.000  C
  C174     1.0000 0.96670  0.47480  0.20965  Biso   1.000  C
  C175     1.0000 0.19187  0.82523  0.54298  Biso   1.000  C
  C176     1.0000 0.17477  0.36663  0.54298  Biso   1.000  C
  C177     1.0000 0.63337  0.80813  0.54298  Biso   1.000  C
  C178     1.0000 0.85853  0.15857  0.87632  Biso   1.000  C
  C179     1.0000 0.84143  0.69997  0.87632  Biso   1.000  C
  C180     1.0000 0.30003  0.14147  0.87632  Biso   1.000  C
  C181     1.0000 0.45210  0.52080  0.81724  Biso   1.000  C
  C182     1.0000 0.47920  0.93130  0.81724  Biso   1.000  C
  C183     1.0000 0.06870  0.54790  0.81724  Biso   1.000  C
  C184     1.0000 0.11877  0.85413  0.15057  Biso   1.000  C
  C185     1.0000 0.14587  0.26463  0.15057  Biso   1.000  C
  C186     1.0000 0.73537  0.88123  0.15057  Biso   1.000  C
  C187     1.0000 0.78543  0.18747  0.48391  Biso   1.000  C
  C188     1.0000 0.81253  0.59797  0.48391  Biso   1.000  C
  C189     1.0000 0.40203  0.21457  0.48391  Biso   1.000  C
  C190     1.0000 0.54790  0.47920  0.18276  Biso   1.000  C
  C191     1.0000 0.52080  0.06870  0.18276  Biso   1.000  C
  C192     1.0000 0.93130  0.45210  0.18276  Biso   1.000  C
  C193     1.0000 0.21457  0.81253  0.51609  Biso   1.000  C
  C194     1.0000 0.18747  0.40203  0.51609  Biso   1.000  C
  C195     1.0000 0.59797  0.78543  0.51609  Biso   1.000  C
  C196     1.0000 0.88123  0.14587  0.84943  Biso   1.000  C
  C197     1.0000 0.85413  0.73537  0.84943  Biso   1.000  C
  C198     1.0000 0.26463  0.11877  0.84943  Biso   1.000  C
  C199     1.0000 0.36950  0.46730  0.82632  Biso   1.000  C
  C200     1.0000 0.53270  0.90220  0.82632  Biso   1.000  C
  C201     1.0000 0.09780  0.63050  0.82632  Biso   1.000  C
  C202     1.0000 0.03617  0.80063  0.15965  Biso   1.000  C
  C203     1.0000 0.19937  0.23553  0.15965  Biso   1.000  C
  C204     1.0000 0.76447  0.96383  0.15965  Biso   1.000  C
  C205     1.0000 0.70283  0.13397  0.49299  Biso   1.000  C
  C206     1.0000 0.86603  0.56887  0.49299  Biso   1.000  C
  C207     1.0000 0.43113  0.29717  0.49299  Biso   1.000  C
  C208     1.0000 0.63050  0.53270  0.17368  Biso   1.000  C
  C209     1.0000 0.46730  0.09780  0.17368  Biso   1.000  C
  C210     1.0000 0.90220  0.36950  0.17368  Biso   1.000  C
  C211     1.0000 0.29717  0.86603  0.50701  Biso   1.000  C
  C212     1.0000 0.13397  0.43113  0.50701  Biso   1.000  C
  C213     1.0000 0.56887  0.70283  0.50701  Biso   1.000  C
  C214     1.0000 0.96383  0.19937  0.84035  Biso   1.000  C
  C215     1.0000 0.80063  0.76447  0.84035  Biso   1.000  C
  C216     1.0000 0.23553  0.03617  0.84035  Biso   1.000  C
  C217     1.0000 0.51350  0.58090  0.83447  Biso   1.000  C
  C218     1.0000 0.41910  0.93260  0.83447  Biso   1.000  C
  C219     1.0000 0.06740  0.48650  0.83447  Biso   1.000  C
  C220     1.0000 0.18017  0.91423  0.16780  Biso   1.000  C
  C221     1.0000 0.08577  0.26593  0.16780  Biso   1.000  C
  C222     1.0000 0.73407  0.81983  0.16780  Biso   1.000  C
  C223     1.0000 0.84683  0.24757  0.50114  Biso   1.000  C
  C224     1.0000 0.75243  0.59927  0.50114  Biso   1.000  C
  C225     1.0000 0.40073  0.15317  0.50114  Biso   1.000  C
  C226     1.0000 0.48650  0.41910  0.16553  Biso   1.000  C
  C227     1.0000 0.58090  0.06740  0.16553  Biso   1.000  C
  C228     1.0000 0.93260  0.51350  0.16553  Biso   1.000  C
  C229     1.0000 0.15317  0.75243  0.49886  Biso   1.000  C
  C230     1.0000 0.24757  0.40073  0.49886  Biso   1.000  C
  C231     1.0000 0.59927  0.84683  0.49886  Biso   1.000  C
  C232     1.0000 0.81983  0.08577  0.83220  Biso   1.000  C
  C233     1.0000 0.91423  0.73407  0.83220  Biso   1.000  C
  C234     1.0000 0.26593  0.18017  0.83220  Biso   1.000  C
  H55      1.0000 0.32790  0.42640  0.81460  Biso   1.000  H
  H56      1.0000 0.57360  0.90150  0.81460  Biso   1.000  H
  H57      1.0000 0.09850  0.67210  0.81460  Biso   1.000  H
  H58      1.0000 0.99457  0.75973  0.14793  Biso   1.000  H
  H59      1.0000 0.24027  0.23483  0.14793  Biso   1.000  H
  H60      1.0000 0.76517  0.00543  0.14793  Biso   1.000  H
  H61      1.0000 0.66123  0.09307  0.48127  Biso   1.000  H
  H62      1.0000 0.90693  0.56817  0.48127  Biso   1.000  H
  H63      1.0000 0.43183  0.33877  0.48127  Biso   1.000  H
  H64      1.0000 0.67210  0.57360  0.18540  Biso   1.000  H
  H65      1.0000 0.42640  0.09850  0.18540  Biso   1.000  H
  H66      1.0000 0.90150  0.32790  0.18540  Biso   1.000  H
  H67      1.0000 0.33877  0.90693  0.51873  Biso   1.000  H
  H68      1.0000 0.09307  0.43183  0.51873  Biso   1.000  H
  H69      1.0000 0.56817  0.66123  0.51873  Biso   1.000  H
  H70      1.0000 0.00543  0.24027  0.85207  Biso   1.000  H
  H71      1.0000 0.75973  0.76517  0.85207  Biso   1.000  H
  H72      1.0000 0.23483  0.99457  0.85207  Biso   1.000  H
  C235     1.0000 0.34850  0.47450  0.85269  Biso   1.000  C
  C236     1.0000 0.52550  0.87400  0.85269  Biso   1.000  C
  C237     1.0000 0.12600  0.65150  0.85269  Biso   1.000  C
  C238     1.0000 0.01517  0.80783  0.18602  Biso   1.000  C
  C239     1.0000 0.19217  0.20733  0.18602  Biso   1.000  C
  C240     1.0000 0.79267  0.98483  0.18602  Biso   1.000  C
  C241     1.0000 0.68183  0.14117  0.51936  Biso   1.000  C
  C242     1.0000 0.85883  0.54067  0.51936  Biso   1.000  C
  C243     1.0000 0.45933  0.31817  0.51936  Biso   1.000  C
  C244     1.0000 0.65150  0.52550  0.14731  Biso   1.000  C
  C245     1.0000 0.47450  0.12600  0.14731  Biso   1.000  C
  C246     1.0000 0.87400  0.34850  0.14731  Biso   1.000  C
  C247     1.0000 0.31817  0.85883  0.48064  Biso   1.000  C
  C248     1.0000 0.14117  0.45933  0.48064  Biso   1.000  C
  C249     1.0000 0.54067  0.68183  0.48064  Biso   1.000  C
  C250     1.0000 0.98483  0.19217  0.81398  Biso   1.000  C
  C251     1.0000 0.80783  0.79267  0.81398  Biso   1.000  C
  C252     1.0000 0.20733  0.01517  0.81398  Biso   1.000  C
  C253     1.0000 0.49120  0.58650  0.86121  Biso   1.000  C
  C254     1.0000 0.41350  0.90470  0.86121  Biso   1.000  C
  C255     1.0000 0.09530  0.50880  0.86121  Biso   1.000  C
  C256     1.0000 0.15787  0.91983  0.19454  Biso   1.000  C
  C257     1.0000 0.08017  0.23803  0.19454  Biso   1.000  C
  C258     1.0000 0.76197  0.84213  0.19454  Biso   1.000  C
  C259     1.0000 0.82453  0.25317  0.52788  Biso   1.000  C
  C260     1.0000 0.74683  0.57137  0.52788  Biso   1.000  C
  C261     1.0000 0.42863  0.17547  0.52788  Biso   1.000  C
  C262     1.0000 0.50880  0.41350  0.13879  Biso   1.000  C
  C263     1.0000 0.58650  0.09530  0.13879  Biso   1.000  C
  C264     1.0000 0.90470  0.49120  0.13879  Biso   1.000  C
  C265     1.0000 0.17547  0.74683  0.47212  Biso   1.000  C
  C266     1.0000 0.25317  0.42863  0.47212  Biso   1.000  C
  C267     1.0000 0.57137  0.82453  0.47212  Biso   1.000  C
  C268     1.0000 0.84213  0.08017  0.80546  Biso   1.000  C
  C269     1.0000 0.91983  0.76197  0.80546  Biso   1.000  C
  C270     1.0000 0.23803  0.15787  0.80546  Biso   1.000  C
  H73      1.0000 0.56960  0.61760  0.82820  Biso   1.000  H
  H74      1.0000 0.38240  0.95200  0.82820  Biso   1.000  H
  H75      1.0000 0.04800  0.43040  0.82820  Biso   1.000  H
  H76      1.0000 0.23627  0.95093  0.16153  Biso   1.000  H
  H77      1.0000 0.04907  0.28533  0.16153  Biso   1.000  H
  H78      1.0000 0.71467  0.76373  0.16153  Biso   1.000  H
  H79      1.0000 0.90293  0.28427  0.49487  Biso   1.000  H
  H80      1.0000 0.71573  0.61867  0.49487  Biso   1.000  H
  H81      1.0000 0.38133  0.09707  0.49487  Biso   1.000  H
  H82      1.0000 0.43040  0.38240  0.17180  Biso   1.000  H
  H83      1.0000 0.61760  0.04800  0.17180  Biso   1.000  H
  H84      1.0000 0.95200  0.56960  0.17180  Biso   1.000  H
  H85      1.0000 0.09707  0.71573  0.50513  Biso   1.000  H
  H86      1.0000 0.28427  0.38133  0.50513  Biso   1.000  H
  H87      1.0000 0.61867  0.90293  0.50513  Biso   1.000  H
  H88      1.0000 0.76373  0.04907  0.83847  Biso   1.000  H
  H89      1.0000 0.95093  0.71467  0.83847  Biso   1.000  H
  H90      1.0000 0.28533  0.23627  0.83847  Biso   1.000  H
  H91      1.0000 0.29240  0.43760  0.85900  Biso   1.000  H
  H92      1.0000 0.56240  0.85480  0.85900  Biso   1.000  H
  H93      1.0000 0.14520  0.70760  0.85900  Biso   1.000  H
  H94      1.0000 0.95907  0.77093  0.19233  Biso   1.000  H
  H95      1.0000 0.22907  0.18813  0.19233  Biso   1.000  H
  H96      1.0000 0.81187  0.04093  0.19233  Biso   1.000  H
  H97      1.0000 0.62573  0.10427  0.52567  Biso   1.000  H
  H98      1.0000 0.89573  0.52147  0.52567  Biso   1.000  H
  H99      1.0000 0.47853  0.37427  0.52567  Biso   1.000  H
  H100     1.0000 0.70760  0.56240  0.14100  Biso   1.000  H
  H101     1.0000 0.43760  0.14520  0.14100  Biso   1.000  H
  H102     1.0000 0.85480  0.29240  0.14100  Biso   1.000  H
  H103     1.0000 0.37427  0.89573  0.47433  Biso   1.000  H
  H104     1.0000 0.10427  0.47853  0.47433  Biso   1.000  H
  H105     1.0000 0.52147  0.62573  0.47433  Biso   1.000  H
  H106     1.0000 0.04093  0.22907  0.80767  Biso   1.000  H
  H107     1.0000 0.77093  0.81187  0.80767  Biso   1.000  H
  H108     1.0000 0.18813  0.95907  0.80767  Biso   1.000  H
  C271     1.0000 0.40870  0.53530  0.87032  Biso   1.000  C
  C272     1.0000 0.46470  0.87340  0.87032  Biso   1.000  C
  C273     1.0000 0.12660  0.59130  0.87032  Biso   1.000  C
  C274     1.0000 0.07537  0.86863  0.20365  Biso   1.000  C
  C275     1.0000 0.13137  0.20673  0.20365  Biso   1.000  C
  C276     1.0000 0.79327  0.92463  0.20365  Biso   1.000  C
  C277     1.0000 0.74203  0.20197  0.53699  Biso   1.000  C
  C278     1.0000 0.79803  0.54007  0.53699  Biso   1.000  C
  C279     1.0000 0.45993  0.25797  0.53699  Biso   1.000  C
  C280     1.0000 0.59130  0.46470  0.12968  Biso   1.000  C
  C281     1.0000 0.53530  0.12660  0.12968  Biso   1.000  C
  C282     1.0000 0.87340  0.40870  0.12968  Biso   1.000  C
  C283     1.0000 0.25797  0.79803  0.46301  Biso   1.000  C
  C284     1.0000 0.20197  0.45993  0.46301  Biso   1.000  C
  C285     1.0000 0.54007  0.74203  0.46301  Biso   1.000  C
  C286     1.0000 0.92463  0.13137  0.79635  Biso   1.000  C
  C287     1.0000 0.86863  0.79327  0.79635  Biso   1.000  C
  C288     1.0000 0.20673  0.07537  0.79635  Biso   1.000  C
  H109     1.0000 0.53320  0.62590  0.87320  Biso   1.000  H
  H110     1.0000 0.37410  0.90730  0.87320  Biso   1.000  H
  H111     1.0000 0.09270  0.46680  0.87320  Biso   1.000  H
  H112     1.0000 0.19987  0.95923  0.20653  Biso   1.000  H
  H113     1.0000 0.04077  0.24063  0.20653  Biso   1.000  H
  H114     1.0000 0.75937  0.80013  0.20653  Biso   1.000  H
  H115     1.0000 0.86653  0.29257  0.53987  Biso   1.000  H
  H116     1.0000 0.70743  0.57397  0.53987  Biso   1.000  H
  H117     1.0000 0.42603  0.13347  0.53987  Biso   1.000  H
  H118     1.0000 0.46680  0.37410  0.12680  Biso   1.000  H
  H119     1.0000 0.62590  0.09270  0.12680  Biso   1.000  H
  H120     1.0000 0.90730  0.53320  0.12680  Biso   1.000  H
  H121     1.0000 0.13347  0.70743  0.46013  Biso   1.000  H
  H122     1.0000 0.29257  0.42603  0.46013  Biso   1.000  H
  H123     1.0000 0.57397  0.86653  0.46013  Biso   1.000  H
  H124     1.0000 0.80013  0.04077  0.79347  Biso   1.000  H
  H125     1.0000 0.95923  0.75937  0.79347  Biso   1.000  H
  H126     1.0000 0.24063  0.19987  0.79347  Biso   1.000  H
  C289     1.0000 0.38660  0.54080  0.89804  Biso   1.000  C
  C290     1.0000 0.45920  0.84580  0.89804  Biso   1.000  C
  C291     1.0000 0.15420  0.61340  0.89804  Biso   1.000  C
  C292     1.0000 0.05327  0.87413  0.23137  Biso   1.000  C
  C293     1.0000 0.12587  0.17913  0.23137  Biso   1.000  C
  C294     1.0000 0.82087  0.94673  0.23137  Biso   1.000  C
  C295     1.0000 0.71993  0.20747  0.56471  Biso   1.000  C
  C296     1.0000 0.79253  0.51247  0.56471  Biso   1.000  C
  C297     1.0000 0.48753  0.28007  0.56471  Biso   1.000  C
  C298     1.0000 0.61340  0.45920  0.10196  Biso   1.000  C
  C299     1.0000 0.54080  0.15420  0.10196  Biso   1.000  C
  C300     1.0000 0.84580  0.38660  0.10196  Biso   1.000  C
  C301     1.0000 0.28007  0.79253  0.43529  Biso   1.000  C
  C302     1.0000 0.20747  0.48753  0.43529  Biso   1.000  C
  C303     1.0000 0.51247  0.71993  0.43529  Biso   1.000  C
  C304     1.0000 0.94673  0.12587  0.76863  Biso   1.000  C
  C305     1.0000 0.87413  0.82087  0.76863  Biso   1.000  C
  C306     1.0000 0.17913  0.05327  0.76863  Biso   1.000  C
  C307     1.0000 0.31040  0.53990  0.90438  Biso   1.000  C
  C308     1.0000 0.46010  0.77050  0.90438  Biso   1.000  C
  C309     1.0000 0.22950  0.68960  0.90438  Biso   1.000  C
  C310     1.0000 0.97707  0.87323  0.23771  Biso   1.000  C
  C311     1.0000 0.12677  0.10383  0.23771  Biso   1.000  C
  C312     1.0000 0.89617  0.02293  0.23771  Biso   1.000  C
  C313     1.0000 0.64373  0.20657  0.57105  Biso   1.000  C
  C314     1.0000 0.79343  0.43717  0.57105  Biso   1.000  C
  C315     1.0000 0.56283  0.35627  0.57105  Biso   1.000  C
  C316     1.0000 0.68960  0.46010  0.09562  Biso   1.000  C
  C317     1.0000 0.53990  0.22950  0.09562  Biso   1.000  C
  C318     1.0000 0.77050  0.31040  0.09562  Biso   1.000  C
  C319     1.0000 0.35627  0.79343  0.42895  Biso   1.000  C
  C320     1.0000 0.20657  0.56283  0.42895  Biso   1.000  C
  C321     1.0000 0.43717  0.64373  0.42895  Biso   1.000  C
  C322     1.0000 0.02293  0.12677  0.76229  Biso   1.000  C
  C323     1.0000 0.87323  0.89617  0.76229  Biso   1.000  C
  C324     1.0000 0.10383  0.97707  0.76229  Biso   1.000  C
  C325     1.0000 0.43590  0.54700  0.92011  Biso   1.000  C
  C326     1.0000 0.45300  0.88890  0.92011  Biso   1.000  C
  C327     1.0000 0.11110  0.56410  0.92011  Biso   1.000  C
  C328     1.0000 0.10257  0.88033  0.25344  Biso   1.000  C
  C329     1.0000 0.11967  0.22223  0.25344  Biso   1.000  C
  C330     1.0000 0.77777  0.89743  0.25344  Biso   1.000  C
  C331     1.0000 0.76923  0.21367  0.58678  Biso   1.000  C
  C332     1.0000 0.78633  0.55557  0.58678  Biso   1.000  C
  C333     1.0000 0.44443  0.23077  0.58678  Biso   1.000  C
  C334     1.0000 0.56410  0.45300  0.07989  Biso   1.000  C
  C335     1.0000 0.54700  0.11110  0.07989  Biso   1.000  C
  C336     1.0000 0.88890  0.43590  0.07989  Biso   1.000  C
  C337     1.0000 0.23077  0.78633  0.41322  Biso   1.000  C
  C338     1.0000 0.21367  0.44443  0.41322  Biso   1.000  C
  C339     1.0000 0.55557  0.76923  0.41322  Biso   1.000  C
  C340     1.0000 0.89743  0.11967  0.74656  Biso   1.000  C
  C341     1.0000 0.88033  0.77777  0.74656  Biso   1.000  C
  C342     1.0000 0.22223  0.10257  0.74656  Biso   1.000  C
  H127     1.0000 0.27380  0.53570  0.89000  Biso   1.000  H
  H128     1.0000 0.46430  0.73810  0.89000  Biso   1.000  H
  H129     1.0000 0.26190  0.72620  0.89000  Biso   1.000  H
  H130     1.0000 0.94047  0.86903  0.22333  Biso   1.000  H
  H131     1.0000 0.13097  0.07143  0.22333  Biso   1.000  H
  H132     1.0000 0.92857  0.05953  0.22333  Biso   1.000  H
  H133     1.0000 0.60713  0.20237  0.55667  Biso   1.000  H
  H134     1.0000 0.79763  0.40477  0.55667  Biso   1.000  H
  H135     1.0000 0.59523  0.39287  0.55667  Biso   1.000  H
  H136     1.0000 0.72620  0.46430  0.11000  Biso   1.000  H
  H137     1.0000 0.53570  0.26190  0.11000  Biso   1.000  H
  H138     1.0000 0.73810  0.27380  0.11000  Biso   1.000  H
  H139     1.0000 0.39287  0.79763  0.44333  Biso   1.000  H
  H140     1.0000 0.20237  0.59523  0.44333  Biso   1.000  H
  H141     1.0000 0.40477  0.60713  0.44333  Biso   1.000  H
  H142     1.0000 0.05953  0.13097  0.77667  Biso   1.000  H
  H143     1.0000 0.86903  0.92857  0.77667  Biso   1.000  H
  H144     1.0000 0.07143  0.94047  0.77667  Biso   1.000  H
  N19      1.0000 0.28740  0.54470  0.92960  Biso   1.000  N
  N20      1.0000 0.45530  0.74270  0.92960  Biso   1.000  N
  N21      1.0000 0.25730  0.71260  0.92960  Biso   1.000  N
  N22      1.0000 0.95407  0.87803  0.26293  Biso   1.000  N
  N23      1.0000 0.12197  0.07603  0.26293  Biso   1.000  N
  N24      1.0000 0.92397  0.04593  0.26293  Biso   1.000  N
  N25      1.0000 0.62073  0.21137  0.59627  Biso   1.000  N
  N26      1.0000 0.78863  0.40937  0.59627  Biso   1.000  N
  N27      1.0000 0.59063  0.37927  0.59627  Biso   1.000  N
  N28      1.0000 0.71260  0.45530  0.07040  Biso   1.000  N
  N29      1.0000 0.54470  0.25730  0.07040  Biso   1.000  N
  N30      1.0000 0.74270  0.28740  0.07040  Biso   1.000  N
  N31      1.0000 0.37927  0.78863  0.40373  Biso   1.000  N
  N32      1.0000 0.21137  0.59063  0.40373  Biso   1.000  N
  N33      1.0000 0.40937  0.62073  0.40373  Biso   1.000  N
  N34      1.0000 0.04593  0.12197  0.73707  Biso   1.000  N
  N35      1.0000 0.87803  0.92397  0.73707  Biso   1.000  N
  N36      1.0000 0.07603  0.95407  0.73707  Biso   1.000  N
  H145     1.0000 0.48760  0.54720  0.91700  Biso   1.000  H
  H146     1.0000 0.45280  0.94040  0.91700  Biso   1.000  H
  H147     1.0000 0.05960  0.51240  0.91700  Biso   1.000  H
  H148     1.0000 0.15427  0.88053  0.25033  Biso   1.000  H
  H149     1.0000 0.11947  0.27373  0.25033  Biso   1.000  H
  H150     1.0000 0.72627  0.84573  0.25033  Biso   1.000  H
  H151     1.0000 0.82093  0.21387  0.58367  Biso   1.000  H
  H152     1.0000 0.78613  0.60707  0.58367  Biso   1.000  H
  H153     1.0000 0.39293  0.17907  0.58367  Biso   1.000  H
  H154     1.0000 0.51240  0.45280  0.08300  Biso   1.000  H
  H155     1.0000 0.54720  0.05960  0.08300  Biso   1.000  H
  H156     1.0000 0.94040  0.48760  0.08300  Biso   1.000  H
  H157     1.0000 0.17907  0.78613  0.41633  Biso   1.000  H
  H158     1.0000 0.21387  0.39293  0.41633  Biso   1.000  H
  H159     1.0000 0.60707  0.82093  0.41633  Biso   1.000  H
  H160     1.0000 0.84573  0.11947  0.74967  Biso   1.000  H
  H161     1.0000 0.88053  0.72627  0.74967  Biso   1.000  H
  H162     1.0000 0.27373  0.15427  0.74967  Biso   1.000  H
  C343     1.0000 0.34150  0.55250  0.94877  Biso   1.000  C
  C344     1.0000 0.44750  0.78900  0.94877  Biso   1.000  C
  C345     1.0000 0.21100  0.65850  0.94877  Biso   1.000  C
  C346     1.0000 0.00817  0.88583  0.28210  Biso   1.000  C
  C347     1.0000 0.11417  0.12233  0.28210  Biso   1.000  C
  C348     1.0000 0.87767  0.99183  0.28210  Biso   1.000  C
  C349     1.0000 0.67483  0.21917  0.61544  Biso   1.000  C
  C350     1.0000 0.78083  0.45567  0.61544  Biso   1.000  C
  C351     1.0000 0.54433  0.32517  0.61544  Biso   1.000  C
  C352     1.0000 0.65850  0.44750  0.05123  Biso   1.000  C
  C353     1.0000 0.55250  0.21100  0.05123  Biso   1.000  C
  C354     1.0000 0.78900  0.34150  0.05123  Biso   1.000  C
  C355     1.0000 0.32517  0.78083  0.38456  Biso   1.000  C
  C356     1.0000 0.21917  0.54433  0.38456  Biso   1.000  C
  C357     1.0000 0.45567  0.67483  0.38456  Biso   1.000  C
  C358     1.0000 0.99183  0.11417  0.71790  Biso   1.000  C
  C359     1.0000 0.88583  0.87767  0.71790  Biso   1.000  C
  C360     1.0000 0.12233  0.00817  0.71790  Biso   1.000  C
  H163     1.0000 0.32710  0.55880  0.96670  Biso   1.000  H
  H164     1.0000 0.44120  0.76830  0.96670  Biso   1.000  H
  H165     1.0000 0.23170  0.67290  0.96670  Biso   1.000  H
  H166     1.0000 0.99377  0.89213  0.30003  Biso   1.000  H
  H167     1.0000 0.10787  0.10163  0.30003  Biso   1.000  H
  H168     1.0000 0.89837  0.00623  0.30003  Biso   1.000  H
  H169     1.0000 0.66043  0.22547  0.63337  Biso   1.000  H
  H170     1.0000 0.77453  0.43497  0.63337  Biso   1.000  H
  H171     1.0000 0.56503  0.33957  0.63337  Biso   1.000  H
  H172     1.0000 0.67290  0.44120  0.03330  Biso   1.000  H
  H173     1.0000 0.55880  0.23170  0.03330  Biso   1.000  H
  H174     1.0000 0.76830  0.32710  0.03330  Biso   1.000  H
  H175     1.0000 0.33957  0.77453  0.36663  Biso   1.000  H
  H176     1.0000 0.22547  0.56503  0.36663  Biso   1.000  H
  H177     1.0000 0.43497  0.66043  0.36663  Biso   1.000  H
  H178     1.0000 0.00623  0.10787  0.69997  Biso   1.000  H
  H179     1.0000 0.89213  0.89837  0.69997  Biso   1.000  H
  H180     1.0000 0.10163  0.99377  0.69997  Biso   1.000  H
  C361     1.0000 0.49150  0.52560  0.79030  Biso   1.000  C
  C362     1.0000 0.47440  0.96590  0.79030  Biso   1.000  C
  C363     1.0000 0.03410  0.50850  0.79030  Biso   1.000  C
  C364     1.0000 0.15817  0.85893  0.12363  Biso   1.000  C
  C365     1.0000 0.14107  0.29923  0.12363  Biso   1.000  C
  C366     1.0000 0.70077  0.84183  0.12363  Biso   1.000  C
  C367     1.0000 0.82483  0.19227  0.45697  Biso   1.000  C
  C368     1.0000 0.80773  0.63257  0.45697  Biso   1.000  C
  C369     1.0000 0.36743  0.17517  0.45697  Biso   1.000  C
  C370     1.0000 0.50850  0.47440  0.20970  Biso   1.000  C
  C371     1.0000 0.52560  0.03410  0.20970  Biso   1.000  C
  C372     1.0000 0.96590  0.49150  0.20970  Biso   1.000  C
  C373     1.0000 0.17517  0.80773  0.54303  Biso   1.000  C
  C374     1.0000 0.19227  0.36743  0.54303  Biso   1.000  C
  C375     1.0000 0.63257  0.82483  0.54303  Biso   1.000  C
  C376     1.0000 0.84183  0.14107  0.87637  Biso   1.000  C
  C377     1.0000 0.85893  0.70077  0.87637  Biso   1.000  C
  C378     1.0000 0.29923  0.15817  0.87637  Biso   1.000  C
  C379     1.0000 0.48170  0.54830  0.81759  Biso   1.000  C
  C380     1.0000 0.45170  0.93340  0.81759  Biso   1.000  C
  C381     1.0000 0.06660  0.51830  0.81759  Biso   1.000  C
  C382     1.0000 0.14837  0.88163  0.15092  Biso   1.000  C
  C383     1.0000 0.11837  0.26673  0.15092  Biso   1.000  C
  C384     1.0000 0.73327  0.85163  0.15092  Biso   1.000  C
  C385     1.0000 0.81503  0.21497  0.48426  Biso   1.000  C
  C386     1.0000 0.78503  0.60007  0.48426  Biso   1.000  C
  C387     1.0000 0.39993  0.18497  0.48426  Biso   1.000  C
  C388     1.0000 0.51830  0.45170  0.18241  Biso   1.000  C
  C389     1.0000 0.54830  0.06660  0.18241  Biso   1.000  C
  C390     1.0000 0.93340  0.48170  0.18241  Biso   1.000  C
  C391     1.0000 0.18497  0.78503  0.51574  Biso   1.000  C
  C392     1.0000 0.21497  0.39993  0.51574  Biso   1.000  C
  C393     1.0000 0.60007  0.81503  0.51574  Biso   1.000  C
  C394     1.0000 0.85163  0.11837  0.84908  Biso   1.000  C
  C395     1.0000 0.88163  0.73327  0.84908  Biso   1.000  C
  C396     1.0000 0.26673  0.14837  0.84908  Biso   1.000  C
  C397     1.0000 0.42120  0.48690  0.83471  Biso   1.000  C
  C398     1.0000 0.51310  0.93430  0.83471  Biso   1.000  C
  C399     1.0000 0.06570  0.57880  0.83471  Biso   1.000  C
  C400     1.0000 0.08787  0.82023  0.16804  Biso   1.000  C
  C401     1.0000 0.17977  0.26763  0.16804  Biso   1.000  C
  C402     1.0000 0.73237  0.91213  0.16804  Biso   1.000  C
  C403     1.0000 0.75453  0.15357  0.50138  Biso   1.000  C
  C404     1.0000 0.84643  0.60097  0.50138  Biso   1.000  C
  C405     1.0000 0.39903  0.24547  0.50138  Biso   1.000  C
  C406     1.0000 0.57880  0.51310  0.16529  Biso   1.000  C
  C407     1.0000 0.48690  0.06570  0.16529  Biso   1.000  C
  C408     1.0000 0.93430  0.42120  0.16529  Biso   1.000  C
  C409     1.0000 0.24547  0.84643  0.49862  Biso   1.000  C
  C410     1.0000 0.15357  0.39903  0.49862  Biso   1.000  C
  C411     1.0000 0.60097  0.75453  0.49862  Biso   1.000  C
  C412     1.0000 0.91213  0.17977  0.83196  Biso   1.000  C
  C413     1.0000 0.82023  0.73237  0.83196  Biso   1.000  C
  C414     1.0000 0.26763  0.08787  0.83196  Biso   1.000  C
  H181     1.0000 0.38570  0.43070  0.82830  Biso   1.000  H
  H182     1.0000 0.56930  0.95500  0.82830  Biso   1.000  H
  H183     1.0000 0.04500  0.61430  0.82830  Biso   1.000  H
  H184     1.0000 0.05237  0.76403  0.16163  Biso   1.000  H
  H185     1.0000 0.23597  0.28833  0.16163  Biso   1.000  H
  H186     1.0000 0.71167  0.94763  0.16163  Biso   1.000  H
  H187     1.0000 0.71903  0.09737  0.49497  Biso   1.000  H
  H188     1.0000 0.90263  0.62167  0.49497  Biso   1.000  H
  H189     1.0000 0.37833  0.28097  0.49497  Biso   1.000  H
  H190     1.0000 0.61430  0.56930  0.17170  Biso   1.000  H
  H191     1.0000 0.43070  0.04500  0.17170  Biso   1.000  H
  H192     1.0000 0.95500  0.38570  0.17170  Biso   1.000  H
  H193     1.0000 0.28097  0.90263  0.50503  Biso   1.000  H
  H194     1.0000 0.09737  0.37833  0.50503  Biso   1.000  H
  H195     1.0000 0.62167  0.71903  0.50503  Biso   1.000  H
  H196     1.0000 0.94763  0.23597  0.83837  Biso   1.000  H
  H197     1.0000 0.76403  0.71167  0.83837  Biso   1.000  H
  H198     1.0000 0.28833  0.05237  0.83837  Biso   1.000  H
  C415     1.0000 0.41270  0.50810  0.86120  Biso   1.000  C
  C416     1.0000 0.49190  0.90460  0.86120  Biso   1.000  C
  C417     1.0000 0.09540  0.58730  0.86120  Biso   1.000  C
  C418     1.0000 0.07937  0.84143  0.19453  Biso   1.000  C
  C419     1.0000 0.15857  0.23793  0.19453  Biso   1.000  C
  C420     1.0000 0.76207  0.92063  0.19453  Biso   1.000  C
  C421     1.0000 0.74603  0.17477  0.52787  Biso   1.000  C
  C422     1.0000 0.82523  0.57127  0.52787  Biso   1.000  C
  C423     1.0000 0.42873  0.25397  0.52787  Biso   1.000  C
  C424     1.0000 0.58730  0.49190  0.13880  Biso   1.000  C
  C425     1.0000 0.50810  0.09540  0.13880  Biso   1.000  C
  C426     1.0000 0.90460  0.41270  0.13880  Biso   1.000  C
  C427     1.0000 0.25397  0.82523  0.47213  Biso   1.000  C
  C428     1.0000 0.17477  0.42873  0.47213  Biso   1.000  C
  C429     1.0000 0.57127  0.74603  0.47213  Biso   1.000  C
  C430     1.0000 0.92063  0.15857  0.80547  Biso   1.000  C
  C431     1.0000 0.84143  0.76207  0.80547  Biso   1.000  C
  C432     1.0000 0.23793  0.07937  0.80547  Biso   1.000  C
  H199     1.0000 0.37200  0.46620  0.87300  Biso   1.000  H
  H200     1.0000 0.53380  0.90580  0.87300  Biso   1.000  H
  H201     1.0000 0.09420  0.62800  0.87300  Biso   1.000  H
  H202     1.0000 0.03867  0.79953  0.20633  Biso   1.000  H
  H203     1.0000 0.20047  0.23913  0.20633  Biso   1.000  H
  H204     1.0000 0.76087  0.96133  0.20633  Biso   1.000  H
  H205     1.0000 0.70533  0.13287  0.53967  Biso   1.000  H
  H206     1.0000 0.86713  0.57247  0.53967  Biso   1.000  H
  H207     1.0000 0.42753  0.29467  0.53967  Biso   1.000  H
  H208     1.0000 0.62800  0.53380  0.12700  Biso   1.000  H
  H209     1.0000 0.46620  0.09420  0.12700  Biso   1.000  H
  H210     1.0000 0.90580  0.37200  0.12700  Biso   1.000  H
  H211     1.0000 0.29467  0.86713  0.46033  Biso   1.000  H
  H212     1.0000 0.13287  0.42753  0.46033  Biso   1.000  H
  H213     1.0000 0.57247  0.70533  0.46033  Biso   1.000  H
  H214     1.0000 0.96133  0.20047  0.79367  Biso   1.000  H
  H215     1.0000 0.79953  0.76087  0.79367  Biso   1.000  H
  H216     1.0000 0.23913  0.03867  0.79367  Biso   1.000  H
  C433     1.0000 0.46450  0.59120  0.87019  Biso   1.000  C
  C434     1.0000 0.40880  0.87330  0.87019  Biso   1.000  C
  C435     1.0000 0.12670  0.53550  0.87019  Biso   1.000  C
  C436     1.0000 0.13117  0.92453  0.20352  Biso   1.000  C
  C437     1.0000 0.07547  0.20663  0.20352  Biso   1.000  C
  C438     1.0000 0.79337  0.86883  0.20352  Biso   1.000  C
  C439     1.0000 0.79783  0.25787  0.53686  Biso   1.000  C
  C440     1.0000 0.74213  0.53997  0.53686  Biso   1.000  C
  C441     1.0000 0.46003  0.20217  0.53686  Biso   1.000  C
  C442     1.0000 0.53550  0.40880  0.12981  Biso   1.000  C
  C443     1.0000 0.59120  0.12670  0.12981  Biso   1.000  C
  C444     1.0000 0.87330  0.46450  0.12981  Biso   1.000  C
  C445     1.0000 0.20217  0.74213  0.46314  Biso   1.000  C
  C446     1.0000 0.25787  0.46003  0.46314  Biso   1.000  C
  C447     1.0000 0.53997  0.79783  0.46314  Biso   1.000  C
  C448     1.0000 0.86883  0.07547  0.79648  Biso   1.000  C
  C449     1.0000 0.92453  0.79337  0.79648  Biso   1.000  C
  C450     1.0000 0.20663  0.13117  0.79648  Biso   1.000  C
  C451     1.0000 0.52390  0.65220  0.85244  Biso   1.000  C
  C452     1.0000 0.34780  0.87170  0.85244  Biso   1.000  C
  C453     1.0000 0.12830  0.47610  0.85244  Biso   1.000  C
  C454     1.0000 0.19057  0.98553  0.18577  Biso   1.000  C
  C455     1.0000 0.01447  0.20503  0.18577  Biso   1.000  C
  C456     1.0000 0.79497  0.80943  0.18577  Biso   1.000  C
  C457     1.0000 0.85723  0.31887  0.51911  Biso   1.000  C
  C458     1.0000 0.68113  0.53837  0.51911  Biso   1.000  C
  C459     1.0000 0.46163  0.14277  0.51911  Biso   1.000  C
  C460     1.0000 0.47610  0.34780  0.14756  Biso   1.000  C
  C461     1.0000 0.65220  0.12830  0.14756  Biso   1.000  C
  C462     1.0000 0.87170  0.52390  0.14756  Biso   1.000  C
  C463     1.0000 0.14277  0.68113  0.48089  Biso   1.000  C
  C464     1.0000 0.31887  0.46163  0.48089  Biso   1.000  C
  C465     1.0000 0.53837  0.85723  0.48089  Biso   1.000  C
  C466     1.0000 0.80943  0.01447  0.81423  Biso   1.000  C
  C467     1.0000 0.98553  0.79497  0.81423  Biso   1.000  C
  C468     1.0000 0.20503  0.19057  0.81423  Biso   1.000  C
  H217     1.0000 0.55830  0.70890  0.85860  Biso   1.000  H
  H218     1.0000 0.29110  0.84940  0.85860  Biso   1.000  H
  H219     1.0000 0.15060  0.44170  0.85860  Biso   1.000  H
  H220     1.0000 0.22497  0.04223  0.19193  Biso   1.000  H
  H221     1.0000 0.95777  0.18273  0.19193  Biso   1.000  H
  H222     1.0000 0.81727  0.77503  0.19193  Biso   1.000  H
  H223     1.0000 0.89163  0.37557  0.52527  Biso   1.000  H
  H224     1.0000 0.62443  0.51607  0.52527  Biso   1.000  H
  H225     1.0000 0.48393  0.10837  0.52527  Biso   1.000  H
  H226     1.0000 0.44170  0.29110  0.14140  Biso   1.000  H
  H227     1.0000 0.70890  0.15060  0.14140  Biso   1.000  H
  H228     1.0000 0.84940  0.55830  0.14140  Biso   1.000  H
  H229     1.0000 0.10837  0.62443  0.47473  Biso   1.000  H
  H230     1.0000 0.37557  0.48393  0.47473  Biso   1.000  H
  H231     1.0000 0.51607  0.89163  0.47473  Biso   1.000  H
  H232     1.0000 0.77503  0.95777  0.80807  Biso   1.000  H
  H233     1.0000 0.04223  0.81727  0.80807  Biso   1.000  H
  H234     1.0000 0.18273  0.22497  0.80807  Biso   1.000  H
  C469     1.0000 0.53400  0.63210  0.82616  Biso   1.000  C
  C470     1.0000 0.36790  0.90190  0.82616  Biso   1.000  C
  C471     1.0000 0.09810  0.46600  0.82616  Biso   1.000  C
  C472     1.0000 0.20067  0.96543  0.15949  Biso   1.000  C
  C473     1.0000 0.03457  0.23523  0.15949  Biso   1.000  C
  C474     1.0000 0.76477  0.79933  0.15949  Biso   1.000  C
  C475     1.0000 0.86733  0.29877  0.49283  Biso   1.000  C
  C476     1.0000 0.70123  0.56857  0.49283  Biso   1.000  C
  C477     1.0000 0.43143  0.13267  0.49283  Biso   1.000  C
  C478     1.0000 0.46600  0.36790  0.17384  Biso   1.000  C
  C479     1.0000 0.63210  0.09810  0.17384  Biso   1.000  C
  C480     1.0000 0.90190  0.53400  0.17384  Biso   1.000  C
  C481     1.0000 0.13267  0.70123  0.50717  Biso   1.000  C
  C482     1.0000 0.29877  0.43143  0.50717  Biso   1.000  C
  C483     1.0000 0.56857  0.86733  0.50717  Biso   1.000  C
  C484     1.0000 0.79933  0.03457  0.84051  Biso   1.000  C
  C485     1.0000 0.96543  0.76477  0.84051  Biso   1.000  C
  C486     1.0000 0.23523  0.20067  0.84051  Biso   1.000  C
  H235     1.0000 0.57490  0.67380  0.81440  Biso   1.000  H
  H236     1.0000 0.32620  0.90110  0.81440  Biso   1.000  H
  H237     1.0000 0.09890  0.42510  0.81440  Biso   1.000  H
  H238     1.0000 0.24157  0.00713  0.14773  Biso   1.000  H
  H239     1.0000 0.99287  0.23443  0.14773  Biso   1.000  H
  H240     1.0000 0.76557  0.75843  0.14773  Biso   1.000  H
  H241     1.0000 0.90823  0.34047  0.48107  Biso   1.000  H
  H242     1.0000 0.65953  0.56777  0.48107  Biso   1.000  H
  H243     1.0000 0.43223  0.09177  0.48107  Biso   1.000  H
  H244     1.0000 0.42510  0.32620  0.18560  Biso   1.000  H
  H245     1.0000 0.67380  0.09890  0.18560  Biso   1.000  H
  H246     1.0000 0.90110  0.57490  0.18560  Biso   1.000  H
  H247     1.0000 0.09177  0.65953  0.51893  Biso   1.000  H
  H248     1.0000 0.34047  0.43223  0.51893  Biso   1.000  H
  H249     1.0000 0.56777  0.90823  0.51893  Biso   1.000  H
  H250     1.0000 0.75843  0.99287  0.85227  Biso   1.000  H
  H251     1.0000 0.00713  0.76557  0.85227  Biso   1.000  H
  H252     1.0000 0.23443  0.24157  0.85227  Biso   1.000  H
  C487     1.0000 0.45960  0.61410  0.89820  Biso   1.000  C
  C488     1.0000 0.38590  0.84550  0.89820  Biso   1.000  C
  C489     1.0000 0.15450  0.54040  0.89820  Biso   1.000  C
  C490     1.0000 0.12627  0.94743  0.23153  Biso   1.000  C
  C491     1.0000 0.05257  0.17883  0.23153  Biso   1.000  C
  C492     1.0000 0.82117  0.87373  0.23153  Biso   1.000  C
  C493     1.0000 0.79293  0.28077  0.56487  Biso   1.000  C
  C494     1.0000 0.71923  0.51217  0.56487  Biso   1.000  C
  C495     1.0000 0.48783  0.20707  0.56487  Biso   1.000  C
  C496     1.0000 0.54040  0.38590  0.10180  Biso   1.000  C
  C497     1.0000 0.61410  0.15450  0.10180  Biso   1.000  C
  C498     1.0000 0.84550  0.45960  0.10180  Biso   1.000  C
  C499     1.0000 0.20707  0.71923  0.43513  Biso   1.000  C
  C500     1.0000 0.28077  0.48783  0.43513  Biso   1.000  C
  C501     1.0000 0.51217  0.79293  0.43513  Biso   1.000  C
  C502     1.0000 0.87373  0.05257  0.76847  Biso   1.000  C
  C503     1.0000 0.94743  0.82117  0.76847  Biso   1.000  C
  C504     1.0000 0.17883  0.12627  0.76847  Biso   1.000  C
  C505     1.0000 0.46180  0.69020  0.90449  Biso   1.000  C
  C506     1.0000 0.30980  0.77160  0.90449  Biso   1.000  C
  C507     1.0000 0.22840  0.53820  0.90449  Biso   1.000  C
  C508     1.0000 0.12847  0.02353  0.23782  Biso   1.000  C
  C509     1.0000 0.97647  0.10493  0.23782  Biso   1.000  C
  C510     1.0000 0.89507  0.87153  0.23782  Biso   1.000  C
  C511     1.0000 0.79513  0.35687  0.57116  Biso   1.000  C
  C512     1.0000 0.64313  0.43827  0.57116  Biso   1.000  C
  C513     1.0000 0.56173  0.20487  0.57116  Biso   1.000  C
  C514     1.0000 0.53820  0.30980  0.09551  Biso   1.000  C
  C515     1.0000 0.69020  0.22840  0.09551  Biso   1.000  C
  C516     1.0000 0.77160  0.46180  0.09551  Biso   1.000  C
  C517     1.0000 0.20487  0.64313  0.42884  Biso   1.000  C
  C518     1.0000 0.35687  0.56173  0.42884  Biso   1.000  C
  C519     1.0000 0.43827  0.79513  0.42884  Biso   1.000  C
  C520     1.0000 0.87153  0.97647  0.76218  Biso   1.000  C
  C521     1.0000 0.02353  0.89507  0.76218  Biso   1.000  C
  C522     1.0000 0.10493  0.12847  0.76218  Biso   1.000  C
  H253     1.0000 0.46780  0.72750  0.89020  Biso   1.000  H
  H254     1.0000 0.27250  0.74030  0.89020  Biso   1.000  H
  H255     1.0000 0.25970  0.53220  0.89020  Biso   1.000  H
  H256     1.0000 0.13447  0.06083  0.22353  Biso   1.000  H
  H257     1.0000 0.93917  0.07363  0.22353  Biso   1.000  H
  H258     1.0000 0.92637  0.86553  0.22353  Biso   1.000  H
  H259     1.0000 0.80113  0.39417  0.55687  Biso   1.000  H
  H260     1.0000 0.60583  0.40697  0.55687  Biso   1.000  H
  H261     1.0000 0.59303  0.19887  0.55687  Biso   1.000  H
  H262     1.0000 0.53220  0.27250  0.10980  Biso   1.000  H
  H263     1.0000 0.72750  0.25970  0.10980  Biso   1.000  H
  H264     1.0000 0.74030  0.46780  0.10980  Biso   1.000  H
  H265     1.0000 0.19887  0.60583  0.44313  Biso   1.000  H
  H266     1.0000 0.39417  0.59303  0.44313  Biso   1.000  H
  H267     1.0000 0.40697  0.80113  0.44313  Biso   1.000  H
  H268     1.0000 0.86553  0.93917  0.77647  Biso   1.000  H
  H269     1.0000 0.06083  0.92637  0.77647  Biso   1.000  H
  H270     1.0000 0.07363  0.13447  0.77647  Biso   1.000  H
  N37      1.0000 0.45580  0.71270  0.92951  Biso   1.000  N
  N38      1.0000 0.28730  0.74310  0.92951  Biso   1.000  N
  N39      1.0000 0.25690  0.54420  0.92951  Biso   1.000  N
  N40      1.0000 0.12247  0.04603  0.26284  Biso   1.000  N
  N41      1.0000 0.95397  0.07643  0.26284  Biso   1.000  N
  N42      1.0000 0.92357  0.87753  0.26284  Biso   1.000  N
  N43      1.0000 0.78913  0.37937  0.59618  Biso   1.000  N
  N44      1.0000 0.62063  0.40977  0.59618  Biso   1.000  N
  N45      1.0000 0.59023  0.21087  0.59618  Biso   1.000  N
  N46      1.0000 0.54420  0.28730  0.07049  Biso   1.000  N
  N47      1.0000 0.71270  0.25690  0.07049  Biso   1.000  N
  N48      1.0000 0.74310  0.45580  0.07049  Biso   1.000  N
  N49      1.0000 0.21087  0.62063  0.40382  Biso   1.000  N
  N50      1.0000 0.37937  0.59023  0.40382  Biso   1.000  N
  N51      1.0000 0.40977  0.78913  0.40382  Biso   1.000  N
  N52      1.0000 0.87753  0.95397  0.73716  Biso   1.000  N
  N53      1.0000 0.04603  0.92357  0.73716  Biso   1.000  N
  N54      1.0000 0.07643  0.12247  0.73716  Biso   1.000  N
  C523     1.0000 0.44830  0.65860  0.94871  Biso   1.000  C
  C524     1.0000 0.34140  0.78970  0.94871  Biso   1.000  C
  C525     1.0000 0.21030  0.55170  0.94871  Biso   1.000  C
  C526     1.0000 0.11497  0.99193  0.28204  Biso   1.000  C
  C527     1.0000 0.00807  0.12303  0.28204  Biso   1.000  C
  C528     1.0000 0.87697  0.88503  0.28204  Biso   1.000  C
  C529     1.0000 0.78163  0.32527  0.61538  Biso   1.000  C
  C530     1.0000 0.67473  0.45637  0.61538  Biso   1.000  C
  C531     1.0000 0.54363  0.21837  0.61538  Biso   1.000  C
  C532     1.0000 0.55170  0.34140  0.05129  Biso   1.000  C
  C533     1.0000 0.65860  0.21030  0.05129  Biso   1.000  C
  C534     1.0000 0.78970  0.44830  0.05129  Biso   1.000  C
  C535     1.0000 0.21837  0.67473  0.38462  Biso   1.000  C
  C536     1.0000 0.32527  0.54363  0.38462  Biso   1.000  C
  C537     1.0000 0.45637  0.78163  0.38462  Biso   1.000  C
  C538     1.0000 0.88503  0.00807  0.71796  Biso   1.000  C
  C539     1.0000 0.99193  0.87697  0.71796  Biso   1.000  C
  C540     1.0000 0.12303  0.11497  0.71796  Biso   1.000  C
  H271     1.0000 0.44280  0.67330  0.96670  Biso   1.000  H
  H272     1.0000 0.32670  0.76950  0.96670  Biso   1.000  H
  H273     1.0000 0.23050  0.55720  0.96670  Biso   1.000  H
  H274     1.0000 0.10947  0.00663  0.30003  Biso   1.000  H
  H275     1.0000 0.99337  0.10283  0.30003  Biso   1.000  H
  H276     1.0000 0.89717  0.89053  0.30003  Biso   1.000  H
  H277     1.0000 0.77613  0.33997  0.63337  Biso   1.000  H
  H278     1.0000 0.66003  0.43617  0.63337  Biso   1.000  H
  H279     1.0000 0.56383  0.22387  0.63337  Biso   1.000  H
  H280     1.0000 0.55720  0.32670  0.03330  Biso   1.000  H
  H281     1.0000 0.67330  0.23050  0.03330  Biso   1.000  H
  H282     1.0000 0.76950  0.44280  0.03330  Biso   1.000  H
  H283     1.0000 0.22387  0.66003  0.36663  Biso   1.000  H
  H284     1.0000 0.33997  0.56383  0.36663  Biso   1.000  H
  H285     1.0000 0.43617  0.77613  0.36663  Biso   1.000  H
  H286     1.0000 0.89053  0.99337  0.69997  Biso   1.000  H
  H287     1.0000 0.00663  0.89717  0.69997  Biso   1.000  H
  H288     1.0000 0.10283  0.10947  0.69997  Biso   1.000  H
  N55      1.0000 0.44770  0.58530  0.94529  Biso   1.000  N
  N56      1.0000 0.41470  0.86240  0.94529  Biso   1.000  N
  N57      1.0000 0.13760  0.55230  0.94529  Biso   1.000  N
  N58      1.0000 0.11437  0.91863  0.27862  Biso   1.000  N
  N59      1.0000 0.08137  0.19573  0.27862  Biso   1.000  N
  N60      1.0000 0.80427  0.88563  0.27862  Biso   1.000  N
  N61      1.0000 0.78103  0.25197  0.61196  Biso   1.000  N
  N62      1.0000 0.74803  0.52907  0.61196  Biso   1.000  N
  N63      1.0000 0.47093  0.21897  0.61196  Biso   1.000  N
  N64      1.0000 0.55230  0.41470  0.05471  Biso   1.000  N
  N65      1.0000 0.58530  0.13760  0.05471  Biso   1.000  N
  N66      1.0000 0.86240  0.44770  0.05471  Biso   1.000  N
  N67      1.0000 0.21897  0.74803  0.38804  Biso   1.000  N
  N68      1.0000 0.25197  0.47093  0.38804  Biso   1.000  N
  N69      1.0000 0.52907  0.78103  0.38804  Biso   1.000  N
  N70      1.0000 0.88563  0.08137  0.72138  Biso   1.000  N
  N71      1.0000 0.91863  0.80427  0.72138  Biso   1.000  N
  N72      1.0000 0.19573  0.11437  0.72138  Biso   1.000  N
  C541     1.0000 0.45260  0.56360  0.92000  Biso   1.000  C
  C542     1.0000 0.43640  0.88900  0.92000  Biso   1.000  C
  C543     1.0000 0.11100  0.54740  0.92000  Biso   1.000  C
  C544     1.0000 0.11927  0.89693  0.25333  Biso   1.000  C
  C545     1.0000 0.10307  0.22233  0.25333  Biso   1.000  C
  C546     1.0000 0.77767  0.88073  0.25333  Biso   1.000  C
  C547     1.0000 0.78593  0.23027  0.58667  Biso   1.000  C
  C548     1.0000 0.76973  0.55567  0.58667  Biso   1.000  C
  C549     1.0000 0.44433  0.21407  0.58667  Biso   1.000  C
  C550     1.0000 0.54740  0.43640  0.08000  Biso   1.000  C
  C551     1.0000 0.56360  0.11100  0.08000  Biso   1.000  C
  C552     1.0000 0.88900  0.45260  0.08000  Biso   1.000  C
  C553     1.0000 0.21407  0.76973  0.41333  Biso   1.000  C
  C554     1.0000 0.23027  0.44433  0.41333  Biso   1.000  C
  C555     1.0000 0.55567  0.78593  0.41333  Biso   1.000  C
  C556     1.0000 0.88073  0.10307  0.74667  Biso   1.000  C
  C557     1.0000 0.89693  0.77767  0.74667  Biso   1.000  C
  C558     1.0000 0.22233  0.11927  0.74667  Biso   1.000  C
  H289     1.0000 0.45130  0.51140  0.91680  Biso   1.000  H
  H290     1.0000 0.48860  0.93990  0.91680  Biso   1.000  H
  H291     1.0000 0.06010  0.54870  0.91680  Biso   1.000  H
  H292     1.0000 0.11797  0.84473  0.25013  Biso   1.000  H
  H293     1.0000 0.15527  0.27323  0.25013  Biso   1.000  H
  H294     1.0000 0.72677  0.88203  0.25013  Biso   1.000  H
  H295     1.0000 0.78463  0.17807  0.58347  Biso   1.000  H
  H296     1.0000 0.82193  0.60657  0.58347  Biso   1.000  H
  H297     1.0000 0.39343  0.21537  0.58347  Biso   1.000  H
  H298     1.0000 0.54870  0.48860  0.08320  Biso   1.000  H
  H299     1.0000 0.51140  0.06010  0.08320  Biso   1.000  H
  H300     1.0000 0.93990  0.45130  0.08320  Biso   1.000  H
  H301     1.0000 0.21537  0.82193  0.41653  Biso   1.000  H
  H302     1.0000 0.17807  0.39343  0.41653  Biso   1.000  H
  H303     1.0000 0.60657  0.78463  0.41653  Biso   1.000  H
  H304     1.0000 0.88203  0.15527  0.74987  Biso   1.000  H
  H305     1.0000 0.84473  0.72677  0.74987  Biso   1.000  H
  H306     1.0000 0.27323  0.11797  0.74987  Biso   1.000  H
