data_image0
_cell_length_a       18.3805
_cell_length_b       18.3805
_cell_length_c       83.574
_cell_angle_alpha    90
_cell_angle_beta     90
_cell_angle_gamma    120

_symmetry_space_group_name_H-M    "P 1"
_symmetry_int_tables_number       1

loop_
  _symmetry_equiv_pos_as_xyz
  'x, y, z'

loop_
  _atom_site_label
  _atom_site_occupancy
  _atom_site_fract_x
  _atom_site_fract_y
  _atom_site_fract_z
  _atom_site_thermal_displace_type
  _atom_site_B_iso_or_equiv
  _atom_site_type_symbol
  Cu1      1.0000 0.61624  0.79455  0.57071  Biso   1.000  Cu
  Cu2      1.0000 0.20545  0.82169  0.57071  Biso   1.000  Cu
  Cu3      1.0000 0.17831  0.38376  0.57071  Biso   1.000  Cu
  Cu4      1.0000 0.82169  0.20545  0.92929  Biso   1.000  Cu
  Cu5      1.0000 0.38376  0.17831  0.92929  Biso   1.000  Cu
  Cu6      1.0000 0.79455  0.61624  0.92929  Biso   1.000  Cu
  Cu7      1.0000 0.28291  0.12788  0.90404  Biso   1.000  Cu
  Cu8      1.0000 0.87212  0.15502  0.90404  Biso   1.000  Cu
  Cu9      1.0000 0.84498  0.71709  0.90404  Biso   1.000  Cu
  Cu10     1.0000 0.48836  0.53878  0.26262  Biso   1.000  Cu
  Cu11     1.0000 0.05043  0.51164  0.26262  Biso   1.000  Cu
  Cu12     1.0000 0.46122  0.94957  0.26262  Biso   1.000  Cu
  Cu13     1.0000 0.94957  0.46122  0.23738  Biso   1.000  Cu
  Cu14     1.0000 0.53878  0.48836  0.23738  Biso   1.000  Cu
  Cu15     1.0000 0.51164  0.05043  0.23738  Biso   1.000  Cu
  Cu16     1.0000 0.15502  0.87212  0.59596  Biso   1.000  Cu
  Cu17     1.0000 0.71709  0.84498  0.59596  Biso   1.000  Cu
  Cu18     1.0000 0.12788  0.28291  0.59596  Biso   1.000  Cu
  Cu19     1.0000 0.38376  0.20545  0.42929  Biso   1.000  Cu
  Cu20     1.0000 0.79455  0.17831  0.42929  Biso   1.000  Cu
  Cu21     1.0000 0.82169  0.61624  0.42929  Biso   1.000  Cu
  Cu22     1.0000 0.17831  0.79455  0.07071  Biso   1.000  Cu
  Cu23     1.0000 0.61624  0.82169  0.07071  Biso   1.000  Cu
  Cu24     1.0000 0.20545  0.38376  0.07071  Biso   1.000  Cu
  Cu25     1.0000 0.05043  0.53878  0.76262  Biso   1.000  Cu
  Cu26     1.0000 0.46122  0.51164  0.76262  Biso   1.000  Cu
  Cu27     1.0000 0.48836  0.94957  0.76262  Biso   1.000  Cu
  Cu28     1.0000 0.84498  0.12788  0.40404  Biso   1.000  Cu
  Cu29     1.0000 0.28291  0.15502  0.40404  Biso   1.000  Cu
  Cu30     1.0000 0.87212  0.71709  0.40404  Biso   1.000  Cu
  Cu31     1.0000 0.71709  0.87212  0.09596  Biso   1.000  Cu
  Cu32     1.0000 0.12788  0.84498  0.09596  Biso   1.000  Cu
  Cu33     1.0000 0.15502  0.28291  0.09596  Biso   1.000  Cu
  Cu34     1.0000 0.51164  0.46122  0.73738  Biso   1.000  Cu
  Cu35     1.0000 0.94957  0.48836  0.73738  Biso   1.000  Cu
  Cu36     1.0000 0.53878  0.05043  0.73738  Biso   1.000  Cu
  N1       1.0000 0.54255  0.41282  0.71648  Biso   1.000  N
  N2       1.0000 0.58718  0.12973  0.71648  Biso   1.000  N
  N3       1.0000 0.87027  0.45745  0.71648  Biso   1.000  N
  N4       1.0000 0.12973  0.58718  0.78352  Biso   1.000  N
  N5       1.0000 0.45745  0.87027  0.78352  Biso   1.000  N
  N6       1.0000 0.41282  0.54255  0.78352  Biso   1.000  N
  N7       1.0000 0.20922  0.74615  0.04981  Biso   1.000  N
  N8       1.0000 0.25385  0.46306  0.04981  Biso   1.000  N
  N9       1.0000 0.53694  0.79078  0.04981  Biso   1.000  N
  N10      1.0000 0.79640  0.92051  0.11685  Biso   1.000  N
  N11      1.0000 0.12412  0.20360  0.11685  Biso   1.000  N
  N12      1.0000 0.07949  0.87588  0.11685  Biso   1.000  N
  N13      1.0000 0.87588  0.07949  0.38315  Biso   1.000  N
  N14      1.0000 0.92051  0.79640  0.38315  Biso   1.000  N
  N15      1.0000 0.20360  0.12412  0.38315  Biso   1.000  N
  N16      1.0000 0.46306  0.25385  0.45019  Biso   1.000  N
  N17      1.0000 0.79078  0.53694  0.45019  Biso   1.000  N
  N18      1.0000 0.74615  0.20922  0.45019  Biso   1.000  N
  N19      1.0000 0.45745  0.58718  0.28352  Biso   1.000  N
  N20      1.0000 0.41282  0.87027  0.28352  Biso   1.000  N
  N21      1.0000 0.12973  0.54255  0.28352  Biso   1.000  N
  N22      1.0000 0.87027  0.41282  0.21648  Biso   1.000  N
  N23      1.0000 0.54255  0.12973  0.21648  Biso   1.000  N
  N24      1.0000 0.58718  0.45745  0.21648  Biso   1.000  N
  N25      1.0000 0.12412  0.92051  0.61685  Biso   1.000  N
  N26      1.0000 0.07949  0.20360  0.61685  Biso   1.000  N
  N27      1.0000 0.79640  0.87588  0.61685  Biso   1.000  N
  N28      1.0000 0.53694  0.74615  0.54981  Biso   1.000  N
  N29      1.0000 0.20922  0.46306  0.54981  Biso   1.000  N
  N30      1.0000 0.25385  0.79078  0.54981  Biso   1.000  N
  N31      1.0000 0.79078  0.25385  0.95019  Biso   1.000  N
  N32      1.0000 0.74615  0.53694  0.95019  Biso   1.000  N
  N33      1.0000 0.46306  0.20922  0.95019  Biso   1.000  N
  N34      1.0000 0.20360  0.07949  0.88315  Biso   1.000  N
  N35      1.0000 0.87588  0.79640  0.88315  Biso   1.000  N
  N36      1.0000 0.92051  0.12412  0.88315  Biso   1.000  N
  C1       1.0000 0.54966  0.34252  0.71687  Biso   1.000  C
  C2       1.0000 0.65748  0.20714  0.71687  Biso   1.000  C
  C3       1.0000 0.79286  0.45034  0.71687  Biso   1.000  C
  C4       1.0000 0.20714  0.65748  0.78313  Biso   1.000  C
  C5       1.0000 0.45034  0.79286  0.78313  Biso   1.000  C
  C6       1.0000 0.34252  0.54966  0.78313  Biso   1.000  C
  C7       1.0000 0.21633  0.67585  0.05020  Biso   1.000  C
  C8       1.0000 0.32415  0.54047  0.05020  Biso   1.000  C
  C9       1.0000 0.45953  0.78367  0.05020  Biso   1.000  C
  C10      1.0000 0.87381  0.99081  0.11646  Biso   1.000  C
  C11      1.0000 0.11701  0.12619  0.11646  Biso   1.000  C
  C12      1.0000 0.00919  0.88299  0.11646  Biso   1.000  C
  C13      1.0000 0.88299  0.00919  0.38354  Biso   1.000  C
  C14      1.0000 0.99081  0.87381  0.38354  Biso   1.000  C
  C15      1.0000 0.12619  0.11701  0.38354  Biso   1.000  C
  C16      1.0000 0.54047  0.32415  0.44980  Biso   1.000  C
  C17      1.0000 0.78367  0.45953  0.44980  Biso   1.000  C
  C18      1.0000 0.67585  0.21633  0.44980  Biso   1.000  C
  C19      1.0000 0.45034  0.65748  0.28313  Biso   1.000  C
  C20      1.0000 0.34252  0.79286  0.28313  Biso   1.000  C
  C21      1.0000 0.20714  0.54966  0.28313  Biso   1.000  C
  C22      1.0000 0.79286  0.34252  0.21687  Biso   1.000  C
  C23      1.0000 0.54966  0.20714  0.21687  Biso   1.000  C
  C24      1.0000 0.65748  0.45034  0.21687  Biso   1.000  C
  C25      1.0000 0.11701  0.99081  0.61646  Biso   1.000  C
  C26      1.0000 0.00919  0.12619  0.61646  Biso   1.000  C
  C27      1.0000 0.87381  0.88299  0.61646  Biso   1.000  C
  C28      1.0000 0.45953  0.67585  0.55020  Biso   1.000  C
  C29      1.0000 0.21633  0.54047  0.55020  Biso   1.000  C
  C30      1.0000 0.32415  0.78367  0.55020  Biso   1.000  C
  C31      1.0000 0.78367  0.32415  0.94980  Biso   1.000  C
  C32      1.0000 0.67585  0.45953  0.94980  Biso   1.000  C
  C33      1.0000 0.54047  0.21633  0.94980  Biso   1.000  C
  C34      1.0000 0.12619  0.00919  0.88354  Biso   1.000  C
  C35      1.0000 0.88299  0.87381  0.88354  Biso   1.000  C
  C36      1.0000 0.99081  0.11701  0.88354  Biso   1.000  C
  H1       1.0000 0.55320  0.32250  0.72720  Biso   1.000  H
  H2       1.0000 0.67750  0.23070  0.72720  Biso   1.000  H
  H3       1.0000 0.76930  0.44680  0.72720  Biso   1.000  H
  H4       1.0000 0.23070  0.67750  0.77280  Biso   1.000  H
  H5       1.0000 0.44680  0.76930  0.77280  Biso   1.000  H
  H6       1.0000 0.32250  0.55320  0.77280  Biso   1.000  H
  H7       1.0000 0.21987  0.65583  0.06053  Biso   1.000  H
  H8       1.0000 0.34417  0.56403  0.06053  Biso   1.000  H
  H9       1.0000 0.43597  0.78013  0.06053  Biso   1.000  H
  H10      1.0000 0.89737  0.01083  0.10613  Biso   1.000  H
  H11      1.0000 0.11347  0.10263  0.10613  Biso   1.000  H
  H12      1.0000 0.98917  0.88653  0.10613  Biso   1.000  H
  H13      1.0000 0.88653  0.98917  0.39387  Biso   1.000  H
  H14      1.0000 0.01083  0.89737  0.39387  Biso   1.000  H
  H15      1.0000 0.10263  0.11347  0.39387  Biso   1.000  H
  H16      1.0000 0.56403  0.34417  0.43947  Biso   1.000  H
  H17      1.0000 0.78013  0.43597  0.43947  Biso   1.000  H
  H18      1.0000 0.65583  0.21987  0.43947  Biso   1.000  H
  H19      1.0000 0.44680  0.67750  0.27280  Biso   1.000  H
  H20      1.0000 0.32250  0.76930  0.27280  Biso   1.000  H
  H21      1.0000 0.23070  0.55320  0.27280  Biso   1.000  H
  H22      1.0000 0.76930  0.32250  0.22720  Biso   1.000  H
  H23      1.0000 0.55320  0.23070  0.22720  Biso   1.000  H
  H24      1.0000 0.67750  0.44680  0.22720  Biso   1.000  H
  H25      1.0000 0.11347  0.01083  0.60613  Biso   1.000  H
  H26      1.0000 0.98917  0.10263  0.60613  Biso   1.000  H
  H27      1.0000 0.89737  0.88653  0.60613  Biso   1.000  H
  H28      1.0000 0.43597  0.65583  0.56053  Biso   1.000  H
  H29      1.0000 0.21987  0.56403  0.56053  Biso   1.000  H
  H30      1.0000 0.34417  0.78013  0.56053  Biso   1.000  H
  H31      1.0000 0.78013  0.34417  0.93947  Biso   1.000  H
  H32      1.0000 0.65583  0.43597  0.93947  Biso   1.000  H
  H33      1.0000 0.56403  0.21987  0.93947  Biso   1.000  H
  H34      1.0000 0.10263  0.98917  0.89387  Biso   1.000  H
  H35      1.0000 0.88653  0.89737  0.89387  Biso   1.000  H
  H36      1.0000 0.01083  0.11347  0.89387  Biso   1.000  H
  N37      1.0000 0.55217  0.29911  0.70446  Biso   1.000  N
  N38      1.0000 0.70089  0.25306  0.70446  Biso   1.000  N
  N39      1.0000 0.74694  0.44783  0.70446  Biso   1.000  N
  N40      1.0000 0.25306  0.70089  0.79554  Biso   1.000  N
  N41      1.0000 0.44783  0.74694  0.79554  Biso   1.000  N
  N42      1.0000 0.29911  0.55217  0.79554  Biso   1.000  N
  N43      1.0000 0.21884  0.63244  0.03779  Biso   1.000  N
  N44      1.0000 0.36756  0.58639  0.03779  Biso   1.000  N
  N45      1.0000 0.41361  0.78116  0.03779  Biso   1.000  N
  N46      1.0000 0.91973  0.03422  0.12887  Biso   1.000  N
  N47      1.0000 0.11450  0.08027  0.12887  Biso   1.000  N
  N48      1.0000 0.96578  0.88550  0.12887  Biso   1.000  N
  N49      1.0000 0.88550  0.96578  0.37113  Biso   1.000  N
  N50      1.0000 0.03422  0.91973  0.37113  Biso   1.000  N
  N51      1.0000 0.08027  0.11450  0.37113  Biso   1.000  N
  N52      1.0000 0.58639  0.36756  0.46221  Biso   1.000  N
  N53      1.0000 0.78116  0.41361  0.46221  Biso   1.000  N
  N54      1.0000 0.63244  0.21884  0.46221  Biso   1.000  N
  N55      1.0000 0.44783  0.70089  0.29554  Biso   1.000  N
  N56      1.0000 0.29911  0.74694  0.29554  Biso   1.000  N
  N57      1.0000 0.25306  0.55217  0.29554  Biso   1.000  N
  N58      1.0000 0.74694  0.29911  0.20446  Biso   1.000  N
  N59      1.0000 0.55217  0.25306  0.20446  Biso   1.000  N
  N60      1.0000 0.70089  0.44783  0.20446  Biso   1.000  N
  N61      1.0000 0.11450  0.03422  0.62887  Biso   1.000  N
  N62      1.0000 0.96578  0.08027  0.62887  Biso   1.000  N
  N63      1.0000 0.91973  0.88550  0.62887  Biso   1.000  N
  N64      1.0000 0.41361  0.63244  0.53779  Biso   1.000  N
  N65      1.0000 0.21884  0.58639  0.53779  Biso   1.000  N
  N66      1.0000 0.36756  0.78116  0.53779  Biso   1.000  N
  N67      1.0000 0.78116  0.36756  0.96221  Biso   1.000  N
  N68      1.0000 0.63244  0.41361  0.96221  Biso   1.000  N
  N69      1.0000 0.58639  0.21884  0.96221  Biso   1.000  N
  N70      1.0000 0.08027  0.96578  0.87113  Biso   1.000  N
  N71      1.0000 0.88550  0.91973  0.87113  Biso   1.000  N
  N72      1.0000 0.03422  0.11450  0.87113  Biso   1.000  N
  C37      1.0000 0.54565  0.32783  0.69010  Biso   1.000  C
  C38      1.0000 0.67217  0.21782  0.69010  Biso   1.000  C
  C39      1.0000 0.78218  0.45435  0.69010  Biso   1.000  C
  C40      1.0000 0.21782  0.67217  0.80990  Biso   1.000  C
  C41      1.0000 0.45435  0.78218  0.80990  Biso   1.000  C
  C42      1.0000 0.32783  0.54565  0.80990  Biso   1.000  C
  C43      1.0000 0.21232  0.66116  0.02343  Biso   1.000  C
  C44      1.0000 0.33884  0.55115  0.02343  Biso   1.000  C
  C45      1.0000 0.44885  0.78768  0.02343  Biso   1.000  C
  C46      1.0000 0.88449  0.00550  0.14323  Biso   1.000  C
  C47      1.0000 0.12102  0.11551  0.14323  Biso   1.000  C
  C48      1.0000 0.99450  0.87898  0.14323  Biso   1.000  C
  C49      1.0000 0.87898  0.99450  0.35677  Biso   1.000  C
  C50      1.0000 0.00550  0.88449  0.35677  Biso   1.000  C
  C51      1.0000 0.11551  0.12102  0.35677  Biso   1.000  C
  C52      1.0000 0.55115  0.33884  0.47657  Biso   1.000  C
  C53      1.0000 0.78768  0.44885  0.47657  Biso   1.000  C
  C54      1.0000 0.66116  0.21232  0.47657  Biso   1.000  C
  C55      1.0000 0.45435  0.67217  0.30990  Biso   1.000  C
  C56      1.0000 0.32783  0.78218  0.30990  Biso   1.000  C
  C57      1.0000 0.21782  0.54565  0.30990  Biso   1.000  C
  C58      1.0000 0.78218  0.32783  0.19010  Biso   1.000  C
  C59      1.0000 0.54565  0.21782  0.19010  Biso   1.000  C
  C60      1.0000 0.67217  0.45435  0.19010  Biso   1.000  C
  C61      1.0000 0.12102  0.00550  0.64323  Biso   1.000  C
  C62      1.0000 0.99450  0.11551  0.64323  Biso   1.000  C
  C63      1.0000 0.88449  0.87898  0.64323  Biso   1.000  C
  C64      1.0000 0.44885  0.66116  0.52343  Biso   1.000  C
  C65      1.0000 0.21232  0.55115  0.52343  Biso   1.000  C
  C66      1.0000 0.33884  0.78768  0.52343  Biso   1.000  C
  C67      1.0000 0.78768  0.33884  0.97657  Biso   1.000  C
  C68      1.0000 0.66116  0.44885  0.97657  Biso   1.000  C
  C69      1.0000 0.55115  0.21232  0.97657  Biso   1.000  C
  C70      1.0000 0.11551  0.99450  0.85677  Biso   1.000  C
  C71      1.0000 0.87898  0.88449  0.85677  Biso   1.000  C
  C72      1.0000 0.00550  0.12102  0.85677  Biso   1.000  C
  H37      1.0000 0.54820  0.29920  0.68080  Biso   1.000  H
  H38      1.0000 0.70080  0.24900  0.68080  Biso   1.000  H
  H39      1.0000 0.75100  0.45180  0.68080  Biso   1.000  H
  H40      1.0000 0.24900  0.70080  0.81920  Biso   1.000  H
  H41      1.0000 0.45180  0.75100  0.81920  Biso   1.000  H
  H42      1.0000 0.29920  0.54820  0.81920  Biso   1.000  H
  H43      1.0000 0.21487  0.63253  0.01413  Biso   1.000  H
  H44      1.0000 0.36747  0.58233  0.01413  Biso   1.000  H
  H45      1.0000 0.41767  0.78513  0.01413  Biso   1.000  H
  H46      1.0000 0.91567  0.03413  0.15253  Biso   1.000  H
  H47      1.0000 0.11847  0.08433  0.15253  Biso   1.000  H
  H48      1.0000 0.96587  0.88153  0.15253  Biso   1.000  H
  H49      1.0000 0.88153  0.96587  0.34747  Biso   1.000  H
  H50      1.0000 0.03413  0.91567  0.34747  Biso   1.000  H
  H51      1.0000 0.08433  0.11847  0.34747  Biso   1.000  H
  H52      1.0000 0.58233  0.36747  0.48587  Biso   1.000  H
  H53      1.0000 0.78513  0.41767  0.48587  Biso   1.000  H
  H54      1.0000 0.63253  0.21487  0.48587  Biso   1.000  H
  H55      1.0000 0.45180  0.70080  0.31920  Biso   1.000  H
  H56      1.0000 0.29920  0.75100  0.31920  Biso   1.000  H
  H57      1.0000 0.24900  0.54820  0.31920  Biso   1.000  H
  H58      1.0000 0.75100  0.29920  0.18080  Biso   1.000  H
  H59      1.0000 0.54820  0.24900  0.18080  Biso   1.000  H
  H60      1.0000 0.70080  0.45180  0.18080  Biso   1.000  H
  H61      1.0000 0.11847  0.03413  0.65253  Biso   1.000  H
  H62      1.0000 0.96587  0.08433  0.65253  Biso   1.000  H
  H63      1.0000 0.91567  0.88153  0.65253  Biso   1.000  H
  H64      1.0000 0.41767  0.63253  0.51413  Biso   1.000  H
  H65      1.0000 0.21487  0.58233  0.51413  Biso   1.000  H
  H66      1.0000 0.36747  0.78513  0.51413  Biso   1.000  H
  H67      1.0000 0.78513  0.36747  0.98587  Biso   1.000  H
  H68      1.0000 0.63253  0.41767  0.98587  Biso   1.000  H
  H69      1.0000 0.58233  0.21487  0.98587  Biso   1.000  H
  H70      1.0000 0.08433  0.96587  0.84747  Biso   1.000  H
  H71      1.0000 0.88153  0.91567  0.84747  Biso   1.000  H
  H72      1.0000 0.03413  0.11847  0.84747  Biso   1.000  H
  C73      1.0000 0.53547  0.39691  0.68801  Biso   1.000  C
  C74      1.0000 0.60309  0.13856  0.68801  Biso   1.000  C
  C75      1.0000 0.86144  0.46453  0.68801  Biso   1.000  C
  C76      1.0000 0.13856  0.60309  0.81199  Biso   1.000  C
  C77      1.0000 0.46453  0.86144  0.81199  Biso   1.000  C
  C78      1.0000 0.39691  0.53547  0.81199  Biso   1.000  C
  C79      1.0000 0.20214  0.73024  0.02134  Biso   1.000  C
  C80      1.0000 0.26976  0.47189  0.02134  Biso   1.000  C
  C81      1.0000 0.52811  0.79786  0.02134  Biso   1.000  C
  C82      1.0000 0.80523  0.93642  0.14532  Biso   1.000  C
  C83      1.0000 0.13120  0.19477  0.14532  Biso   1.000  C
  C84      1.0000 0.06358  0.86880  0.14532  Biso   1.000  C
  C85      1.0000 0.86880  0.06358  0.35468  Biso   1.000  C
  C86      1.0000 0.93642  0.80523  0.35468  Biso   1.000  C
  C87      1.0000 0.19477  0.13120  0.35468  Biso   1.000  C
  C88      1.0000 0.47189  0.26976  0.47866  Biso   1.000  C
  C89      1.0000 0.79786  0.52811  0.47866  Biso   1.000  C
  C90      1.0000 0.73024  0.20214  0.47866  Biso   1.000  C
  C91      1.0000 0.46453  0.60309  0.31199  Biso   1.000  C
  C92      1.0000 0.39691  0.86144  0.31199  Biso   1.000  C
  C93      1.0000 0.13856  0.53547  0.31199  Biso   1.000  C
  C94      1.0000 0.86144  0.39691  0.18801  Biso   1.000  C
  C95      1.0000 0.53547  0.13856  0.18801  Biso   1.000  C
  C96      1.0000 0.60309  0.46453  0.18801  Biso   1.000  C
  C97      1.0000 0.13120  0.93642  0.64532  Biso   1.000  C
  C98      1.0000 0.06358  0.19477  0.64532  Biso   1.000  C
  C99      1.0000 0.80523  0.86880  0.64532  Biso   1.000  C
  C100     1.0000 0.52811  0.73024  0.52134  Biso   1.000  C
  C101     1.0000 0.20214  0.47189  0.52134  Biso   1.000  C
  C102     1.0000 0.26976  0.79786  0.52134  Biso   1.000  C
  C103     1.0000 0.79786  0.26976  0.97866  Biso   1.000  C
  C104     1.0000 0.73024  0.52811  0.97866  Biso   1.000  C
  C105     1.0000 0.47189  0.20214  0.97866  Biso   1.000  C
  C106     1.0000 0.19477  0.06358  0.85468  Biso   1.000  C
  C107     1.0000 0.86880  0.80523  0.85468  Biso   1.000  C
  C108     1.0000 0.93642  0.13120  0.85468  Biso   1.000  C
  C109     1.0000 0.53363  0.43746  0.70206  Biso   1.000  C
  C110     1.0000 0.56254  0.09617  0.70206  Biso   1.000  C
  C111     1.0000 0.90383  0.46637  0.70206  Biso   1.000  C
  C112     1.0000 0.09617  0.56254  0.79794  Biso   1.000  C
  C113     1.0000 0.46637  0.90383  0.79794  Biso   1.000  C
  C114     1.0000 0.43746  0.53363  0.79794  Biso   1.000  C
  C115     1.0000 0.20030  0.77079  0.03539  Biso   1.000  C
  C116     1.0000 0.22921  0.42950  0.03539  Biso   1.000  C
  C117     1.0000 0.57050  0.79970  0.03539  Biso   1.000  C
  C118     1.0000 0.76284  0.89587  0.13127  Biso   1.000  C
  C119     1.0000 0.13304  0.23716  0.13127  Biso   1.000  C
  C120     1.0000 0.10413  0.86696  0.13127  Biso   1.000  C
  C121     1.0000 0.86696  0.10413  0.36873  Biso   1.000  C
  C122     1.0000 0.89587  0.76284  0.36873  Biso   1.000  C
  C123     1.0000 0.23716  0.13304  0.36873  Biso   1.000  C
  C124     1.0000 0.42950  0.22921  0.46461  Biso   1.000  C
  C125     1.0000 0.79970  0.57050  0.46461  Biso   1.000  C
  C126     1.0000 0.77079  0.20030  0.46461  Biso   1.000  C
  C127     1.0000 0.46637  0.56254  0.29794  Biso   1.000  C
  C128     1.0000 0.43746  0.90383  0.29794  Biso   1.000  C
  C129     1.0000 0.09617  0.53363  0.29794  Biso   1.000  C
  C130     1.0000 0.90383  0.43746  0.20206  Biso   1.000  C
  C131     1.0000 0.53363  0.09617  0.20206  Biso   1.000  C
  C132     1.0000 0.56254  0.46637  0.20206  Biso   1.000  C
  C133     1.0000 0.13304  0.89587  0.63127  Biso   1.000  C
  C134     1.0000 0.10413  0.23716  0.63127  Biso   1.000  C
  C135     1.0000 0.76284  0.86696  0.63127  Biso   1.000  C
  C136     1.0000 0.57050  0.77079  0.53539  Biso   1.000  C
  C137     1.0000 0.20030  0.42950  0.53539  Biso   1.000  C
  C138     1.0000 0.22921  0.79970  0.53539  Biso   1.000  C
  C139     1.0000 0.79970  0.22921  0.96461  Biso   1.000  C
  C140     1.0000 0.77079  0.57050  0.96461  Biso   1.000  C
  C141     1.0000 0.42950  0.20030  0.96461  Biso   1.000  C
  C142     1.0000 0.23716  0.10413  0.86873  Biso   1.000  C
  C143     1.0000 0.86696  0.76284  0.86873  Biso   1.000  C
  C144     1.0000 0.89587  0.13304  0.86873  Biso   1.000  C
  H73      1.0000 0.52570  0.48460  0.70120  Biso   1.000  H
  H74      1.0000 0.51540  0.04110  0.70120  Biso   1.000  H
  H75      1.0000 0.95890  0.47430  0.70120  Biso   1.000  H
  H76      1.0000 0.04110  0.51540  0.79880  Biso   1.000  H
  H77      1.0000 0.47430  0.95890  0.79880  Biso   1.000  H
  H78      1.0000 0.48460  0.52570  0.79880  Biso   1.000  H
  H79      1.0000 0.19237  0.81793  0.03453  Biso   1.000  H
  H80      1.0000 0.18207  0.37443  0.03453  Biso   1.000  H
  H81      1.0000 0.62557  0.80763  0.03453  Biso   1.000  H
  H82      1.0000 0.70777  0.84873  0.13213  Biso   1.000  H
  H83      1.0000 0.14097  0.29223  0.13213  Biso   1.000  H
  H84      1.0000 0.15127  0.85903  0.13213  Biso   1.000  H
  H85      1.0000 0.85903  0.15127  0.36787  Biso   1.000  H
  H86      1.0000 0.84873  0.70777  0.36787  Biso   1.000  H
  H87      1.0000 0.29223  0.14097  0.36787  Biso   1.000  H
  H88      1.0000 0.37443  0.18207  0.46547  Biso   1.000  H
  H89      1.0000 0.80763  0.62557  0.46547  Biso   1.000  H
  H90      1.0000 0.81793  0.19237  0.46547  Biso   1.000  H
  H91      1.0000 0.47430  0.51540  0.29880  Biso   1.000  H
  H92      1.0000 0.48460  0.95890  0.29880  Biso   1.000  H
  H93      1.0000 0.04110  0.52570  0.29880  Biso   1.000  H
  H94      1.0000 0.95890  0.48460  0.20120  Biso   1.000  H
  H95      1.0000 0.52570  0.04110  0.20120  Biso   1.000  H
  H96      1.0000 0.51540  0.47430  0.20120  Biso   1.000  H
  H97      1.0000 0.14097  0.84873  0.63213  Biso   1.000  H
  H98      1.0000 0.15127  0.29223  0.63213  Biso   1.000  H
  H99      1.0000 0.70777  0.85903  0.63213  Biso   1.000  H
  H100     1.0000 0.62557  0.81793  0.53453  Biso   1.000  H
  H101     1.0000 0.19237  0.37443  0.53453  Biso   1.000  H
  H102     1.0000 0.18207  0.80763  0.53453  Biso   1.000  H
  H103     1.0000 0.80763  0.18207  0.96547  Biso   1.000  H
  H104     1.0000 0.81793  0.62557  0.96547  Biso   1.000  H
  H105     1.0000 0.37443  0.19237  0.96547  Biso   1.000  H
  H106     1.0000 0.29223  0.15127  0.86787  Biso   1.000  H
  H107     1.0000 0.85903  0.70777  0.86787  Biso   1.000  H
  H108     1.0000 0.84873  0.14097  0.86787  Biso   1.000  H
  C145     1.0000 0.52370  0.42542  0.67220  Biso   1.000  C
  C146     1.0000 0.57458  0.09828  0.67220  Biso   1.000  C
  C147     1.0000 0.90172  0.47630  0.67220  Biso   1.000  C
  C148     1.0000 0.09828  0.57458  0.82780  Biso   1.000  C
  C149     1.0000 0.47630  0.90172  0.82780  Biso   1.000  C
  C150     1.0000 0.42542  0.52370  0.82780  Biso   1.000  C
  C151     1.0000 0.19037  0.75875  0.00553  Biso   1.000  C
  C152     1.0000 0.24125  0.43161  0.00553  Biso   1.000  C
  C153     1.0000 0.56839  0.80963  0.00553  Biso   1.000  C
  C154     1.0000 0.76495  0.90791  0.16113  Biso   1.000  C
  C155     1.0000 0.14297  0.23505  0.16113  Biso   1.000  C
  C156     1.0000 0.09209  0.85703  0.16113  Biso   1.000  C
  C157     1.0000 0.85703  0.09209  0.33887  Biso   1.000  C
  C158     1.0000 0.90791  0.76495  0.33887  Biso   1.000  C
  C159     1.0000 0.23505  0.14297  0.33887  Biso   1.000  C
  C160     1.0000 0.43161  0.24125  0.49447  Biso   1.000  C
  C161     1.0000 0.80963  0.56839  0.49447  Biso   1.000  C
  C162     1.0000 0.75875  0.19037  0.49447  Biso   1.000  C
  C163     1.0000 0.47630  0.57458  0.32780  Biso   1.000  C
  C164     1.0000 0.42542  0.90172  0.32780  Biso   1.000  C
  C165     1.0000 0.09828  0.52370  0.32780  Biso   1.000  C
  C166     1.0000 0.90172  0.42542  0.17220  Biso   1.000  C
  C167     1.0000 0.52370  0.09828  0.17220  Biso   1.000  C
  C168     1.0000 0.57458  0.47630  0.17220  Biso   1.000  C
  C169     1.0000 0.14297  0.90791  0.66113  Biso   1.000  C
  C170     1.0000 0.09209  0.23505  0.66113  Biso   1.000  C
  C171     1.0000 0.76495  0.85703  0.66113  Biso   1.000  C
  C172     1.0000 0.56839  0.75875  0.50553  Biso   1.000  C
  C173     1.0000 0.19037  0.43161  0.50553  Biso   1.000  C
  C174     1.0000 0.24125  0.80963  0.50553  Biso   1.000  C
  C175     1.0000 0.80963  0.24125  0.99447  Biso   1.000  C
  C176     1.0000 0.75875  0.56839  0.99447  Biso   1.000  C
  C177     1.0000 0.43161  0.19037  0.99447  Biso   1.000  C
  C178     1.0000 0.23505  0.09209  0.83887  Biso   1.000  C
  C179     1.0000 0.85703  0.76495  0.83887  Biso   1.000  C
  C180     1.0000 0.90791  0.14297  0.83887  Biso   1.000  C
  C181     1.0000 0.47810  0.36790  0.66055  Biso   1.000  C
  C182     1.0000 0.63210  0.11020  0.66055  Biso   1.000  C
  C183     1.0000 0.88980  0.52190  0.66055  Biso   1.000  C
  C184     1.0000 0.11020  0.63210  0.83945  Biso   1.000  C
  C185     1.0000 0.52190  0.88980  0.83945  Biso   1.000  C
  C186     1.0000 0.36790  0.47810  0.83945  Biso   1.000  C
  C187     1.0000 0.14477  0.70123  0.99388  Biso   1.000  C
  C188     1.0000 0.29877  0.44353  0.99388  Biso   1.000  C
  C189     1.0000 0.55647  0.85523  0.99388  Biso   1.000  C
  C190     1.0000 0.77687  0.96543  0.17278  Biso   1.000  C
  C191     1.0000 0.18857  0.22313  0.17278  Biso   1.000  C
  C192     1.0000 0.03457  0.81143  0.17278  Biso   1.000  C
  C193     1.0000 0.81143  0.03457  0.32722  Biso   1.000  C
  C194     1.0000 0.96543  0.77687  0.32722  Biso   1.000  C
  C195     1.0000 0.22313  0.18857  0.32722  Biso   1.000  C
  C196     1.0000 0.44353  0.29877  0.50612  Biso   1.000  C
  C197     1.0000 0.85523  0.55647  0.50612  Biso   1.000  C
  C198     1.0000 0.70123  0.14477  0.50612  Biso   1.000  C
  C199     1.0000 0.52190  0.63210  0.33945  Biso   1.000  C
  C200     1.0000 0.36790  0.88980  0.33945  Biso   1.000  C
  C201     1.0000 0.11020  0.47810  0.33945  Biso   1.000  C
  C202     1.0000 0.88980  0.36790  0.16055  Biso   1.000  C
  C203     1.0000 0.47810  0.11020  0.16055  Biso   1.000  C
  C204     1.0000 0.63210  0.52190  0.16055  Biso   1.000  C
  C205     1.0000 0.18857  0.96543  0.67278  Biso   1.000  C
  C206     1.0000 0.03457  0.22313  0.67278  Biso   1.000  C
  C207     1.0000 0.77687  0.81143  0.67278  Biso   1.000  C
  C208     1.0000 0.55647  0.70123  0.49388  Biso   1.000  C
  C209     1.0000 0.14477  0.44353  0.49388  Biso   1.000  C
  C210     1.0000 0.29877  0.85523  0.49388  Biso   1.000  C
  C211     1.0000 0.85523  0.29877  0.00612  Biso   1.000  C
  C212     1.0000 0.70123  0.55647  0.00612  Biso   1.000  C
  C213     1.0000 0.44353  0.14477  0.00612  Biso   1.000  C
  C214     1.0000 0.22313  0.03457  0.82722  Biso   1.000  C
  C215     1.0000 0.81143  0.77687  0.82722  Biso   1.000  C
  C216     1.0000 0.96543  0.18857  0.82722  Biso   1.000  C
  H109     1.0000 0.45630  0.30970  0.66250  Biso   1.000  H
  H110     1.0000 0.69030  0.14660  0.66250  Biso   1.000  H
  H111     1.0000 0.85340  0.54370  0.66250  Biso   1.000  H
  H112     1.0000 0.14660  0.69030  0.83750  Biso   1.000  H
  H113     1.0000 0.54370  0.85340  0.83750  Biso   1.000  H
  H114     1.0000 0.30970  0.45630  0.83750  Biso   1.000  H
  H115     1.0000 0.12297  0.64303  0.99583  Biso   1.000  H
  H116     1.0000 0.35697  0.47993  0.99583  Biso   1.000  H
  H117     1.0000 0.52007  0.87703  0.99583  Biso   1.000  H
  H118     1.0000 0.81327  0.02363  0.17083  Biso   1.000  H
  H119     1.0000 0.21037  0.18673  0.17083  Biso   1.000  H
  H120     1.0000 0.97637  0.78963  0.17083  Biso   1.000  H
  H121     1.0000 0.78963  0.97637  0.32917  Biso   1.000  H
  H122     1.0000 0.02363  0.81327  0.32917  Biso   1.000  H
  H123     1.0000 0.18673  0.21037  0.32917  Biso   1.000  H
  H124     1.0000 0.47993  0.35697  0.50417  Biso   1.000  H
  H125     1.0000 0.87703  0.52007  0.50417  Biso   1.000  H
  H126     1.0000 0.64303  0.12297  0.50417  Biso   1.000  H
  H127     1.0000 0.54370  0.69030  0.33750  Biso   1.000  H
  H128     1.0000 0.30970  0.85340  0.33750  Biso   1.000  H
  H129     1.0000 0.14660  0.45630  0.33750  Biso   1.000  H
  H130     1.0000 0.85340  0.30970  0.16250  Biso   1.000  H
  H131     1.0000 0.45630  0.14660  0.16250  Biso   1.000  H
  H132     1.0000 0.69030  0.54370  0.16250  Biso   1.000  H
  H133     1.0000 0.21037  0.02363  0.67083  Biso   1.000  H
  H134     1.0000 0.97637  0.18673  0.67083  Biso   1.000  H
  H135     1.0000 0.81327  0.78963  0.67083  Biso   1.000  H
  H136     1.0000 0.52007  0.64303  0.49583  Biso   1.000  H
  H137     1.0000 0.12297  0.47993  0.49583  Biso   1.000  H
  H138     1.0000 0.35697  0.87703  0.49583  Biso   1.000  H
  H139     1.0000 0.87703  0.35697  0.00417  Biso   1.000  H
  H140     1.0000 0.64303  0.52007  0.00417  Biso   1.000  H
  H141     1.0000 0.47993  0.12297  0.00417  Biso   1.000  H
  H142     1.0000 0.18673  0.97637  0.82917  Biso   1.000  H
  H143     1.0000 0.78963  0.81327  0.82917  Biso   1.000  H
  H144     1.0000 0.02363  0.21037  0.82917  Biso   1.000  H
  C217     1.0000 0.46360  0.39390  0.64588  Biso   1.000  C
  C218     1.0000 0.60610  0.06970  0.64588  Biso   1.000  C
  C219     1.0000 0.93030  0.53640  0.64588  Biso   1.000  C
  C220     1.0000 0.06970  0.60610  0.85412  Biso   1.000  C
  C221     1.0000 0.53640  0.93030  0.85412  Biso   1.000  C
  C222     1.0000 0.39390  0.46360  0.85412  Biso   1.000  C
  C223     1.0000 0.13027  0.72723  0.97921  Biso   1.000  C
  C224     1.0000 0.27277  0.40303  0.97921  Biso   1.000  C
  C225     1.0000 0.59697  0.86973  0.97921  Biso   1.000  C
  C226     1.0000 0.73637  0.93943  0.18745  Biso   1.000  C
  C227     1.0000 0.20307  0.26363  0.18745  Biso   1.000  C
  C228     1.0000 0.06057  0.79693  0.18745  Biso   1.000  C
  C229     1.0000 0.79693  0.06057  0.31255  Biso   1.000  C
  C230     1.0000 0.93943  0.73637  0.31255  Biso   1.000  C
  C231     1.0000 0.26363  0.20307  0.31255  Biso   1.000  C
  C232     1.0000 0.40303  0.27277  0.52079  Biso   1.000  C
  C233     1.0000 0.86973  0.59697  0.52079  Biso   1.000  C
  C234     1.0000 0.72723  0.13027  0.52079  Biso   1.000  C
  C235     1.0000 0.53640  0.60610  0.35412  Biso   1.000  C
  C236     1.0000 0.39390  0.93030  0.35412  Biso   1.000  C
  C237     1.0000 0.06970  0.46360  0.35412  Biso   1.000  C
  C238     1.0000 0.93030  0.39390  0.14588  Biso   1.000  C
  C239     1.0000 0.46360  0.06970  0.14588  Biso   1.000  C
  C240     1.0000 0.60610  0.53640  0.14588  Biso   1.000  C
  C241     1.0000 0.20307  0.93943  0.68745  Biso   1.000  C
  C242     1.0000 0.06057  0.26363  0.68745  Biso   1.000  C
  C243     1.0000 0.73637  0.79693  0.68745  Biso   1.000  C
  C244     1.0000 0.59697  0.72723  0.47921  Biso   1.000  C
  C245     1.0000 0.13027  0.40303  0.47921  Biso   1.000  C
  C246     1.0000 0.27277  0.86973  0.47921  Biso   1.000  C
  C247     1.0000 0.86973  0.27277  0.02079  Biso   1.000  C
  C248     1.0000 0.72723  0.59697  0.02079  Biso   1.000  C
  C249     1.0000 0.40303  0.13027  0.02079  Biso   1.000  C
  C250     1.0000 0.26363  0.06057  0.81255  Biso   1.000  C
  C251     1.0000 0.79693  0.73637  0.81255  Biso   1.000  C
  C252     1.0000 0.93943  0.20307  0.81255  Biso   1.000  C
  H145     1.0000 0.43340  0.35300  0.63790  Biso   1.000  H
  H146     1.0000 0.64700  0.08040  0.63790  Biso   1.000  H
  H147     1.0000 0.91960  0.56660  0.63790  Biso   1.000  H
  H148     1.0000 0.08040  0.64700  0.86210  Biso   1.000  H
  H149     1.0000 0.56660  0.91960  0.86210  Biso   1.000  H
  H150     1.0000 0.35300  0.43340  0.86210  Biso   1.000  H
  H151     1.0000 0.10007  0.68633  0.97123  Biso   1.000  H
  H152     1.0000 0.31367  0.41373  0.97123  Biso   1.000  H
  H153     1.0000 0.58627  0.89993  0.97123  Biso   1.000  H
  H154     1.0000 0.74707  0.98033  0.19543  Biso   1.000  H
  H155     1.0000 0.23327  0.25293  0.19543  Biso   1.000  H
  H156     1.0000 0.01967  0.76673  0.19543  Biso   1.000  H
  H157     1.0000 0.76673  0.01967  0.30457  Biso   1.000  H
  H158     1.0000 0.98033  0.74707  0.30457  Biso   1.000  H
  H159     1.0000 0.25293  0.23327  0.30457  Biso   1.000  H
  H160     1.0000 0.41373  0.31367  0.52877  Biso   1.000  H
  H161     1.0000 0.89993  0.58627  0.52877  Biso   1.000  H
  H162     1.0000 0.68633  0.10007  0.52877  Biso   1.000  H
  H163     1.0000 0.56660  0.64700  0.36210  Biso   1.000  H
  H164     1.0000 0.35300  0.91960  0.36210  Biso   1.000  H
  H165     1.0000 0.08040  0.43340  0.36210  Biso   1.000  H
  H166     1.0000 0.91960  0.35300  0.13790  Biso   1.000  H
  H167     1.0000 0.43340  0.08040  0.13790  Biso   1.000  H
  H168     1.0000 0.64700  0.56660  0.13790  Biso   1.000  H
  H169     1.0000 0.23327  0.98033  0.69543  Biso   1.000  H
  H170     1.0000 0.01967  0.25293  0.69543  Biso   1.000  H
  H171     1.0000 0.74707  0.76673  0.69543  Biso   1.000  H
  H172     1.0000 0.58627  0.68633  0.47123  Biso   1.000  H
  H173     1.0000 0.10007  0.41373  0.47123  Biso   1.000  H
  H174     1.0000 0.31367  0.89993  0.47123  Biso   1.000  H
  H175     1.0000 0.89993  0.31367  0.02877  Biso   1.000  H
  H176     1.0000 0.68633  0.58627  0.02877  Biso   1.000  H
  H177     1.0000 0.41373  0.10007  0.02877  Biso   1.000  H
  H178     1.0000 0.25293  0.01967  0.80457  Biso   1.000  H
  H179     1.0000 0.76673  0.74707  0.80457  Biso   1.000  H
  H180     1.0000 0.98033  0.23327  0.80457  Biso   1.000  H
  C253     1.0000 0.49177  0.47702  0.64266  Biso   1.000  C
  C254     1.0000 0.52298  0.01475  0.64266  Biso   1.000  C
  C255     1.0000 0.98525  0.50823  0.64266  Biso   1.000  C
  C256     1.0000 0.01475  0.52298  0.85734  Biso   1.000  C
  C257     1.0000 0.50823  0.98525  0.85734  Biso   1.000  C
  C258     1.0000 0.47702  0.49177  0.85734  Biso   1.000  C
  C259     1.0000 0.15844  0.81035  0.97599  Biso   1.000  C
  C260     1.0000 0.18965  0.34808  0.97599  Biso   1.000  C
  C261     1.0000 0.65192  0.84156  0.97599  Biso   1.000  C
  C262     1.0000 0.68142  0.85631  0.19067  Biso   1.000  C
  C263     1.0000 0.17490  0.31858  0.19067  Biso   1.000  C
  C264     1.0000 0.14369  0.82510  0.19067  Biso   1.000  C
  C265     1.0000 0.82510  0.14369  0.30933  Biso   1.000  C
  C266     1.0000 0.85631  0.68142  0.30933  Biso   1.000  C
  C267     1.0000 0.31858  0.17490  0.30933  Biso   1.000  C
  C268     1.0000 0.34808  0.18965  0.52401  Biso   1.000  C
  C269     1.0000 0.84156  0.65192  0.52401  Biso   1.000  C
  C270     1.0000 0.81035  0.15844  0.52401  Biso   1.000  C
  C271     1.0000 0.50823  0.52298  0.35734  Biso   1.000  C
  C272     1.0000 0.47702  0.98525  0.35734  Biso   1.000  C
  C273     1.0000 0.01475  0.49177  0.35734  Biso   1.000  C
  C274     1.0000 0.98525  0.47702  0.14266  Biso   1.000  C
  C275     1.0000 0.49177  0.01475  0.14266  Biso   1.000  C
  C276     1.0000 0.52298  0.50823  0.14266  Biso   1.000  C
  C277     1.0000 0.17490  0.85631  0.69067  Biso   1.000  C
  C278     1.0000 0.14369  0.31858  0.69067  Biso   1.000  C
  C279     1.0000 0.68142  0.82510  0.69067  Biso   1.000  C
  C280     1.0000 0.65192  0.81035  0.47599  Biso   1.000  C
  C281     1.0000 0.15844  0.34808  0.47599  Biso   1.000  C
  C282     1.0000 0.18965  0.84156  0.47599  Biso   1.000  C
  C283     1.0000 0.84156  0.18965  0.02401  Biso   1.000  C
  C284     1.0000 0.81035  0.65192  0.02401  Biso   1.000  C
  C285     1.0000 0.34808  0.15844  0.02401  Biso   1.000  C
  C286     1.0000 0.31858  0.14369  0.80933  Biso   1.000  C
  C287     1.0000 0.82510  0.68142  0.80933  Biso   1.000  C
  C288     1.0000 0.85631  0.17490  0.80933  Biso   1.000  C
  C289     1.0000 0.54410  0.53650  0.65379  Biso   1.000  C
  C290     1.0000 0.46350  0.00760  0.65379  Biso   1.000  C
  C291     1.0000 0.99240  0.45590  0.65379  Biso   1.000  C
  C292     1.0000 0.00760  0.46350  0.84621  Biso   1.000  C
  C293     1.0000 0.45590  0.99240  0.84621  Biso   1.000  C
  C294     1.0000 0.53650  0.54410  0.84621  Biso   1.000  C
  C295     1.0000 0.21077  0.86983  0.98712  Biso   1.000  C
  C296     1.0000 0.13017  0.34093  0.98712  Biso   1.000  C
  C297     1.0000 0.65907  0.78923  0.98712  Biso   1.000  C
  C298     1.0000 0.67427  0.79683  0.17954  Biso   1.000  C
  C299     1.0000 0.12257  0.32573  0.17954  Biso   1.000  C
  C300     1.0000 0.20317  0.87743  0.17954  Biso   1.000  C
  C301     1.0000 0.87743  0.20317  0.32046  Biso   1.000  C
  C302     1.0000 0.79683  0.67427  0.32046  Biso   1.000  C
  C303     1.0000 0.32573  0.12257  0.32046  Biso   1.000  C
  C304     1.0000 0.34093  0.13017  0.51288  Biso   1.000  C
  C305     1.0000 0.78923  0.65907  0.51288  Biso   1.000  C
  C306     1.0000 0.86983  0.21077  0.51288  Biso   1.000  C
  C307     1.0000 0.45590  0.46350  0.34621  Biso   1.000  C
  C308     1.0000 0.53650  0.99240  0.34621  Biso   1.000  C
  C309     1.0000 0.00760  0.54410  0.34621  Biso   1.000  C
  C310     1.0000 0.99240  0.53650  0.15379  Biso   1.000  C
  C311     1.0000 0.54410  0.00760  0.15379  Biso   1.000  C
  C312     1.0000 0.46350  0.45590  0.15379  Biso   1.000  C
  C313     1.0000 0.12257  0.79683  0.67954  Biso   1.000  C
  C314     1.0000 0.20317  0.32573  0.67954  Biso   1.000  C
  C315     1.0000 0.67427  0.87743  0.67954  Biso   1.000  C
  C316     1.0000 0.65907  0.86983  0.48712  Biso   1.000  C
  C317     1.0000 0.21077  0.34093  0.48712  Biso   1.000  C
  C318     1.0000 0.13017  0.78923  0.48712  Biso   1.000  C
  C319     1.0000 0.78923  0.13017  0.01288  Biso   1.000  C
  C320     1.0000 0.86983  0.65907  0.01288  Biso   1.000  C
  C321     1.0000 0.34093  0.21077  0.01288  Biso   1.000  C
  C322     1.0000 0.32573  0.20317  0.82046  Biso   1.000  C
  C323     1.0000 0.87743  0.67427  0.82046  Biso   1.000  C
  C324     1.0000 0.79683  0.12257  0.82046  Biso   1.000  C
  H181     1.0000 0.56970  0.59470  0.65140  Biso   1.000  H
  H182     1.0000 0.40530  0.97500  0.65140  Biso   1.000  H
  H183     1.0000 0.02500  0.43030  0.65140  Biso   1.000  H
  H184     1.0000 0.97500  0.40530  0.84860  Biso   1.000  H
  H185     1.0000 0.43030  0.02500  0.84860  Biso   1.000  H
  H186     1.0000 0.59470  0.56970  0.84860  Biso   1.000  H
  H187     1.0000 0.23637  0.92803  0.98473  Biso   1.000  H
  H188     1.0000 0.07197  0.30833  0.98473  Biso   1.000  H
  H189     1.0000 0.69167  0.76363  0.98473  Biso   1.000  H
  H190     1.0000 0.64167  0.73863  0.18193  Biso   1.000  H
  H191     1.0000 0.09697  0.35833  0.18193  Biso   1.000  H
  H192     1.0000 0.26137  0.90303  0.18193  Biso   1.000  H
  H193     1.0000 0.90303  0.26137  0.31807  Biso   1.000  H
  H194     1.0000 0.73863  0.64167  0.31807  Biso   1.000  H
  H195     1.0000 0.35833  0.09697  0.31807  Biso   1.000  H
  H196     1.0000 0.30833  0.07197  0.51527  Biso   1.000  H
  H197     1.0000 0.76363  0.69167  0.51527  Biso   1.000  H
  H198     1.0000 0.92803  0.23637  0.51527  Biso   1.000  H
  H199     1.0000 0.43030  0.40530  0.34860  Biso   1.000  H
  H200     1.0000 0.59470  0.02500  0.34860  Biso   1.000  H
  H201     1.0000 0.97500  0.56970  0.34860  Biso   1.000  H
  H202     1.0000 0.02500  0.59470  0.15140  Biso   1.000  H
  H203     1.0000 0.56970  0.97500  0.15140  Biso   1.000  H
  H204     1.0000 0.40530  0.43030  0.15140  Biso   1.000  H
  H205     1.0000 0.09697  0.73863  0.68193  Biso   1.000  H
  H206     1.0000 0.26137  0.35833  0.68193  Biso   1.000  H
  H207     1.0000 0.64167  0.90303  0.68193  Biso   1.000  H
  H208     1.0000 0.69167  0.92803  0.48473  Biso   1.000  H
  H209     1.0000 0.23637  0.30833  0.48473  Biso   1.000  H
  H210     1.0000 0.07197  0.76363  0.48473  Biso   1.000  H
  H211     1.0000 0.76363  0.07197  0.01527  Biso   1.000  H
  H212     1.0000 0.92803  0.69167  0.01527  Biso   1.000  H
  H213     1.0000 0.30833  0.23637  0.01527  Biso   1.000  H
  H214     1.0000 0.35833  0.26137  0.81807  Biso   1.000  H
  H215     1.0000 0.90303  0.64167  0.81807  Biso   1.000  H
  H216     1.0000 0.73863  0.09697  0.81807  Biso   1.000  H
  C325     1.0000 0.55890  0.51030  0.66853  Biso   1.000  C
  C326     1.0000 0.48970  0.04860  0.66853  Biso   1.000  C
  C327     1.0000 0.95140  0.44110  0.66853  Biso   1.000  C
  C328     1.0000 0.04860  0.48970  0.83147  Biso   1.000  C
  C329     1.0000 0.44110  0.95140  0.83147  Biso   1.000  C
  C330     1.0000 0.51030  0.55890  0.83147  Biso   1.000  C
  C331     1.0000 0.22557  0.84363  0.00186  Biso   1.000  C
  C332     1.0000 0.15637  0.38193  0.00186  Biso   1.000  C
  C333     1.0000 0.61807  0.77443  0.00186  Biso   1.000  C
  C334     1.0000 0.71527  0.82303  0.16480  Biso   1.000  C
  C335     1.0000 0.10777  0.28473  0.16480  Biso   1.000  C
  C336     1.0000 0.17697  0.89223  0.16480  Biso   1.000  C
  C337     1.0000 0.89223  0.17697  0.33520  Biso   1.000  C
  C338     1.0000 0.82303  0.71527  0.33520  Biso   1.000  C
  C339     1.0000 0.28473  0.10777  0.33520  Biso   1.000  C
  C340     1.0000 0.38193  0.15637  0.49814  Biso   1.000  C
  C341     1.0000 0.77443  0.61807  0.49814  Biso   1.000  C
  C342     1.0000 0.84363  0.22557  0.49814  Biso   1.000  C
  C343     1.0000 0.44110  0.48970  0.33147  Biso   1.000  C
  C344     1.0000 0.51030  0.95140  0.33147  Biso   1.000  C
  C345     1.0000 0.04860  0.55890  0.33147  Biso   1.000  C
  C346     1.0000 0.95140  0.51030  0.16853  Biso   1.000  C
  C347     1.0000 0.55890  0.04860  0.16853  Biso   1.000  C
  C348     1.0000 0.48970  0.44110  0.16853  Biso   1.000  C
  C349     1.0000 0.10777  0.82303  0.66480  Biso   1.000  C
  C350     1.0000 0.17697  0.28473  0.66480  Biso   1.000  C
  C351     1.0000 0.71527  0.89223  0.66480  Biso   1.000  C
  C352     1.0000 0.61807  0.84363  0.50186  Biso   1.000  C
  C353     1.0000 0.22557  0.38193  0.50186  Biso   1.000  C
  C354     1.0000 0.15637  0.77443  0.50186  Biso   1.000  C
  C355     1.0000 0.77443  0.15637  0.99814  Biso   1.000  C
  C356     1.0000 0.84363  0.61807  0.99814  Biso   1.000  C
  C357     1.0000 0.38193  0.22557  0.99814  Biso   1.000  C
  C358     1.0000 0.28473  0.17697  0.83520  Biso   1.000  C
  C359     1.0000 0.89223  0.71527  0.83520  Biso   1.000  C
  C360     1.0000 0.82303  0.10777  0.83520  Biso   1.000  C
  H217     1.0000 0.59370  0.55120  0.67620  Biso   1.000  H
  H218     1.0000 0.44880  0.04250  0.67620  Biso   1.000  H
  H219     1.0000 0.95750  0.40630  0.67620  Biso   1.000  H
  H220     1.0000 0.04250  0.44880  0.82380  Biso   1.000  H
  H221     1.0000 0.40630  0.95750  0.82380  Biso   1.000  H
  H222     1.0000 0.55120  0.59370  0.82380  Biso   1.000  H
  H223     1.0000 0.26037  0.88453  0.00953  Biso   1.000  H
  H224     1.0000 0.11547  0.37583  0.00953  Biso   1.000  H
  H225     1.0000 0.62417  0.73963  0.00953  Biso   1.000  H
  H226     1.0000 0.70917  0.78213  0.15713  Biso   1.000  H
  H227     1.0000 0.07297  0.29083  0.15713  Biso   1.000  H
  H228     1.0000 0.21787  0.92703  0.15713  Biso   1.000  H
  H229     1.0000 0.92703  0.21787  0.34287  Biso   1.000  H
  H230     1.0000 0.78213  0.70917  0.34287  Biso   1.000  H
  H231     1.0000 0.29083  0.07297  0.34287  Biso   1.000  H
  H232     1.0000 0.37583  0.11547  0.49047  Biso   1.000  H
  H233     1.0000 0.73963  0.62417  0.49047  Biso   1.000  H
  H234     1.0000 0.88453  0.26037  0.49047  Biso   1.000  H
  H235     1.0000 0.40630  0.44880  0.32380  Biso   1.000  H
  H236     1.0000 0.55120  0.95750  0.32380  Biso   1.000  H
  H237     1.0000 0.04250  0.59370  0.32380  Biso   1.000  H
  H238     1.0000 0.95750  0.55120  0.17620  Biso   1.000  H
  H239     1.0000 0.59370  0.04250  0.17620  Biso   1.000  H
  H240     1.0000 0.44880  0.40630  0.17620  Biso   1.000  H
  H241     1.0000 0.07297  0.78213  0.65713  Biso   1.000  H
  H242     1.0000 0.21787  0.29083  0.65713  Biso   1.000  H
  H243     1.0000 0.70917  0.92703  0.65713  Biso   1.000  H
  H244     1.0000 0.62417  0.88453  0.50953  Biso   1.000  H
  H245     1.0000 0.26037  0.37583  0.50953  Biso   1.000  H
  H246     1.0000 0.11547  0.73963  0.50953  Biso   1.000  H
  H247     1.0000 0.73963  0.11547  0.99047  Biso   1.000  H
  H248     1.0000 0.88453  0.62417  0.99047  Biso   1.000  H
  H249     1.0000 0.37583  0.26037  0.99047  Biso   1.000  H
  H250     1.0000 0.29083  0.21787  0.84287  Biso   1.000  H
  H251     1.0000 0.92703  0.70917  0.84287  Biso   1.000  H
  H252     1.0000 0.78213  0.07297  0.84287  Biso   1.000  H
  C361     1.0000 0.47276  0.50305  0.62689  Biso   1.000  C
  C362     1.0000 0.49695  0.96971  0.62689  Biso   1.000  C
  C363     1.0000 0.03029  0.52724  0.62689  Biso   1.000  C
  C364     1.0000 0.96971  0.49695  0.87311  Biso   1.000  C
  C365     1.0000 0.52724  0.03029  0.87311  Biso   1.000  C
  C366     1.0000 0.50305  0.47276  0.87311  Biso   1.000  C
  C367     1.0000 0.13943  0.83638  0.96022  Biso   1.000  C
  C368     1.0000 0.16362  0.30304  0.96022  Biso   1.000  C
  C369     1.0000 0.69696  0.86057  0.96022  Biso   1.000  C
  C370     1.0000 0.63638  0.83028  0.20644  Biso   1.000  C
  C371     1.0000 0.19391  0.36362  0.20644  Biso   1.000  C
  C372     1.0000 0.16972  0.80609  0.20644  Biso   1.000  C
  C373     1.0000 0.80609  0.16972  0.29356  Biso   1.000  C
  C374     1.0000 0.83028  0.63638  0.29356  Biso   1.000  C
  C375     1.0000 0.36362  0.19391  0.29356  Biso   1.000  C
  C376     1.0000 0.30304  0.16362  0.53978  Biso   1.000  C
  C377     1.0000 0.86057  0.69696  0.53978  Biso   1.000  C
  C378     1.0000 0.83638  0.13943  0.53978  Biso   1.000  C
  C379     1.0000 0.52724  0.49695  0.37311  Biso   1.000  C
  C380     1.0000 0.50305  0.03029  0.37311  Biso   1.000  C
  C381     1.0000 0.96971  0.47276  0.37311  Biso   1.000  C
  C382     1.0000 0.03029  0.50305  0.12689  Biso   1.000  C
  C383     1.0000 0.47276  0.96971  0.12689  Biso   1.000  C
  C384     1.0000 0.49695  0.52724  0.12689  Biso   1.000  C
  C385     1.0000 0.19391  0.83028  0.70644  Biso   1.000  C
  C386     1.0000 0.16972  0.36362  0.70644  Biso   1.000  C
  C387     1.0000 0.63638  0.80609  0.70644  Biso   1.000  C
  C388     1.0000 0.69696  0.83638  0.46022  Biso   1.000  C
  C389     1.0000 0.13943  0.30304  0.46022  Biso   1.000  C
  C390     1.0000 0.16362  0.86057  0.46022  Biso   1.000  C
  C391     1.0000 0.86057  0.16362  0.03978  Biso   1.000  C
  C392     1.0000 0.83638  0.69696  0.03978  Biso   1.000  C
  C393     1.0000 0.30304  0.13943  0.03978  Biso   1.000  C
  C394     1.0000 0.36362  0.16972  0.79356  Biso   1.000  C
  C395     1.0000 0.80609  0.63638  0.79356  Biso   1.000  C
  C396     1.0000 0.83028  0.19391  0.79356  Biso   1.000  C
  C397     1.0000 0.39520  0.45258  0.61976  Biso   1.000  C
  C398     1.0000 0.54742  0.94262  0.61976  Biso   1.000  C
  C399     1.0000 0.05738  0.60480  0.61976  Biso   1.000  C
  C400     1.0000 0.94262  0.54742  0.88024  Biso   1.000  C
  C401     1.0000 0.60480  0.05738  0.88024  Biso   1.000  C
  C402     1.0000 0.45258  0.39520  0.88024  Biso   1.000  C
  C403     1.0000 0.06187  0.78591  0.95309  Biso   1.000  C
  C404     1.0000 0.21409  0.27595  0.95309  Biso   1.000  C
  C405     1.0000 0.72405  0.93813  0.95309  Biso   1.000  C
  C406     1.0000 0.60929  0.88075  0.21357  Biso   1.000  C
  C407     1.0000 0.27147  0.39071  0.21357  Biso   1.000  C
  C408     1.0000 0.11925  0.72853  0.21357  Biso   1.000  C
  C409     1.0000 0.72853  0.11925  0.28643  Biso   1.000  C
  C410     1.0000 0.88075  0.60929  0.28643  Biso   1.000  C
  C411     1.0000 0.39071  0.27147  0.28643  Biso   1.000  C
  C412     1.0000 0.27595  0.21409  0.54691  Biso   1.000  C
  C413     1.0000 0.93813  0.72405  0.54691  Biso   1.000  C
  C414     1.0000 0.78591  0.06187  0.54691  Biso   1.000  C
  C415     1.0000 0.60480  0.54742  0.38024  Biso   1.000  C
  C416     1.0000 0.45258  0.05738  0.38024  Biso   1.000  C
  C417     1.0000 0.94262  0.39520  0.38024  Biso   1.000  C
  C418     1.0000 0.05738  0.45258  0.11976  Biso   1.000  C
  C419     1.0000 0.39520  0.94262  0.11976  Biso   1.000  C
  C420     1.0000 0.54742  0.60480  0.11976  Biso   1.000  C
  C421     1.0000 0.27147  0.88075  0.71357  Biso   1.000  C
  C422     1.0000 0.11925  0.39071  0.71357  Biso   1.000  C
  C423     1.0000 0.60929  0.72853  0.71357  Biso   1.000  C
  C424     1.0000 0.72405  0.78591  0.45309  Biso   1.000  C
  C425     1.0000 0.06187  0.27595  0.45309  Biso   1.000  C
  C426     1.0000 0.21409  0.93813  0.45309  Biso   1.000  C
  C427     1.0000 0.93813  0.21409  0.04691  Biso   1.000  C
  C428     1.0000 0.78591  0.72405  0.04691  Biso   1.000  C
  C429     1.0000 0.27595  0.06187  0.04691  Biso   1.000  C
  C430     1.0000 0.39071  0.11925  0.78643  Biso   1.000  C
  C431     1.0000 0.72853  0.60929  0.78643  Biso   1.000  C
  C432     1.0000 0.88075  0.27147  0.78643  Biso   1.000  C
  H253     1.0000 0.35440  0.40310  0.62510  Biso   1.000  H
  H254     1.0000 0.59690  0.95130  0.62510  Biso   1.000  H
  H255     1.0000 0.04870  0.64560  0.62510  Biso   1.000  H
  H256     1.0000 0.95130  0.59690  0.87490  Biso   1.000  H
  H257     1.0000 0.64560  0.04870  0.87490  Biso   1.000  H
  H258     1.0000 0.40310  0.35440  0.87490  Biso   1.000  H
  H259     1.0000 0.02107  0.73643  0.95843  Biso   1.000  H
  H260     1.0000 0.26357  0.28463  0.95843  Biso   1.000  H
  H261     1.0000 0.71537  0.97893  0.95843  Biso   1.000  H
  H262     1.0000 0.61797  0.93023  0.20823  Biso   1.000  H
  H263     1.0000 0.31227  0.38203  0.20823  Biso   1.000  H
  H264     1.0000 0.06977  0.68773  0.20823  Biso   1.000  H
  H265     1.0000 0.68773  0.06977  0.29177  Biso   1.000  H
  H266     1.0000 0.93023  0.61797  0.29177  Biso   1.000  H
  H267     1.0000 0.38203  0.31227  0.29177  Biso   1.000  H
  H268     1.0000 0.28463  0.26357  0.54157  Biso   1.000  H
  H269     1.0000 0.97893  0.71537  0.54157  Biso   1.000  H
  H270     1.0000 0.73643  0.02107  0.54157  Biso   1.000  H
  H271     1.0000 0.64560  0.59690  0.37490  Biso   1.000  H
  H272     1.0000 0.40310  0.04870  0.37490  Biso   1.000  H
  H273     1.0000 0.95130  0.35440  0.37490  Biso   1.000  H
  H274     1.0000 0.04870  0.40310  0.12510  Biso   1.000  H
  H275     1.0000 0.35440  0.95130  0.12510  Biso   1.000  H
  H276     1.0000 0.59690  0.64560  0.12510  Biso   1.000  H
  H277     1.0000 0.31227  0.93023  0.70823  Biso   1.000  H
  H278     1.0000 0.06977  0.38203  0.70823  Biso   1.000  H
  H279     1.0000 0.61797  0.68773  0.70823  Biso   1.000  H
  H280     1.0000 0.71537  0.73643  0.45843  Biso   1.000  H
  H281     1.0000 0.02107  0.28463  0.45843  Biso   1.000  H
  H282     1.0000 0.26357  0.97893  0.45843  Biso   1.000  H
  H283     1.0000 0.97893  0.26357  0.04157  Biso   1.000  H
  H284     1.0000 0.73643  0.71537  0.04157  Biso   1.000  H
  H285     1.0000 0.28463  0.02107  0.04157  Biso   1.000  H
  H286     1.0000 0.38203  0.06977  0.79177  Biso   1.000  H
  H287     1.0000 0.68773  0.61797  0.79177  Biso   1.000  H
  H288     1.0000 0.93023  0.31227  0.79177  Biso   1.000  H
  C433     1.0000 0.37659  0.47378  0.60487  Biso   1.000  C
  C434     1.0000 0.52622  0.90281  0.60487  Biso   1.000  C
  C435     1.0000 0.09719  0.62341  0.60487  Biso   1.000  C
  C436     1.0000 0.90281  0.52622  0.89513  Biso   1.000  C
  C437     1.0000 0.62341  0.09719  0.89513  Biso   1.000  C
  C438     1.0000 0.47378  0.37659  0.89513  Biso   1.000  C
  C439     1.0000 0.04326  0.80711  0.93820  Biso   1.000  C
  C440     1.0000 0.19289  0.23614  0.93820  Biso   1.000  C
  C441     1.0000 0.76386  0.95674  0.93820  Biso   1.000  C
  C442     1.0000 0.56948  0.85955  0.22846  Biso   1.000  C
  C443     1.0000 0.29008  0.43052  0.22846  Biso   1.000  C
  C444     1.0000 0.14045  0.70992  0.22846  Biso   1.000  C
  C445     1.0000 0.70992  0.14045  0.27154  Biso   1.000  C
  C446     1.0000 0.85955  0.56948  0.27154  Biso   1.000  C
  C447     1.0000 0.43052  0.29008  0.27154  Biso   1.000  C
  C448     1.0000 0.23614  0.19289  0.56180  Biso   1.000  C
  C449     1.0000 0.95674  0.76386  0.56180  Biso   1.000  C
  C450     1.0000 0.80711  0.04326  0.56180  Biso   1.000  C
  C451     1.0000 0.62341  0.52622  0.39513  Biso   1.000  C
  C452     1.0000 0.47378  0.09719  0.39513  Biso   1.000  C
  C453     1.0000 0.90281  0.37659  0.39513  Biso   1.000  C
  C454     1.0000 0.09719  0.47378  0.10487  Biso   1.000  C
  C455     1.0000 0.37659  0.90281  0.10487  Biso   1.000  C
  C456     1.0000 0.52622  0.62341  0.10487  Biso   1.000  C
  C457     1.0000 0.29008  0.85955  0.72846  Biso   1.000  C
  C458     1.0000 0.14045  0.43052  0.72846  Biso   1.000  C
  C459     1.0000 0.56948  0.70992  0.72846  Biso   1.000  C
  C460     1.0000 0.76386  0.80711  0.43820  Biso   1.000  C
  C461     1.0000 0.04326  0.23614  0.43820  Biso   1.000  C
  C462     1.0000 0.19289  0.95674  0.43820  Biso   1.000  C
  C463     1.0000 0.95674  0.19289  0.06180  Biso   1.000  C
  C464     1.0000 0.80711  0.76386  0.06180  Biso   1.000  C
  C465     1.0000 0.23614  0.04326  0.06180  Biso   1.000  C
  C466     1.0000 0.43052  0.14045  0.77154  Biso   1.000  C
  C467     1.0000 0.70992  0.56948  0.77154  Biso   1.000  C
  C468     1.0000 0.85955  0.29008  0.77154  Biso   1.000  C
  C469     1.0000 0.43593  0.54703  0.59730  Biso   1.000  C
  C470     1.0000 0.45297  0.88890  0.59730  Biso   1.000  C
  C471     1.0000 0.11110  0.56407  0.59730  Biso   1.000  C
  C472     1.0000 0.88890  0.45297  0.90270  Biso   1.000  C
  C473     1.0000 0.56407  0.11110  0.90270  Biso   1.000  C
  C474     1.0000 0.54703  0.43593  0.90270  Biso   1.000  C
  C475     1.0000 0.10260  0.88036  0.93063  Biso   1.000  C
  C476     1.0000 0.11964  0.22223  0.93063  Biso   1.000  C
  C477     1.0000 0.77777  0.89740  0.93063  Biso   1.000  C
  C478     1.0000 0.55557  0.78630  0.23603  Biso   1.000  C
  C479     1.0000 0.23074  0.44443  0.23603  Biso   1.000  C
  C480     1.0000 0.21370  0.76926  0.23603  Biso   1.000  C
  C481     1.0000 0.76926  0.21370  0.26397  Biso   1.000  C
  C482     1.0000 0.78630  0.55557  0.26397  Biso   1.000  C
  C483     1.0000 0.44443  0.23074  0.26397  Biso   1.000  C
  C484     1.0000 0.22223  0.11964  0.56937  Biso   1.000  C
  C485     1.0000 0.89740  0.77777  0.56937  Biso   1.000  C
  C486     1.0000 0.88036  0.10260  0.56937  Biso   1.000  C
  C487     1.0000 0.56407  0.45297  0.40270  Biso   1.000  C
  C488     1.0000 0.54703  0.11110  0.40270  Biso   1.000  C
  C489     1.0000 0.88890  0.43593  0.40270  Biso   1.000  C
  C490     1.0000 0.11110  0.54703  0.09730  Biso   1.000  C
  C491     1.0000 0.43593  0.88890  0.09730  Biso   1.000  C
  C492     1.0000 0.45297  0.56407  0.09730  Biso   1.000  C
  C493     1.0000 0.23074  0.78630  0.73603  Biso   1.000  C
  C494     1.0000 0.21370  0.44443  0.73603  Biso   1.000  C
  C495     1.0000 0.55557  0.76926  0.73603  Biso   1.000  C
  C496     1.0000 0.77777  0.88036  0.43063  Biso   1.000  C
  C497     1.0000 0.10260  0.22223  0.43063  Biso   1.000  C
  C498     1.0000 0.11964  0.89740  0.43063  Biso   1.000  C
  C499     1.0000 0.89740  0.11964  0.06937  Biso   1.000  C
  C500     1.0000 0.88036  0.77777  0.06937  Biso   1.000  C
  C501     1.0000 0.22223  0.10260  0.06937  Biso   1.000  C
  C502     1.0000 0.44443  0.21370  0.76397  Biso   1.000  C
  C503     1.0000 0.76926  0.55557  0.76397  Biso   1.000  C
  C504     1.0000 0.78630  0.23074  0.76397  Biso   1.000  C
  H289     1.0000 0.42360  0.56150  0.58710  Biso   1.000  H
  H290     1.0000 0.43850  0.86210  0.58710  Biso   1.000  H
  H291     1.0000 0.13790  0.57640  0.58710  Biso   1.000  H
  H292     1.0000 0.86210  0.43850  0.91290  Biso   1.000  H
  H293     1.0000 0.57640  0.13790  0.91290  Biso   1.000  H
  H294     1.0000 0.56150  0.42360  0.91290  Biso   1.000  H
  H295     1.0000 0.09027  0.89483  0.92043  Biso   1.000  H
  H296     1.0000 0.10517  0.19543  0.92043  Biso   1.000  H
  H297     1.0000 0.80457  0.90973  0.92043  Biso   1.000  H
  H298     1.0000 0.52877  0.77183  0.24623  Biso   1.000  H
  H299     1.0000 0.24307  0.47123  0.24623  Biso   1.000  H
  H300     1.0000 0.22817  0.75693  0.24623  Biso   1.000  H
  H301     1.0000 0.75693  0.22817  0.25377  Biso   1.000  H
  H302     1.0000 0.77183  0.52877  0.25377  Biso   1.000  H
  H303     1.0000 0.47123  0.24307  0.25377  Biso   1.000  H
  H304     1.0000 0.19543  0.10517  0.57957  Biso   1.000  H
  H305     1.0000 0.90973  0.80457  0.57957  Biso   1.000  H
  H306     1.0000 0.89483  0.09027  0.57957  Biso   1.000  H
  H307     1.0000 0.57640  0.43850  0.41290  Biso   1.000  H
  H308     1.0000 0.56150  0.13790  0.41290  Biso   1.000  H
  H309     1.0000 0.86210  0.42360  0.41290  Biso   1.000  H
  H310     1.0000 0.13790  0.56150  0.08710  Biso   1.000  H
  H311     1.0000 0.42360  0.86210  0.08710  Biso   1.000  H
  H312     1.0000 0.43850  0.57640  0.08710  Biso   1.000  H
  H313     1.0000 0.24307  0.77183  0.74623  Biso   1.000  H
  H314     1.0000 0.22817  0.47123  0.74623  Biso   1.000  H
  H315     1.0000 0.52877  0.75693  0.74623  Biso   1.000  H
  H316     1.0000 0.80457  0.89483  0.42043  Biso   1.000  H
  H317     1.0000 0.09027  0.19543  0.42043  Biso   1.000  H
  H318     1.0000 0.10517  0.90973  0.42043  Biso   1.000  H
  H319     1.0000 0.90973  0.10517  0.07957  Biso   1.000  H
  H320     1.0000 0.89483  0.80457  0.07957  Biso   1.000  H
  H321     1.0000 0.19543  0.09027  0.07957  Biso   1.000  H
  H322     1.0000 0.47123  0.22817  0.75377  Biso   1.000  H
  H323     1.0000 0.75693  0.52877  0.75377  Biso   1.000  H
  H324     1.0000 0.77183  0.24307  0.75377  Biso   1.000  H
  C505     1.0000 0.51300  0.59918  0.60447  Biso   1.000  C
  C506     1.0000 0.40082  0.91382  0.60447  Biso   1.000  C
  C507     1.0000 0.08618  0.48700  0.60447  Biso   1.000  C
  C508     1.0000 0.91382  0.40082  0.89553  Biso   1.000  C
  C509     1.0000 0.48700  0.08618  0.89553  Biso   1.000  C
  C510     1.0000 0.59918  0.51300  0.89553  Biso   1.000  C
  C511     1.0000 0.17967  0.93251  0.93780  Biso   1.000  C
  C512     1.0000 0.06749  0.24715  0.93780  Biso   1.000  C
  C513     1.0000 0.75285  0.82033  0.93780  Biso   1.000  C
  C514     1.0000 0.58049  0.73415  0.22886  Biso   1.000  C
  C515     1.0000 0.15367  0.41951  0.22886  Biso   1.000  C
  C516     1.0000 0.26585  0.84633  0.22886  Biso   1.000  C
  C517     1.0000 0.84633  0.26585  0.27114  Biso   1.000  C
  C518     1.0000 0.73415  0.58049  0.27114  Biso   1.000  C
  C519     1.0000 0.41951  0.15367  0.27114  Biso   1.000  C
  C520     1.0000 0.24715  0.06749  0.56220  Biso   1.000  C
  C521     1.0000 0.82033  0.75285  0.56220  Biso   1.000  C
  C522     1.0000 0.93251  0.17967  0.56220  Biso   1.000  C
  C523     1.0000 0.48700  0.40082  0.39553  Biso   1.000  C
  C524     1.0000 0.59918  0.08618  0.39553  Biso   1.000  C
  C525     1.0000 0.91382  0.51300  0.39553  Biso   1.000  C
  C526     1.0000 0.08618  0.59918  0.10447  Biso   1.000  C
  C527     1.0000 0.51300  0.91382  0.10447  Biso   1.000  C
  C528     1.0000 0.40082  0.48700  0.10447  Biso   1.000  C
  C529     1.0000 0.15367  0.73415  0.72886  Biso   1.000  C
  C530     1.0000 0.26585  0.41951  0.72886  Biso   1.000  C
  C531     1.0000 0.58049  0.84633  0.72886  Biso   1.000  C
  C532     1.0000 0.75285  0.93251  0.43780  Biso   1.000  C
  C533     1.0000 0.17967  0.24715  0.43780  Biso   1.000  C
  C534     1.0000 0.06749  0.82033  0.43780  Biso   1.000  C
  C535     1.0000 0.82033  0.06749  0.06220  Biso   1.000  C
  C536     1.0000 0.93251  0.75285  0.06220  Biso   1.000  C
  C537     1.0000 0.24715  0.17967  0.06220  Biso   1.000  C
  C538     1.0000 0.41951  0.26585  0.77114  Biso   1.000  C
  C539     1.0000 0.84633  0.58049  0.77114  Biso   1.000  C
  C540     1.0000 0.73415  0.15367  0.77114  Biso   1.000  C
  C541     1.0000 0.53129  0.57609  0.61931  Biso   1.000  C
  C542     1.0000 0.42391  0.95520  0.61931  Biso   1.000  C
  C543     1.0000 0.04480  0.46871  0.61931  Biso   1.000  C
  C544     1.0000 0.95520  0.42391  0.88069  Biso   1.000  C
  C545     1.0000 0.46871  0.04480  0.88069  Biso   1.000  C
  C546     1.0000 0.57609  0.53129  0.88069  Biso   1.000  C
  C547     1.0000 0.19796  0.90942  0.95264  Biso   1.000  C
  C548     1.0000 0.09058  0.28853  0.95264  Biso   1.000  C
  C549     1.0000 0.71147  0.80204  0.95264  Biso   1.000  C
  C550     1.0000 0.62187  0.75724  0.21402  Biso   1.000  C
  C551     1.0000 0.13538  0.37813  0.21402  Biso   1.000  C
  C552     1.0000 0.24276  0.86462  0.21402  Biso   1.000  C
  C553     1.0000 0.86462  0.24276  0.28598  Biso   1.000  C
  C554     1.0000 0.75724  0.62187  0.28598  Biso   1.000  C
  C555     1.0000 0.37813  0.13538  0.28598  Biso   1.000  C
  C556     1.0000 0.28853  0.09058  0.54736  Biso   1.000  C
  C557     1.0000 0.80204  0.71147  0.54736  Biso   1.000  C
  C558     1.0000 0.90942  0.19796  0.54736  Biso   1.000  C
  C559     1.0000 0.46871  0.42391  0.38069  Biso   1.000  C
  C560     1.0000 0.57609  0.04480  0.38069  Biso   1.000  C
  C561     1.0000 0.95520  0.53129  0.38069  Biso   1.000  C
  C562     1.0000 0.04480  0.57609  0.11931  Biso   1.000  C
  C563     1.0000 0.53129  0.95520  0.11931  Biso   1.000  C
  C564     1.0000 0.42391  0.46871  0.11931  Biso   1.000  C
  C565     1.0000 0.13538  0.75724  0.71402  Biso   1.000  C
  C566     1.0000 0.24276  0.37813  0.71402  Biso   1.000  C
  C567     1.0000 0.62187  0.86462  0.71402  Biso   1.000  C
  C568     1.0000 0.71147  0.90942  0.45264  Biso   1.000  C
  C569     1.0000 0.19796  0.28853  0.45264  Biso   1.000  C
  C570     1.0000 0.09058  0.80204  0.45264  Biso   1.000  C
  C571     1.0000 0.80204  0.09058  0.04736  Biso   1.000  C
  C572     1.0000 0.90942  0.71147  0.04736  Biso   1.000  C
  C573     1.0000 0.28853  0.19796  0.04736  Biso   1.000  C
  C574     1.0000 0.37813  0.24276  0.78598  Biso   1.000  C
  C575     1.0000 0.86462  0.62187  0.78598  Biso   1.000  C
  C576     1.0000 0.75724  0.13538  0.78598  Biso   1.000  C
  H325     1.0000 0.58430  0.61090  0.62420  Biso   1.000  H
  H326     1.0000 0.38910  0.97340  0.62420  Biso   1.000  H
  H327     1.0000 0.02660  0.41570  0.62420  Biso   1.000  H
  H328     1.0000 0.97340  0.38910  0.87580  Biso   1.000  H
  H329     1.0000 0.41570  0.02660  0.87580  Biso   1.000  H
  H330     1.0000 0.61090  0.58430  0.87580  Biso   1.000  H
  H331     1.0000 0.25097  0.94423  0.95753  Biso   1.000  H
  H332     1.0000 0.05577  0.30673  0.95753  Biso   1.000  H
  H333     1.0000 0.69327  0.74903  0.95753  Biso   1.000  H
  H334     1.0000 0.64007  0.72243  0.20913  Biso   1.000  H
  H335     1.0000 0.08237  0.35993  0.20913  Biso   1.000  H
  H336     1.0000 0.27757  0.91763  0.20913  Biso   1.000  H
  H337     1.0000 0.91763  0.27757  0.29087  Biso   1.000  H
  H338     1.0000 0.72243  0.64007  0.29087  Biso   1.000  H
  H339     1.0000 0.35993  0.08237  0.29087  Biso   1.000  H
  H340     1.0000 0.30673  0.05577  0.54247  Biso   1.000  H
  H341     1.0000 0.74903  0.69327  0.54247  Biso   1.000  H
  H342     1.0000 0.94423  0.25097  0.54247  Biso   1.000  H
  H343     1.0000 0.41570  0.38910  0.37580  Biso   1.000  H
  H344     1.0000 0.61090  0.02660  0.37580  Biso   1.000  H
  H345     1.0000 0.97340  0.58430  0.37580  Biso   1.000  H
  H346     1.0000 0.02660  0.61090  0.12420  Biso   1.000  H
  H347     1.0000 0.58430  0.97340  0.12420  Biso   1.000  H
  H348     1.0000 0.38910  0.41570  0.12420  Biso   1.000  H
  H349     1.0000 0.08237  0.72243  0.70913  Biso   1.000  H
  H350     1.0000 0.27757  0.35993  0.70913  Biso   1.000  H
  H351     1.0000 0.64007  0.91763  0.70913  Biso   1.000  H
  H352     1.0000 0.69327  0.94423  0.45753  Biso   1.000  H
  H353     1.0000 0.25097  0.30673  0.45753  Biso   1.000  H
  H354     1.0000 0.05577  0.74903  0.45753  Biso   1.000  H
  H355     1.0000 0.74903  0.05577  0.04247  Biso   1.000  H
  H356     1.0000 0.94423  0.69327  0.04247  Biso   1.000  H
  H357     1.0000 0.30673  0.25097  0.04247  Biso   1.000  H
  H358     1.0000 0.35993  0.27757  0.79087  Biso   1.000  H
  H359     1.0000 0.91763  0.64007  0.79087  Biso   1.000  H
  H360     1.0000 0.72243  0.08237  0.79087  Biso   1.000  H
  C577     1.0000 0.57337  0.67930  0.59653  Biso   1.000  C
  C578     1.0000 0.32070  0.89407  0.59653  Biso   1.000  C
  C579     1.0000 0.10593  0.42663  0.59653  Biso   1.000  C
  C580     1.0000 0.89407  0.32070  0.90347  Biso   1.000  C
  C581     1.0000 0.42663  0.10593  0.90347  Biso   1.000  C
  C582     1.0000 0.67930  0.57337  0.90347  Biso   1.000  C
  C583     1.0000 0.24004  0.01263  0.92986  Biso   1.000  C
  C584     1.0000 0.98737  0.22740  0.92986  Biso   1.000  C
  C585     1.0000 0.77260  0.75996  0.92986  Biso   1.000  C
  C586     1.0000 0.56074  0.65403  0.23680  Biso   1.000  C
  C587     1.0000 0.09330  0.43926  0.23680  Biso   1.000  C
  C588     1.0000 0.34597  0.90670  0.23680  Biso   1.000  C
  C589     1.0000 0.90670  0.34597  0.26320  Biso   1.000  C
  C590     1.0000 0.65403  0.56074  0.26320  Biso   1.000  C
  C591     1.0000 0.43926  0.09330  0.26320  Biso   1.000  C
  C592     1.0000 0.22740  0.98737  0.57014  Biso   1.000  C
  C593     1.0000 0.75996  0.77260  0.57014  Biso   1.000  C
  C594     1.0000 0.01263  0.24004  0.57014  Biso   1.000  C
  C595     1.0000 0.42663  0.32070  0.40347  Biso   1.000  C
  C596     1.0000 0.67930  0.10593  0.40347  Biso   1.000  C
  C597     1.0000 0.89407  0.57337  0.40347  Biso   1.000  C
  C598     1.0000 0.10593  0.67930  0.09653  Biso   1.000  C
  C599     1.0000 0.57337  0.89407  0.09653  Biso   1.000  C
  C600     1.0000 0.32070  0.42663  0.09653  Biso   1.000  C
  C601     1.0000 0.09330  0.65403  0.73680  Biso   1.000  C
  C602     1.0000 0.34597  0.43926  0.73680  Biso   1.000  C
  C603     1.0000 0.56074  0.90670  0.73680  Biso   1.000  C
  C604     1.0000 0.77260  0.01263  0.42986  Biso   1.000  C
  C605     1.0000 0.24004  0.22740  0.42986  Biso   1.000  C
  C606     1.0000 0.98737  0.75996  0.42986  Biso   1.000  C
  C607     1.0000 0.75996  0.98737  0.07014  Biso   1.000  C
  C608     1.0000 0.01263  0.77260  0.07014  Biso   1.000  C
  C609     1.0000 0.22740  0.24004  0.07014  Biso   1.000  C
  C610     1.0000 0.43926  0.34597  0.76320  Biso   1.000  C
  C611     1.0000 0.90670  0.56074  0.76320  Biso   1.000  C
  C612     1.0000 0.65403  0.09330  0.76320  Biso   1.000  C
  O1       1.0000 0.55484  0.69013  0.58248  Biso   1.000  O
  O2       1.0000 0.30987  0.86471  0.58248  Biso   1.000  O
  O3       1.0000 0.13529  0.44516  0.58248  Biso   1.000  O
  O4       1.0000 0.86471  0.30987  0.91752  Biso   1.000  O
  O5       1.0000 0.44516  0.13529  0.91752  Biso   1.000  O
  O6       1.0000 0.69013  0.55484  0.91752  Biso   1.000  O
  O7       1.0000 0.22151  0.02346  0.91581  Biso   1.000  O
  O8       1.0000 0.97654  0.19804  0.91581  Biso   1.000  O
  O9       1.0000 0.80196  0.77849  0.91581  Biso   1.000  O
  O10      1.0000 0.53138  0.64320  0.25085  Biso   1.000  O
  O11      1.0000 0.11183  0.46862  0.25085  Biso   1.000  O
  O12      1.0000 0.35680  0.88817  0.25085  Biso   1.000  O
  O13      1.0000 0.88817  0.35680  0.24915  Biso   1.000  O
  O14      1.0000 0.64320  0.53138  0.24915  Biso   1.000  O
  O15      1.0000 0.46862  0.11183  0.24915  Biso   1.000  O
  O16      1.0000 0.19804  0.97654  0.58419  Biso   1.000  O
  O17      1.0000 0.77849  0.80196  0.58419  Biso   1.000  O
  O18      1.0000 0.02346  0.22151  0.58419  Biso   1.000  O
  O19      1.0000 0.44516  0.30987  0.41752  Biso   1.000  O
  O20      1.0000 0.69013  0.13529  0.41752  Biso   1.000  O
  O21      1.0000 0.86471  0.55484  0.41752  Biso   1.000  O
  O22      1.0000 0.13529  0.69013  0.08248  Biso   1.000  O
  O23      1.0000 0.55484  0.86471  0.08248  Biso   1.000  O
  O24      1.0000 0.30987  0.44516  0.08248  Biso   1.000  O
  O25      1.0000 0.11183  0.64320  0.75085  Biso   1.000  O
  O26      1.0000 0.35680  0.46862  0.75085  Biso   1.000  O
  O27      1.0000 0.53138  0.88817  0.75085  Biso   1.000  O
  O28      1.0000 0.80196  0.02346  0.41581  Biso   1.000  O
  O29      1.0000 0.22151  0.19804  0.41581  Biso   1.000  O
  O30      1.0000 0.97654  0.77849  0.41581  Biso   1.000  O
  O31      1.0000 0.77849  0.97654  0.08419  Biso   1.000  O
  O32      1.0000 0.02346  0.80196  0.08419  Biso   1.000  O
  O33      1.0000 0.19804  0.22151  0.08419  Biso   1.000  O
  O34      1.0000 0.46862  0.35680  0.74915  Biso   1.000  O
  O35      1.0000 0.88817  0.53138  0.74915  Biso   1.000  O
  O36      1.0000 0.64320  0.11183  0.74915  Biso   1.000  O
  O37      1.0000 0.63728  0.73103  0.60425  Biso   1.000  O
  O38      1.0000 0.26897  0.90625  0.60425  Biso   1.000  O
  O39      1.0000 0.09375  0.36272  0.60425  Biso   1.000  O
  O40      1.0000 0.90625  0.26897  0.89575  Biso   1.000  O
  O41      1.0000 0.36272  0.09375  0.89575  Biso   1.000  O
  O42      1.0000 0.73103  0.63728  0.89575  Biso   1.000  O
  O43      1.0000 0.30395  0.06436  0.93758  Biso   1.000  O
  O44      1.0000 0.93564  0.23958  0.93758  Biso   1.000  O
  O45      1.0000 0.76042  0.69605  0.93758  Biso   1.000  O
  O46      1.0000 0.57292  0.60230  0.22908  Biso   1.000  O
  O47      1.0000 0.02939  0.42708  0.22908  Biso   1.000  O
  O48      1.0000 0.39770  0.97061  0.22908  Biso   1.000  O
  O49      1.0000 0.97061  0.39770  0.27092  Biso   1.000  O
  O50      1.0000 0.60230  0.57292  0.27092  Biso   1.000  O
  O51      1.0000 0.42708  0.02939  0.27092  Biso   1.000  O
  O52      1.0000 0.23958  0.93564  0.56242  Biso   1.000  O
  O53      1.0000 0.69605  0.76042  0.56242  Biso   1.000  O
  O54      1.0000 0.06436  0.30395  0.56242  Biso   1.000  O
  O55      1.0000 0.36272  0.26897  0.39575  Biso   1.000  O
  O56      1.0000 0.73103  0.09375  0.39575  Biso   1.000  O
  O57      1.0000 0.90625  0.63728  0.39575  Biso   1.000  O
  O58      1.0000 0.09375  0.73103  0.10425  Biso   1.000  O
  O59      1.0000 0.63728  0.90625  0.10425  Biso   1.000  O
  O60      1.0000 0.26897  0.36272  0.10425  Biso   1.000  O
  O61      1.0000 0.02939  0.60230  0.72908  Biso   1.000  O
  O62      1.0000 0.39770  0.42708  0.72908  Biso   1.000  O
  O63      1.0000 0.57292  0.97061  0.72908  Biso   1.000  O
  O64      1.0000 0.76042  0.06436  0.43758  Biso   1.000  O
  O65      1.0000 0.30395  0.23958  0.43758  Biso   1.000  O
  O66      1.0000 0.93564  0.69605  0.43758  Biso   1.000  O
  O67      1.0000 0.69605  0.93564  0.06242  Biso   1.000  O
  O68      1.0000 0.06436  0.76042  0.06242  Biso   1.000  O
  O69      1.0000 0.23958  0.30395  0.06242  Biso   1.000  O
  O70      1.0000 0.42708  0.39770  0.77092  Biso   1.000  O
  O71      1.0000 0.97061  0.57292  0.77092  Biso   1.000  O
  O72      1.0000 0.60230  0.02939  0.77092  Biso   1.000  O
  C613     1.0000 0.29312  0.41953  0.59717  Biso   1.000  C
  C614     1.0000 0.58047  0.87359  0.59717  Biso   1.000  C
  C615     1.0000 0.12641  0.70688  0.59717  Biso   1.000  C
  C616     1.0000 0.87359  0.58047  0.90283  Biso   1.000  C
  C617     1.0000 0.70688  0.12641  0.90283  Biso   1.000  C
  C618     1.0000 0.41953  0.29312  0.90283  Biso   1.000  C
  C619     1.0000 0.95979  0.75286  0.93050  Biso   1.000  C
  C620     1.0000 0.24714  0.20692  0.93050  Biso   1.000  C
  C621     1.0000 0.79308  0.04021  0.93050  Biso   1.000  C
  C622     1.0000 0.54026  0.91380  0.23616  Biso   1.000  C
  C623     1.0000 0.37355  0.45974  0.23616  Biso   1.000  C
  C624     1.0000 0.08620  0.62645  0.23616  Biso   1.000  C
  C625     1.0000 0.62645  0.08620  0.26384  Biso   1.000  C
  C626     1.0000 0.91380  0.54026  0.26384  Biso   1.000  C
  C627     1.0000 0.45974  0.37355  0.26384  Biso   1.000  C
  C628     1.0000 0.20692  0.24714  0.56950  Biso   1.000  C
  C629     1.0000 0.04021  0.79308  0.56950  Biso   1.000  C
  C630     1.0000 0.75286  0.95979  0.56950  Biso   1.000  C
  C631     1.0000 0.70688  0.58047  0.40283  Biso   1.000  C
  C632     1.0000 0.41953  0.12641  0.40283  Biso   1.000  C
  C633     1.0000 0.87359  0.29312  0.40283  Biso   1.000  C
  C634     1.0000 0.12641  0.41953  0.09717  Biso   1.000  C
  C635     1.0000 0.29312  0.87359  0.09717  Biso   1.000  C
  C636     1.0000 0.58047  0.70688  0.09717  Biso   1.000  C
  C637     1.0000 0.37355  0.91380  0.73616  Biso   1.000  C
  C638     1.0000 0.08620  0.45974  0.73616  Biso   1.000  C
  C639     1.0000 0.54026  0.62645  0.73616  Biso   1.000  C
  C640     1.0000 0.79308  0.75286  0.43050  Biso   1.000  C
  C641     1.0000 0.95979  0.20692  0.43050  Biso   1.000  C
  C642     1.0000 0.24714  0.04021  0.43050  Biso   1.000  C
  C643     1.0000 0.04021  0.24714  0.06950  Biso   1.000  C
  C644     1.0000 0.75286  0.79308  0.06950  Biso   1.000  C
  C645     1.0000 0.20692  0.95979  0.06950  Biso   1.000  C
  C646     1.0000 0.45974  0.08620  0.76384  Biso   1.000  C
  C647     1.0000 0.62645  0.54026  0.76384  Biso   1.000  C
  C648     1.0000 0.91380  0.37355  0.76384  Biso   1.000  C
  O73      1.0000 0.28252  0.44169  0.58347  Biso   1.000  O
  O74      1.0000 0.55831  0.84083  0.58347  Biso   1.000  O
  O75      1.0000 0.15917  0.71748  0.58347  Biso   1.000  O
  O76      1.0000 0.84083  0.55831  0.91653  Biso   1.000  O
  O77      1.0000 0.71748  0.15917  0.91653  Biso   1.000  O
  O78      1.0000 0.44169  0.28252  0.91653  Biso   1.000  O
  O79      1.0000 0.94919  0.77502  0.91680  Biso   1.000  O
  O80      1.0000 0.22498  0.17416  0.91680  Biso   1.000  O
  O81      1.0000 0.82584  0.05081  0.91680  Biso   1.000  O
  O82      1.0000 0.50750  0.89164  0.24986  Biso   1.000  O
  O83      1.0000 0.38415  0.49250  0.24986  Biso   1.000  O
  O84      1.0000 0.10836  0.61585  0.24986  Biso   1.000  O
  O85      1.0000 0.61585  0.10836  0.25014  Biso   1.000  O
  O86      1.0000 0.89164  0.50750  0.25014  Biso   1.000  O
  O87      1.0000 0.49250  0.38415  0.25014  Biso   1.000  O
  O88      1.0000 0.17416  0.22498  0.58320  Biso   1.000  O
  O89      1.0000 0.05081  0.82584  0.58320  Biso   1.000  O
  O90      1.0000 0.77502  0.94919  0.58320  Biso   1.000  O
  O91      1.0000 0.71748  0.55831  0.41653  Biso   1.000  O
  O92      1.0000 0.44169  0.15917  0.41653  Biso   1.000  O
  O93      1.0000 0.84083  0.28252  0.41653  Biso   1.000  O
  O94      1.0000 0.15917  0.44169  0.08347  Biso   1.000  O
  O95      1.0000 0.28252  0.84083  0.08347  Biso   1.000  O
  O96      1.0000 0.55831  0.71748  0.08347  Biso   1.000  O
  O97      1.0000 0.38415  0.89164  0.74986  Biso   1.000  O
  O98      1.0000 0.10836  0.49250  0.74986  Biso   1.000  O
  O99      1.0000 0.50750  0.61585  0.74986  Biso   1.000  O
  O100     1.0000 0.82584  0.77502  0.41680  Biso   1.000  O
  O101     1.0000 0.94919  0.17416  0.41680  Biso   1.000  O
  O102     1.0000 0.22498  0.05081  0.41680  Biso   1.000  O
  O103     1.0000 0.05081  0.22498  0.08320  Biso   1.000  O
  O104     1.0000 0.77502  0.82584  0.08320  Biso   1.000  O
  O105     1.0000 0.17416  0.94919  0.08320  Biso   1.000  O
  O106     1.0000 0.49250  0.10836  0.75014  Biso   1.000  O
  O107     1.0000 0.61585  0.50750  0.75014  Biso   1.000  O
  O108     1.0000 0.89164  0.38415  0.75014  Biso   1.000  O
  O109     1.0000 0.23984  0.35685  0.60485  Biso   1.000  O
  O110     1.0000 0.64315  0.88299  0.60485  Biso   1.000  O
  O111     1.0000 0.11701  0.76016  0.60485  Biso   1.000  O
  O112     1.0000 0.88299  0.64315  0.89515  Biso   1.000  O
  O113     1.0000 0.76016  0.11701  0.89515  Biso   1.000  O
  O114     1.0000 0.35685  0.23984  0.89515  Biso   1.000  O
  O115     1.0000 0.90651  0.69018  0.93818  Biso   1.000  O
  O116     1.0000 0.30982  0.21632  0.93818  Biso   1.000  O
  O117     1.0000 0.78368  0.09349  0.93818  Biso   1.000  O
  O118     1.0000 0.54966  0.97648  0.22848  Biso   1.000  O
  O119     1.0000 0.42683  0.45034  0.22848  Biso   1.000  O
  O120     1.0000 0.02352  0.57317  0.22848  Biso   1.000  O
  O121     1.0000 0.57317  0.02352  0.27152  Biso   1.000  O
  O122     1.0000 0.97648  0.54966  0.27152  Biso   1.000  O
  O123     1.0000 0.45034  0.42683  0.27152  Biso   1.000  O
  O124     1.0000 0.21632  0.30982  0.56182  Biso   1.000  O
  O125     1.0000 0.09349  0.78368  0.56182  Biso   1.000  O
  O126     1.0000 0.69018  0.90651  0.56182  Biso   1.000  O
  O127     1.0000 0.76016  0.64315  0.39515  Biso   1.000  O
  O128     1.0000 0.35685  0.11701  0.39515  Biso   1.000  O
  O129     1.0000 0.88299  0.23984  0.39515  Biso   1.000  O
  O130     1.0000 0.11701  0.35685  0.10485  Biso   1.000  O
  O131     1.0000 0.23984  0.88299  0.10485  Biso   1.000  O
  O132     1.0000 0.64315  0.76016  0.10485  Biso   1.000  O
  O133     1.0000 0.42683  0.97648  0.72848  Biso   1.000  O
  O134     1.0000 0.02352  0.45034  0.72848  Biso   1.000  O
  O135     1.0000 0.54966  0.57317  0.72848  Biso   1.000  O
  O136     1.0000 0.78368  0.69018  0.43818  Biso   1.000  O
  O137     1.0000 0.90651  0.21632  0.43818  Biso   1.000  O
  O138     1.0000 0.30982  0.09349  0.43818  Biso   1.000  O
  O139     1.0000 0.09349  0.30982  0.06182  Biso   1.000  O
  O140     1.0000 0.69018  0.78368  0.06182  Biso   1.000  O
  O141     1.0000 0.21632  0.90651  0.06182  Biso   1.000  O
  O142     1.0000 0.45034  0.02352  0.77152  Biso   1.000  O
  O143     1.0000 0.57317  0.54966  0.77152  Biso   1.000  O
  O144     1.0000 0.97648  0.42683  0.77152  Biso   1.000  O
  C649     1.0000 0.45060  0.42590  0.66969  Biso   1.000  C
  C650     1.0000 0.57410  0.02470  0.66969  Biso   1.000  C
  C651     1.0000 0.97530  0.54940  0.66969  Biso   1.000  C
  C652     1.0000 0.02470  0.57410  0.83031  Biso   1.000  C
  C653     1.0000 0.54940  0.97530  0.83031  Biso   1.000  C
  C654     1.0000 0.42590  0.45060  0.83031  Biso   1.000  C
  C655     1.0000 0.11727  0.75923  0.00302  Biso   1.000  C
  C656     1.0000 0.24077  0.35803  0.00302  Biso   1.000  C
  C657     1.0000 0.64197  0.88273  0.00302  Biso   1.000  C
  C658     1.0000 0.69137  0.90743  0.16364  Biso   1.000  C
  C659     1.0000 0.21607  0.30863  0.16364  Biso   1.000  C
  C660     1.0000 0.09257  0.78393  0.16364  Biso   1.000  C
  C661     1.0000 0.78393  0.09257  0.33636  Biso   1.000  C
  C662     1.0000 0.90743  0.69137  0.33636  Biso   1.000  C
  C663     1.0000 0.30863  0.21607  0.33636  Biso   1.000  C
  C664     1.0000 0.35803  0.24077  0.49698  Biso   1.000  C
  C665     1.0000 0.88273  0.64197  0.49698  Biso   1.000  C
  C666     1.0000 0.75923  0.11727  0.49698  Biso   1.000  C
  C667     1.0000 0.54940  0.57410  0.33031  Biso   1.000  C
  C668     1.0000 0.42590  0.97530  0.33031  Biso   1.000  C
  C669     1.0000 0.02470  0.45060  0.33031  Biso   1.000  C
  C670     1.0000 0.97530  0.42590  0.16969  Biso   1.000  C
  C671     1.0000 0.45060  0.02470  0.16969  Biso   1.000  C
  C672     1.0000 0.57410  0.54940  0.16969  Biso   1.000  C
  C673     1.0000 0.21607  0.90743  0.66364  Biso   1.000  C
  C674     1.0000 0.09257  0.30863  0.66364  Biso   1.000  C
  C675     1.0000 0.69137  0.78393  0.66364  Biso   1.000  C
  C676     1.0000 0.64197  0.75923  0.50302  Biso   1.000  C
  C677     1.0000 0.11727  0.35803  0.50302  Biso   1.000  C
  C678     1.0000 0.24077  0.88273  0.50302  Biso   1.000  C
  C679     1.0000 0.88273  0.24077  0.99698  Biso   1.000  C
  C680     1.0000 0.75923  0.64197  0.99698  Biso   1.000  C
  C681     1.0000 0.35803  0.11727  0.99698  Biso   1.000  C
  C682     1.0000 0.30863  0.09257  0.83636  Biso   1.000  C
  C683     1.0000 0.78393  0.69137  0.83636  Biso   1.000  C
  C684     1.0000 0.90743  0.21607  0.83636  Biso   1.000  C
  H361     1.0000 0.41210  0.41270  0.67830  Biso   1.000  H
  H362     1.0000 0.58730  0.99940  0.67830  Biso   1.000  H
  H363     1.0000 0.00060  0.58790  0.67830  Biso   1.000  H
  H364     1.0000 0.99940  0.58730  0.82170  Biso   1.000  H
  H365     1.0000 0.58790  0.00060  0.82170  Biso   1.000  H
  H366     1.0000 0.41270  0.41210  0.82170  Biso   1.000  H
  H367     1.0000 0.07877  0.74603  0.01163  Biso   1.000  H
  H368     1.0000 0.25397  0.33273  0.01163  Biso   1.000  H
  H369     1.0000 0.66727  0.92123  0.01163  Biso   1.000  H
  H370     1.0000 0.66607  0.92063  0.15503  Biso   1.000  H
  H371     1.0000 0.25457  0.33393  0.15503  Biso   1.000  H
  H372     1.0000 0.07937  0.74543  0.15503  Biso   1.000  H
  H373     1.0000 0.74543  0.07937  0.34497  Biso   1.000  H
  H374     1.0000 0.92063  0.66607  0.34497  Biso   1.000  H
  H375     1.0000 0.33393  0.25457  0.34497  Biso   1.000  H
  H376     1.0000 0.33273  0.25397  0.48837  Biso   1.000  H
  H377     1.0000 0.92123  0.66727  0.48837  Biso   1.000  H
  H378     1.0000 0.74603  0.07877  0.48837  Biso   1.000  H
  H379     1.0000 0.58790  0.58730  0.32170  Biso   1.000  H
  H380     1.0000 0.41270  0.00060  0.32170  Biso   1.000  H
  H381     1.0000 0.99940  0.41210  0.32170  Biso   1.000  H
  H382     1.0000 0.00060  0.41270  0.17830  Biso   1.000  H
  H383     1.0000 0.41210  0.99940  0.17830  Biso   1.000  H
  H384     1.0000 0.58730  0.58790  0.17830  Biso   1.000  H
  H385     1.0000 0.25457  0.92063  0.65503  Biso   1.000  H
  H386     1.0000 0.07937  0.33393  0.65503  Biso   1.000  H
  H387     1.0000 0.66607  0.74543  0.65503  Biso   1.000  H
  H388     1.0000 0.66727  0.74603  0.51163  Biso   1.000  H
  H389     1.0000 0.07877  0.33273  0.51163  Biso   1.000  H
  H390     1.0000 0.25397  0.92123  0.51163  Biso   1.000  H
  H391     1.0000 0.92123  0.25397  0.98837  Biso   1.000  H
  H392     1.0000 0.74603  0.66727  0.98837  Biso   1.000  H
  H393     1.0000 0.33273  0.07877  0.98837  Biso   1.000  H
  H394     1.0000 0.33393  0.07937  0.84497  Biso   1.000  H
  H395     1.0000 0.74543  0.66607  0.84497  Biso   1.000  H
  H396     1.0000 0.92063  0.25457  0.84497  Biso   1.000  H
  C685     1.0000 0.43160  0.44520  0.65479  Biso   1.000  C
  C686     1.0000 0.55480  0.98640  0.65479  Biso   1.000  C
  C687     1.0000 0.01360  0.56840  0.65479  Biso   1.000  C
  C688     1.0000 0.98640  0.55480  0.84521  Biso   1.000  C
  C689     1.0000 0.56840  0.01360  0.84521  Biso   1.000  C
  C690     1.0000 0.44520  0.43160  0.84521  Biso   1.000  C
  C691     1.0000 0.09827  0.77853  0.98812  Biso   1.000  C
  C692     1.0000 0.22147  0.31973  0.98812  Biso   1.000  C
  C693     1.0000 0.68027  0.90173  0.98812  Biso   1.000  C
  C694     1.0000 0.65307  0.88813  0.17854  Biso   1.000  C
  C695     1.0000 0.23507  0.34693  0.17854  Biso   1.000  C
  C696     1.0000 0.11187  0.76493  0.17854  Biso   1.000  C
  C697     1.0000 0.76493  0.11187  0.32146  Biso   1.000  C
  C698     1.0000 0.88813  0.65307  0.32146  Biso   1.000  C
  C699     1.0000 0.34693  0.23507  0.32146  Biso   1.000  C
  C700     1.0000 0.31973  0.22147  0.51188  Biso   1.000  C
  C701     1.0000 0.90173  0.68027  0.51188  Biso   1.000  C
  C702     1.0000 0.77853  0.09827  0.51188  Biso   1.000  C
  C703     1.0000 0.56840  0.55480  0.34521  Biso   1.000  C
  C704     1.0000 0.44520  0.01360  0.34521  Biso   1.000  C
  C705     1.0000 0.98640  0.43160  0.34521  Biso   1.000  C
  C706     1.0000 0.01360  0.44520  0.15479  Biso   1.000  C
  C707     1.0000 0.43160  0.98640  0.15479  Biso   1.000  C
  C708     1.0000 0.55480  0.56840  0.15479  Biso   1.000  C
  C709     1.0000 0.23507  0.88813  0.67854  Biso   1.000  C
  C710     1.0000 0.11187  0.34693  0.67854  Biso   1.000  C
  C711     1.0000 0.65307  0.76493  0.67854  Biso   1.000  C
  C712     1.0000 0.68027  0.77853  0.48812  Biso   1.000  C
  C713     1.0000 0.09827  0.31973  0.48812  Biso   1.000  C
  C714     1.0000 0.22147  0.90173  0.48812  Biso   1.000  C
  C715     1.0000 0.90173  0.22147  0.01188  Biso   1.000  C
  C716     1.0000 0.77853  0.68027  0.01188  Biso   1.000  C
  C717     1.0000 0.31973  0.09827  0.01188  Biso   1.000  C
  C718     1.0000 0.34693  0.11187  0.82146  Biso   1.000  C
  C719     1.0000 0.76493  0.65307  0.82146  Biso   1.000  C
  C720     1.0000 0.88813  0.23507  0.82146  Biso   1.000  C
  H397     1.0000 0.37690  0.43660  0.65280  Biso   1.000  H
  H398     1.0000 0.56340  0.94030  0.65280  Biso   1.000  H
  H399     1.0000 0.05970  0.62310  0.65280  Biso   1.000  H
  H400     1.0000 0.94030  0.56340  0.84720  Biso   1.000  H
  H401     1.0000 0.62310  0.05970  0.84720  Biso   1.000  H
  H402     1.0000 0.43660  0.37690  0.84720  Biso   1.000  H
  H403     1.0000 0.04357  0.76993  0.98613  Biso   1.000  H
  H404     1.0000 0.23007  0.27363  0.98613  Biso   1.000  H
  H405     1.0000 0.72637  0.95643  0.98613  Biso   1.000  H
  H406     1.0000 0.60697  0.89673  0.18053  Biso   1.000  H
  H407     1.0000 0.28977  0.39303  0.18053  Biso   1.000  H
  H408     1.0000 0.10327  0.71023  0.18053  Biso   1.000  H
  H409     1.0000 0.71023  0.10327  0.31947  Biso   1.000  H
  H410     1.0000 0.89673  0.60697  0.31947  Biso   1.000  H
  H411     1.0000 0.39303  0.28977  0.31947  Biso   1.000  H
  H412     1.0000 0.27363  0.23007  0.51387  Biso   1.000  H
  H413     1.0000 0.95643  0.72637  0.51387  Biso   1.000  H
  H414     1.0000 0.76993  0.04357  0.51387  Biso   1.000  H
  H415     1.0000 0.62310  0.56340  0.34720  Biso   1.000  H
  H416     1.0000 0.43660  0.05970  0.34720  Biso   1.000  H
  H417     1.0000 0.94030  0.37690  0.34720  Biso   1.000  H
  H418     1.0000 0.05970  0.43660  0.15280  Biso   1.000  H
  H419     1.0000 0.37690  0.94030  0.15280  Biso   1.000  H
  H420     1.0000 0.56340  0.62310  0.15280  Biso   1.000  H
  H421     1.0000 0.28977  0.89673  0.68053  Biso   1.000  H
  H422     1.0000 0.10327  0.39303  0.68053  Biso   1.000  H
  H423     1.0000 0.60697  0.71023  0.68053  Biso   1.000  H
  H424     1.0000 0.72637  0.76993  0.48613  Biso   1.000  H
  H425     1.0000 0.04357  0.27363  0.48613  Biso   1.000  H
  H426     1.0000 0.23007  0.95643  0.48613  Biso   1.000  H
  H427     1.0000 0.95643  0.23007  0.01387  Biso   1.000  H
  H428     1.0000 0.76993  0.72637  0.01387  Biso   1.000  H
  H429     1.0000 0.27363  0.04357  0.01387  Biso   1.000  H
  H430     1.0000 0.39303  0.10327  0.81947  Biso   1.000  H
  H431     1.0000 0.71023  0.60697  0.81947  Biso   1.000  H
  H432     1.0000 0.89673  0.28977  0.81947  Biso   1.000  H
  C721     1.0000 0.55930  0.46870  0.64521  Biso   1.000  C
  C722     1.0000 0.53130  0.09060  0.64521  Biso   1.000  C
  C723     1.0000 0.90940  0.44070  0.64521  Biso   1.000  C
  C724     1.0000 0.09060  0.53130  0.85479  Biso   1.000  C
  C725     1.0000 0.44070  0.90940  0.85479  Biso   1.000  C
  C726     1.0000 0.46870  0.55930  0.85479  Biso   1.000  C
  C727     1.0000 0.22597  0.80203  0.97854  Biso   1.000  C
  C728     1.0000 0.19797  0.42393  0.97854  Biso   1.000  C
  C729     1.0000 0.57607  0.77403  0.97854  Biso   1.000  C
  C730     1.0000 0.75727  0.86463  0.18812  Biso   1.000  C
  C731     1.0000 0.10737  0.24273  0.18812  Biso   1.000  C
  C732     1.0000 0.13537  0.89263  0.18812  Biso   1.000  C
  C733     1.0000 0.89263  0.13537  0.31188  Biso   1.000  C
  C734     1.0000 0.86463  0.75727  0.31188  Biso   1.000  C
  C735     1.0000 0.24273  0.10737  0.31188  Biso   1.000  C
  C736     1.0000 0.42393  0.19797  0.52146  Biso   1.000  C
  C737     1.0000 0.77403  0.57607  0.52146  Biso   1.000  C
  C738     1.0000 0.80203  0.22597  0.52146  Biso   1.000  C
  C739     1.0000 0.44070  0.53130  0.35479  Biso   1.000  C
  C740     1.0000 0.46870  0.90940  0.35479  Biso   1.000  C
  C741     1.0000 0.09060  0.55930  0.35479  Biso   1.000  C
  C742     1.0000 0.90940  0.46870  0.14521  Biso   1.000  C
  C743     1.0000 0.55930  0.09060  0.14521  Biso   1.000  C
  C744     1.0000 0.53130  0.44070  0.14521  Biso   1.000  C
  C745     1.0000 0.10737  0.86463  0.68812  Biso   1.000  C
  C746     1.0000 0.13537  0.24273  0.68812  Biso   1.000  C
  C747     1.0000 0.75727  0.89263  0.68812  Biso   1.000  C
  C748     1.0000 0.57607  0.80203  0.47854  Biso   1.000  C
  C749     1.0000 0.22597  0.42393  0.47854  Biso   1.000  C
  C750     1.0000 0.19797  0.77403  0.47854  Biso   1.000  C
  C751     1.0000 0.77403  0.19797  0.02146  Biso   1.000  C
  C752     1.0000 0.80203  0.57607  0.02146  Biso   1.000  C
  C753     1.0000 0.42393  0.22597  0.02146  Biso   1.000  C
  C754     1.0000 0.24273  0.13537  0.81188  Biso   1.000  C
  C755     1.0000 0.89263  0.75727  0.81188  Biso   1.000  C
  C756     1.0000 0.86463  0.10737  0.81188  Biso   1.000  C
  H433     1.0000 0.59870  0.48200  0.63680  Biso   1.000  H
  H434     1.0000 0.51800  0.11670  0.63680  Biso   1.000  H
  H435     1.0000 0.88330  0.40130  0.63680  Biso   1.000  H
  H436     1.0000 0.11670  0.51800  0.86320  Biso   1.000  H
  H437     1.0000 0.40130  0.88330  0.86320  Biso   1.000  H
  H438     1.0000 0.48200  0.59870  0.86320  Biso   1.000  H
  H439     1.0000 0.26537  0.81533  0.97013  Biso   1.000  H
  H440     1.0000 0.18467  0.45003  0.97013  Biso   1.000  H
  H441     1.0000 0.54997  0.73463  0.97013  Biso   1.000  H
  H442     1.0000 0.78337  0.85133  0.19653  Biso   1.000  H
  H443     1.0000 0.06797  0.21663  0.19653  Biso   1.000  H
  H444     1.0000 0.14867  0.93203  0.19653  Biso   1.000  H
  H445     1.0000 0.93203  0.14867  0.30347  Biso   1.000  H
  H446     1.0000 0.85133  0.78337  0.30347  Biso   1.000  H
  H447     1.0000 0.21663  0.06797  0.30347  Biso   1.000  H
  H448     1.0000 0.45003  0.18467  0.52987  Biso   1.000  H
  H449     1.0000 0.73463  0.54997  0.52987  Biso   1.000  H
  H450     1.0000 0.81533  0.26537  0.52987  Biso   1.000  H
  H451     1.0000 0.40130  0.51800  0.36320  Biso   1.000  H
  H452     1.0000 0.48200  0.88330  0.36320  Biso   1.000  H
  H453     1.0000 0.11670  0.59870  0.36320  Biso   1.000  H
  H454     1.0000 0.88330  0.48200  0.13680  Biso   1.000  H
  H455     1.0000 0.59870  0.11670  0.13680  Biso   1.000  H
  H456     1.0000 0.51800  0.40130  0.13680  Biso   1.000  H
  H457     1.0000 0.06797  0.85133  0.69653  Biso   1.000  H
  H458     1.0000 0.14867  0.21663  0.69653  Biso   1.000  H
  H459     1.0000 0.78337  0.93203  0.69653  Biso   1.000  H
  H460     1.0000 0.54997  0.81533  0.47013  Biso   1.000  H
  H461     1.0000 0.26537  0.45003  0.47013  Biso   1.000  H
  H462     1.0000 0.18467  0.73463  0.47013  Biso   1.000  H
  H463     1.0000 0.73463  0.18467  0.02987  Biso   1.000  H
  H464     1.0000 0.81533  0.54997  0.02987  Biso   1.000  H
  H465     1.0000 0.45003  0.26537  0.02987  Biso   1.000  H
  H466     1.0000 0.21663  0.14867  0.80347  Biso   1.000  H
  H467     1.0000 0.93203  0.78337  0.80347  Biso   1.000  H
  H468     1.0000 0.85133  0.06797  0.80347  Biso   1.000  H
  C757     1.0000 0.57370  0.44130  0.65977  Biso   1.000  C
  C758     1.0000 0.55870  0.13240  0.65977  Biso   1.000  C
  C759     1.0000 0.86760  0.42630  0.65977  Biso   1.000  C
  C760     1.0000 0.13240  0.55870  0.84023  Biso   1.000  C
  C761     1.0000 0.42630  0.86760  0.84023  Biso   1.000  C
  C762     1.0000 0.44130  0.57370  0.84023  Biso   1.000  C
  C763     1.0000 0.24037  0.77463  0.99310  Biso   1.000  C
  C764     1.0000 0.22537  0.46573  0.99310  Biso   1.000  C
  C765     1.0000 0.53427  0.75963  0.99310  Biso   1.000  C
  C766     1.0000 0.79907  0.89203  0.17356  Biso   1.000  C
  C767     1.0000 0.09297  0.20093  0.17356  Biso   1.000  C
  C768     1.0000 0.10797  0.90703  0.17356  Biso   1.000  C
  C769     1.0000 0.90703  0.10797  0.32644  Biso   1.000  C
  C770     1.0000 0.89203  0.79907  0.32644  Biso   1.000  C
  C771     1.0000 0.20093  0.09297  0.32644  Biso   1.000  C
  C772     1.0000 0.46573  0.22537  0.50690  Biso   1.000  C
  C773     1.0000 0.75963  0.53427  0.50690  Biso   1.000  C
  C774     1.0000 0.77463  0.24037  0.50690  Biso   1.000  C
  C775     1.0000 0.42630  0.55870  0.34023  Biso   1.000  C
  C776     1.0000 0.44130  0.86760  0.34023  Biso   1.000  C
  C777     1.0000 0.13240  0.57370  0.34023  Biso   1.000  C
  C778     1.0000 0.86760  0.44130  0.15977  Biso   1.000  C
  C779     1.0000 0.57370  0.13240  0.15977  Biso   1.000  C
  C780     1.0000 0.55870  0.42630  0.15977  Biso   1.000  C
  C781     1.0000 0.09297  0.89203  0.67356  Biso   1.000  C
  C782     1.0000 0.10797  0.20093  0.67356  Biso   1.000  C
  C783     1.0000 0.79907  0.90703  0.67356  Biso   1.000  C
  C784     1.0000 0.53427  0.77463  0.49310  Biso   1.000  C
  C785     1.0000 0.24037  0.46573  0.49310  Biso   1.000  C
  C786     1.0000 0.22537  0.75963  0.49310  Biso   1.000  C
  C787     1.0000 0.75963  0.22537  0.00690  Biso   1.000  C
  C788     1.0000 0.77463  0.53427  0.00690  Biso   1.000  C
  C789     1.0000 0.46573  0.24037  0.00690  Biso   1.000  C
  C790     1.0000 0.20093  0.10797  0.82644  Biso   1.000  C
  C791     1.0000 0.90703  0.79907  0.82644  Biso   1.000  C
  C792     1.0000 0.89203  0.09297  0.82644  Biso   1.000  C
  H469     1.0000 0.62110  0.43380  0.66080  Biso   1.000  H
  H470     1.0000 0.56620  0.18730  0.66080  Biso   1.000  H
  H471     1.0000 0.81270  0.37890  0.66080  Biso   1.000  H
  H472     1.0000 0.18730  0.56620  0.83920  Biso   1.000  H
  H473     1.0000 0.37890  0.81270  0.83920  Biso   1.000  H
  H474     1.0000 0.43380  0.62110  0.83920  Biso   1.000  H
  H475     1.0000 0.28777  0.76713  0.99413  Biso   1.000  H
  H476     1.0000 0.23287  0.52063  0.99413  Biso   1.000  H
  H477     1.0000 0.47937  0.71223  0.99413  Biso   1.000  H
  H478     1.0000 0.85397  0.89953  0.17253  Biso   1.000  H
  H479     1.0000 0.04557  0.14603  0.17253  Biso   1.000  H
  H480     1.0000 0.10047  0.95443  0.17253  Biso   1.000  H
  H481     1.0000 0.95443  0.10047  0.32747  Biso   1.000  H
  H482     1.0000 0.89953  0.85397  0.32747  Biso   1.000  H
  H483     1.0000 0.14603  0.04557  0.32747  Biso   1.000  H
  H484     1.0000 0.52063  0.23287  0.50587  Biso   1.000  H
  H485     1.0000 0.71223  0.47937  0.50587  Biso   1.000  H
  H486     1.0000 0.76713  0.28777  0.50587  Biso   1.000  H
  H487     1.0000 0.37890  0.56620  0.33920  Biso   1.000  H
  H488     1.0000 0.43380  0.81270  0.33920  Biso   1.000  H
  H489     1.0000 0.18730  0.62110  0.33920  Biso   1.000  H
  H490     1.0000 0.81270  0.43380  0.16080  Biso   1.000  H
  H491     1.0000 0.62110  0.18730  0.16080  Biso   1.000  H
  H492     1.0000 0.56620  0.37890  0.16080  Biso   1.000  H
  H493     1.0000 0.04557  0.89953  0.67253  Biso   1.000  H
  H494     1.0000 0.10047  0.14603  0.67253  Biso   1.000  H
  H495     1.0000 0.85397  0.95443  0.67253  Biso   1.000  H
  H496     1.0000 0.47937  0.76713  0.49413  Biso   1.000  H
  H497     1.0000 0.28777  0.52063  0.49413  Biso   1.000  H
  H498     1.0000 0.23287  0.71223  0.49413  Biso   1.000  H
  H499     1.0000 0.71223  0.23287  0.00587  Biso   1.000  H
  H500     1.0000 0.76713  0.47937  0.00587  Biso   1.000  H
  H501     1.0000 0.52063  0.28777  0.00587  Biso   1.000  H
  H502     1.0000 0.14603  0.10047  0.82747  Biso   1.000  H
  H503     1.0000 0.95443  0.85397  0.82747  Biso   1.000  H
  H504     1.0000 0.89953  0.04557  0.82747  Biso   1.000  H
